# generated using pymatgen
data_Si6H2O13
_symmetry_space_group_name_H-M   'P 1'
_cell_length_a   7.58105935
_cell_length_b   19.19557793
_cell_length_c   43.65765570
_cell_angle_alpha   134.99978641
_cell_angle_beta   90.00000000
_cell_angle_gamma   90.00000000
_symmetry_Int_Tables_number   1
_chemical_formula_structural   Si6H2O13
_chemical_formula_sum   'Si24 H8 O52'
_cell_volume   4492.39692583
_cell_formula_units_Z   4
loop_
 _symmetry_equiv_pos_site_id
 _symmetry_equiv_pos_as_xyz
  1  'x, y, z'
loop_
 _atom_site_type_symbol
 _atom_site_label
 _atom_site_symmetry_multiplicity
 _atom_site_fract_x
 _atom_site_fract_y
 _atom_site_fract_z
 _atom_site_occupancy
  O  O1  1  0.125164  0.250101  0.263109  1
  O  O2  1  0.125187  0.509073  0.263104  1
  O  O3  1  0.874604  0.750079  0.263102  1
  O  O4  1  0.874583  0.009073  0.263099  1
  O  O5  1  0.330534  0.115258  0.241355  1
  O  O6  1  0.330425  0.574022  0.325231  1
  O  O7  1  0.330468  0.573992  0.241358  1
  O  O8  1  0.330421  0.384970  0.325231  1
  O  O9  1  0.669347  0.615217  0.241368  1
  O  O10  1  0.669283  0.073990  0.325208  1
  O  O11  1  0.669319  0.884935  0.325215  1
  O  O12  1  0.669414  0.074063  0.241367  1
  O  O13  1  -0.000000  0.096437  0.242499  1
  O  O14  1  0.000000  0.596439  0.242498  1
  O  O15  1  0.136004  0.073884  0.182583  1
  O  O16  1  0.135983  0.426323  0.292167  1
  O  O17  1  0.136009  0.426298  0.182581  1
  O  O18  1  0.863778  0.926330  0.182583  1
  O  O19  1  0.863760  0.573856  0.182586  1
  O  O20  1  0.863744  0.926299  0.292153  1
  O  O21  1  0.542825  0.250128  0.298769  1
  O  O22  1  0.542771  0.623775  0.298770  1
  O  O23  1  0.456981  0.750073  0.298758  1
  O  O24  1  0.457021  0.123788  0.298753  1
  O  O25  1  0.125166  0.250078  0.412958  1
  O  O26  1  0.125191  0.991111  0.412962  1
  O  O27  1  0.874611  0.750110  0.412968  1
  O  O28  1  0.874583  0.491111  0.412972  1
  O  O29  1  0.330460  0.384937  0.434705  1
  O  O30  1  0.330441  0.926148  0.350836  1
  O  O31  1  0.330404  0.115217  0.350828  1
  O  O32  1  0.330420  0.926173  0.434708  1
  O  O33  1  0.669299  0.884960  0.434708  1
  O  O34  1  0.669299  0.426213  0.350863  1
  O  O35  1  0.669339  0.426148  0.434706  1
  O  O36  1  0.669305  0.615247  0.350862  1
  O  O37  1  0.000000  0.596453  0.338035  1
  O  O38  1  0.000000  0.403732  0.433570  1
  O  O39  1  0.000000  0.903731  0.338031  1
  O  O40  1  -0.000000  0.096441  0.338030  1
  O  O41  1  -0.000000  0.403743  0.338041  1
  O  O42  1  0.000000  0.903757  0.433570  1
  O  O43  1  0.136004  0.073884  0.493486  1
  O  O44  1  0.136009  0.426298  0.493483  1
  O  O45  1  0.136025  0.073856  0.383897  1
  O  O46  1  0.863778  0.926330  0.493486  1
  O  O47  1  0.863787  0.573892  0.383920  1
  O  O48  1  0.863760  0.573856  0.493488  1
  O  O49  1  0.542785  0.250074  0.377299  1
  O  O50  1  0.542758  0.876397  0.377303  1
  O  O51  1  0.456954  0.750097  0.377313  1
  O  O52  1  0.456995  0.376410  0.377310  1
  Si  Si53  1  0.146394  0.135860  0.232369  1
  Si  Si54  1  0.146333  0.524475  0.303411  1
  Si  Si55  1  0.146364  0.524454  0.232368  1
  Si  Si56  1  0.146326  0.364342  0.303414  1
  Si  Si57  1  0.853435  0.635839  0.232373  1
  Si  Si58  1  0.853391  0.024454  0.303399  1
  Si  Si59  1  0.853416  0.864321  0.303402  1
  Si  Si60  1  0.853472  0.024483  0.232371  1
  Si  Si61  1  0.499894  0.637020  0.267737  1
  Si  Si62  1  0.499955  0.137067  0.267734  1
  Si  Si63  1  0.146354  0.364321  0.443696  1
  Si  Si64  1  0.146354  0.975705  0.372654  1
  Si  Si65  1  0.146331  0.135839  0.372651  1
  Si  Si66  1  0.146336  0.975727  0.443698  1
  Si  Si67  1  0.853414  0.864349  0.443699  1
  Si  Si68  1  0.853415  0.475736  0.372674  1
  Si  Si69  1  0.853425  0.475704  0.443700  1
  Si  Si70  1  0.853421  0.635867  0.372670  1
  Si  Si71  1  0.499867  0.137024  0.338020  1
  Si  Si72  1  0.499858  0.863151  0.408335  1
  Si  Si73  1  0.499880  0.363176  0.338045  1
  Si  Si74  1  0.499876  0.863130  0.338028  1
  Si  Si75  1  0.499897  0.363134  0.408332  1
  Si  Si76  1  0.499864  0.637042  0.338044  1
  H  H77  1  0.136004  0.073884  0.161968  1
  H  H78  1  0.136009  0.426298  0.161966  1
  H  H79  1  0.863778  0.926330  0.161968  1
  H  H80  1  0.863760  0.573856  0.161971  1
  H  H81  1  0.136004  0.073884  0.514101  1
  H  H82  1  0.136009  0.426298  0.514098  1
  H  H83  1  0.863778  0.926330  0.514101  1
  H  H84  1  0.863760  0.573856  0.514103  1
