# generated using pymatgen
data_Si12H2O25
_symmetry_space_group_name_H-M   'P 1'
_cell_length_a   8.93798613
_cell_length_b   15.03304869
_cell_length_c   41.01016919
_cell_angle_alpha   90.00000000
_cell_angle_beta   90.00000000
_cell_angle_gamma   90.00000000
_symmetry_Int_Tables_number   1
_chemical_formula_structural   Si12H2O25
_chemical_formula_sum   'Si48 H8 O100'
_cell_volume   5510.33879299
_cell_formula_units_Z   4
loop_
 _symmetry_equiv_pos_site_id
 _symmetry_equiv_pos_as_xyz
  1  'x, y, z'
loop_
 _atom_site_type_symbol
 _atom_site_label
 _atom_site_symmetry_multiplicity
 _atom_site_fract_x
 _atom_site_fract_y
 _atom_site_fract_z
 _atom_site_occupancy
  O  O1  1  0.250117  0.878116  0.260977  1
  O  O2  1  0.750112  0.378115  0.260973  1
  O  O3  1  0.750118  0.878116  0.260974  1
  O  O4  1  0.250111  0.378115  0.260975  1
  O  O5  1  0.250120  0.621710  0.495185  1
  O  O6  1  0.750111  0.121711  0.495184  1
  O  O7  1  0.750117  0.621710  0.495182  1
  O  O8  1  0.250113  0.121711  0.495186  1
  O  O9  1  0.000000  0.874737  0.291760  1
  O  O10  1  0.500116  0.374737  0.291758  1
  O  O11  1  -0.000000  0.625089  0.525968  1
  O  O12  1  0.500116  0.125089  0.525970  1
  O  O13  1  -0.000000  0.125089  0.464400  1
  O  O14  1  0.500114  0.625089  0.464398  1
  O  O15  1  0.000000  0.374737  0.230188  1
  O  O16  1  0.500113  0.874737  0.230190  1
  O  O17  1  0.199241  0.755709  0.302006  1
  O  O18  1  0.699242  0.255706  0.301999  1
  O  O19  1  0.800985  0.755706  0.302000  1
  O  O20  1  0.300989  0.255708  0.302004  1
  O  O21  1  0.199241  0.744117  0.536213  1
  O  O22  1  0.699244  0.244120  0.536210  1
  O  O23  1  0.800987  0.744120  0.536208  1
  O  O24  1  0.300989  0.244118  0.536216  1
  O  O25  1  0.800989  0.244118  0.454155  1
  O  O26  1  0.300986  0.744120  0.454158  1
  O  O27  1  0.199244  0.244121  0.454160  1
  O  O28  1  0.699243  0.744118  0.454153  1
  O  O29  1  0.800987  0.255708  0.219943  1
  O  O30  1  0.300986  0.755705  0.219950  1
  O  O31  1  0.199244  0.255706  0.219948  1
  O  O32  1  0.699240  0.755709  0.219945  1
  O  O33  1  0.242583  0.916343  0.322522  1
  O  O34  1  0.742597  0.416337  0.322519  1
  O  O35  1  0.757630  0.916338  0.322521  1
  O  O36  1  0.257647  0.416342  0.322521  1
  O  O37  1  0.242582  0.583484  0.556730  1
  O  O38  1  0.742600  0.083488  0.556730  1
  O  O39  1  0.757633  0.583489  0.556729  1
  O  O40  1  0.257646  0.083483  0.556732  1
  O  O41  1  0.757647  0.083484  0.433638  1
  O  O42  1  0.257631  0.583489  0.433638  1
  O  O43  1  0.242598  0.083489  0.433640  1
  O  O44  1  0.742584  0.583483  0.433637  1
  O  O45  1  0.757645  0.416343  0.199427  1
  O  O46  1  0.257631  0.916336  0.199430  1
  O  O47  1  0.242599  0.416338  0.199429  1
  O  O48  1  0.742581  0.916342  0.199428  1
  O  O49  1  0.205148  0.083511  0.199839  1
  O  O50  1  0.705144  0.583516  0.199832  1
  O  O51  1  0.795084  0.083515  0.199831  1
  O  O52  1  0.295080  0.583512  0.199840  1
  O  O53  1  0.205150  0.416314  0.434050  1
  O  O54  1  0.705144  0.916311  0.434040  1
  O  O55  1  0.795084  0.416310  0.434042  1
  O  O56  1  0.295082  0.916315  0.434049  1
  O  O57  1  0.795081  0.916314  0.556318  1
  O  O58  1  0.295085  0.416312  0.556328  1
  O  O59  1  0.205146  0.916310  0.556327  1
  O  O60  1  0.705149  0.416316  0.556320  1
  O  O61  1  0.795081  0.583510  0.322110  1
  O  O62  1  0.295082  0.083516  0.322117  1
  O  O63  1  0.205143  0.583515  0.322118  1
  O  O64  1  0.705150  0.083511  0.322109  1
  O  O65  1  0.210216  0.000000  0.143872  1
  O  O66  1  0.710216  0.499909  0.143867  1
  O  O67  1  0.790013  0.000000  0.143867  1
  O  O68  1  0.290014  0.499924  0.143872  1
  O  O69  1  0.210217  0.499901  0.378082  1
  O  O70  1  0.710215  0.000000  0.378077  1
  O  O71  1  0.790013  0.499916  0.378076  1
  O  O72  1  0.290014  0.000000  0.378082  1
  O  O73  1  0.000000  0.975323  0.184142  1
  O  O74  1  0.500118  0.475327  0.184142  1
  O  O75  1  -0.000000  0.524499  0.418352  1
  O  O76  1  0.500120  0.024504  0.418352  1
  O  O77  1  -0.000000  0.024499  0.572017  1
  O  O78  1  0.500112  0.524504  0.572016  1
  O  O79  1  0.000000  0.475322  0.337806  1
  O  O80  1  0.500110  0.975327  0.337807  1
  O  O81  1  0.250102  0.130837  0.260978  1
  O  O82  1  0.750126  0.630837  0.260971  1
  O  O83  1  0.750103  0.130837  0.260969  1
  O  O84  1  0.250125  0.630837  0.260980  1
  O  O85  1  0.250104  0.368989  0.495189  1
  O  O86  1  0.750126  0.868989  0.495179  1
  O  O87  1  0.750104  0.368989  0.495181  1
  O  O88  1  0.250126  0.868989  0.495188  1
  O  O89  1  0.500110  0.146259  0.287333  1
  O  O90  1  -0.000000  0.646260  0.287335  1
  O  O91  1  0.500112  0.353567  0.521544  1
  O  O92  1  0.000000  0.853567  0.521543  1
  O  O93  1  0.500119  0.853566  0.468824  1
  O  O94  1  -0.000000  0.353567  0.468825  1
  O  O95  1  0.500118  0.646259  0.234616  1
  O  O96  1  -0.000000  0.146260  0.234614  1
  O  O97  1  0.210216  -0.000000  0.612291  1
  O  O98  1  0.710216  0.499909  0.612286  1
  O  O99  1  0.790013  0.000000  0.612286  1
  O  O100  1  0.290014  0.499924  0.612291  1
  Si  Si101  1  0.173186  0.857923  0.294742  1
  Si  Si102  1  0.673189  0.357923  0.294739  1
  Si  Si103  1  0.827040  0.857922  0.294741  1
  Si  Si104  1  0.327042  0.357924  0.294741  1
  Si  Si105  1  0.173187  0.641902  0.528950  1
  Si  Si106  1  0.673189  0.141904  0.528951  1
  Si  Si107  1  0.827041  0.641903  0.528949  1
  Si  Si108  1  0.327043  0.141902  0.528952  1
  Si  Si109  1  0.827042  0.141902  0.461418  1
  Si  Si110  1  0.327041  0.641904  0.461418  1
  Si  Si111  1  0.173190  0.141904  0.461419  1
  Si  Si112  1  0.673187  0.641902  0.461416  1
  Si  Si113  1  0.827042  0.357924  0.227207  1
  Si  Si114  1  0.327041  0.857922  0.227210  1
  Si  Si115  1  0.173189  0.357923  0.227208  1
  Si  Si116  1  0.673186  0.857924  0.227208  1
  Si  Si117  1  0.172929  0.993120  0.181336  1
  Si  Si118  1  0.672935  0.493122  0.181331  1
  Si  Si119  1  0.827292  0.993117  0.181331  1
  Si  Si120  1  0.327300  0.493124  0.181335  1
  Si  Si121  1  0.172930  0.506702  0.415545  1
  Si  Si122  1  0.672936  0.006708  0.415541  1
  Si  Si123  1  0.827294  0.506705  0.415541  1
  Si  Si124  1  0.327301  0.006705  0.415545  1
  Si  Si125  1  0.827302  0.006702  0.574823  1
  Si  Si126  1  0.327295  0.506709  0.574828  1
  Si  Si127  1  0.172935  0.006705  0.574828  1
  Si  Si128  1  0.672929  0.506706  0.574823  1
  Si  Si129  1  0.827301  0.493121  0.340614  1
  Si  Si130  1  0.327294  0.993121  0.340618  1
  Si  Si131  1  0.172934  0.493118  0.340618  1
  Si  Si132  1  0.672928  0.993123  0.340614  1
  Si  Si133  1  0.328374  0.153814  0.294370  1
  Si  Si134  1  0.828376  0.653815  0.294365  1
  Si  Si135  1  0.671852  0.153813  0.294364  1
  Si  Si136  1  0.171854  0.653816  0.294371  1
  Si  Si137  1  0.328375  0.346011  0.528581  1
  Si  Si138  1  0.828377  0.846012  0.528573  1
  Si  Si139  1  0.671854  0.346012  0.528575  1
  Si  Si140  1  0.171856  0.846011  0.528580  1
  Si  Si141  1  0.671856  0.846011  0.461787  1
  Si  Si142  1  0.171853  0.346012  0.461795  1
  Si  Si143  1  0.328377  0.846012  0.461793  1
  Si  Si144  1  0.828376  0.346011  0.461789  1
  Si  Si145  1  0.671854  0.653816  0.227579  1
  Si  Si146  1  0.171852  0.153814  0.227584  1
  Si  Si147  1  0.328376  0.653814  0.227585  1
  Si  Si148  1  0.828374  0.153815  0.227577  1
  H  H149  1  0.210216  0.000000  0.121926  1
  H  H150  1  0.710216  0.499909  0.121921  1
  H  H151  1  0.790013  0.000000  0.121921  1
  H  H152  1  0.290014  0.499924  0.121926  1
  H  H153  1  0.210216  0.000000  0.634237  1
  H  H154  1  0.710216  0.499909  0.634232  1
  H  H155  1  0.790013  0.000000  0.634232  1
  H  H156  1  0.290014  0.499924  0.634237  1
