# generated using pymatgen
data_Si4H2O9
_symmetry_space_group_name_H-M   'P 1'
_cell_length_a   9.73973730
_cell_length_b   13.78101734
_cell_length_c   40.16310855
_cell_angle_alpha   134.99809859
_cell_angle_beta   90.00000000
_cell_angle_gamma   90.00000000
_symmetry_Int_Tables_number   1
_chemical_formula_structural   Si4H2O9
_chemical_formula_sum   'Si16 H8 O36'
_cell_volume   3812.02074542
_cell_formula_units_Z   4
loop_
 _symmetry_equiv_pos_site_id
 _symmetry_equiv_pos_as_xyz
  1  'x, y, z'
loop_
 _atom_site_type_symbol
 _atom_site_label
 _atom_site_symmetry_multiplicity
 _atom_site_fract_x
 _atom_site_fract_y
 _atom_site_fract_z
 _atom_site_occupancy
  O  O1  1  0.732779  0.762793  0.206814  1
  O  O2  1  0.267369  0.237495  0.198462  1
  O  O3  1  0.232932  0.734004  0.198485  1
  O  O4  1  0.767215  0.266285  0.206790  1
  O  O5  1  0.261822  0.233732  0.318849  1
  O  O6  1  0.238029  0.737072  0.320528  1
  O  O7  1  0.988202  0.816444  0.235288  1
  O  O8  1  0.511936  0.318901  0.235316  1
  O  O9  1  0.807832  0.827475  0.282805  1
  O  O10  1  0.327322  0.308009  0.276581  1
  O  O11  1  0.815559  0.008862  0.282126  1
  O  O12  1  0.319493  0.491448  0.277034  1
  O  O13  1  0.172850  0.808037  0.277177  1
  O  O14  1  0.692291  0.327451  0.282213  1
  O  O15  1  0.180705  0.988971  0.276426  1
  O  O16  1  0.684543  0.511332  0.282732  1
  O  O17  1  0.508108  0.316399  0.323463  1
  O  O18  1  0.008091  0.181340  0.323256  1
  O  O19  1  0.732779  0.762793  0.449433  1
  O  O20  1  0.267369  0.237495  0.441080  1
  O  O21  1  0.232932  0.734004  0.441104  1
  O  O22  1  0.767215  0.266285  0.449409  1
  O  O23  1  0.738326  0.766556  0.329046  1
  O  O24  1  0.762120  0.263217  0.327366  1
  O  O25  1  0.992058  0.818949  0.324638  1
  O  O26  1  0.819443  0.011318  0.371469  1
  O  O27  1  0.315605  0.488957  0.365162  1
  O  O28  1  0.184590  0.991427  0.365768  1
  O  O29  1  0.680655  0.508841  0.370860  1
  O  O30  1  0.492040  0.683890  0.324432  1
  O  O31  1  0.827299  0.192253  0.370718  1
  O  O32  1  0.307857  0.672838  0.365681  1
  O  O33  1  0.192316  0.172814  0.365090  1
  O  O34  1  0.672827  0.692279  0.371313  1
  O  O35  1  0.011945  0.183845  0.412606  1
  O  O36  1  0.488213  0.681388  0.412579  1
  Si  Si37  1  0.832297  0.850069  0.249899  1
  Si  Si38  1  0.352689  0.335126  0.244990  1
  Si  Si39  1  0.147466  0.832993  0.244972  1
  Si  Si40  1  0.667858  0.352199  0.249911  1
  Si  Si41  1  0.349371  0.333010  0.321033  1
  Si  Si42  1  0.150775  0.835159  0.322053  1
  Si  Si43  1  0.335626  0.650214  0.321944  1
  Si  Si44  1  0.164544  0.148077  0.320920  1
  Si  Si45  1  0.835605  0.852212  0.326974  1
  Si  Si46  1  0.664523  0.350075  0.325950  1
  Si  Si47  1  0.849373  0.165129  0.325841  1
  Si  Si48  1  0.650777  0.667279  0.326862  1
  Si  Si49  1  0.167851  0.150220  0.397995  1
  Si  Si50  1  0.647459  0.665163  0.402904  1
  Si  Si51  1  0.852682  0.167295  0.402922  1
  Si  Si52  1  0.332290  0.648090  0.397984  1
  H  H53  1  0.732779  0.762793  0.184405  1
  H  H54  1  0.267369  0.237495  0.176053  1
  H  H55  1  0.232932  0.734004  0.176076  1
  H  H56  1  0.767215  0.266285  0.184382  1
  H  H57  1  0.732779  0.762793  0.471841  1
  H  H58  1  0.267369  0.237495  0.463489  1
  H  H59  1  0.232932  0.734004  0.463512  1
  H  H60  1  0.767215  0.266285  0.471818  1
