# generated using pymatgen
data_Si6H2O13
_symmetry_space_group_name_H-M   'P 1'
_cell_length_a   8.32108458
_cell_length_b   18.54608556
_cell_length_c   35.20890280
_cell_angle_alpha   58.06386483
_cell_angle_beta   90.00000000
_cell_angle_gamma   90.00000000
_symmetry_Int_Tables_number   1
_chemical_formula_structural   Si6H2O13
_chemical_formula_sum   'Si24 H8 O52'
_cell_volume   4611.12915415
_cell_formula_units_Z   4
loop_
 _symmetry_equiv_pos_site_id
 _symmetry_equiv_pos_as_xyz
  1  'x, y, z'
loop_
 _atom_site_type_symbol
 _atom_site_label
 _atom_site_symmetry_multiplicity
 _atom_site_fract_x
 _atom_site_fract_y
 _atom_site_fract_z
 _atom_site_occupancy
  O  O1  1  0.503740  0.089242  0.253857  1
  O  O2  1  0.503563  0.590569  0.253936  1
  O  O3  1  0.503546  0.909493  0.304390  1
  O  O4  1  0.503721  0.410821  0.303571  1
  O  O5  1  0.012469  0.090977  0.359582  1
  O  O6  1  0.012718  0.589353  0.360557  1
  O  O7  1  0.012737  0.910746  0.410322  1
  O  O8  1  0.012488  0.409121  0.410252  1
  O  O9  1  0.487136  0.910607  0.410291  1
  O  O10  1  0.487250  0.409241  0.410217  1
  O  O11  1  0.487231  0.090820  0.359622  1
  O  O12  1  0.487116  0.589454  0.360457  1
  O  O13  1  0.996303  0.909397  0.304487  1
  O  O14  1  0.995994  0.410971  0.303526  1
  O  O15  1  0.996012  0.089127  0.253886  1
  O  O16  1  0.996322  0.590702  0.253970  1
  O  O17  1  0.516350  0.200208  0.275795  1
  O  O18  1  0.516086  0.700187  0.276804  1
  O  O19  1  0.516086  0.799876  0.388344  1
  O  O20  1  0.516351  0.299855  0.387347  1
  O  O21  1  0.983681  0.200238  0.275729  1
  O  O22  1  0.983261  0.700183  0.276933  1
  O  O23  1  0.983262  0.799915  0.388461  1
  O  O24  1  0.983681  0.299860  0.387287  1
  O  O25  1  0.749936  0.186844  0.232761  1
  O  O26  1  0.749862  0.687853  0.233460  1
  O  O27  1  0.749862  0.812227  0.338122  1
  O  O28  1  0.749936  0.313236  0.336861  1
  O  O29  1  0.249947  0.183535  0.314349  1
  O  O30  1  0.249799  0.682774  0.315544  1
  O  O31  1  0.249794  0.817306  0.417376  1
  O  O32  1  0.249956  0.316545  0.416605  1
  O  O33  1  0.482925  0.248531  0.192939  1
  O  O34  1  0.483052  0.750261  0.193685  1
  O  O35  1  0.483067  0.749798  0.333131  1
  O  O36  1  0.482941  0.251528  0.331421  1
  O  O37  1  0.016974  0.251738  0.331274  1
  O  O38  1  0.016743  0.749661  0.333325  1
  O  O39  1  0.016728  0.750442  0.193790  1
  O  O40  1  0.016956  0.248360  0.192900  1
  O  O41  1  0.749910  0.000000  0.379216  1
  O  O42  1  0.749913  0.499441  0.379551  1
  O  O43  1  0.249925  0.000000  0.296718  1
  O  O44  1  0.249928  0.500440  0.296496  1
  O  O45  1  0.518462  0.000000  0.332263  1
  O  O46  1  0.518464  0.500024  0.332267  1
  O  O47  1  0.981481  0.000000  0.332294  1
  O  O48  1  0.981479  0.500036  0.332302  1
  O  O49  1  0.482925  0.248531  0.471572  1
  O  O50  1  0.483052  0.750261  0.472319  1
  O  O51  1  0.016728  0.750442  0.472424  1
  O  O52  1  0.016956  0.248360  0.471534  1
  Si  Si53  1  0.563909  0.182666  0.238093  1
  Si  Si54  1  0.563806  0.683712  0.238732  1
  Si  Si55  1  0.563805  0.816355  0.341090  1
  Si  Si56  1  0.563908  0.317399  0.339869  1
  Si  Si57  1  0.064459  0.183723  0.320136  1
  Si  Si58  1  0.064335  0.682552  0.321527  1
  Si  Si59  1  0.064340  0.817543  0.423230  1
  Si  Si60  1  0.064459  0.316374  0.422491  1
  Si  Si61  1  0.435309  0.817464  0.423158  1
  Si  Si62  1  0.435427  0.316441  0.422511  1
  Si  Si63  1  0.435428  0.183625  0.320201  1
  Si  Si64  1  0.435303  0.682601  0.321418  1
  Si  Si65  1  0.935884  0.816302  0.341200  1
  Si  Si66  1  0.935972  0.317501  0.339802  1
  Si  Si67  1  0.935975  0.182597  0.238073  1
  Si  Si68  1  0.935885  0.683791  0.238806  1
  Si  Si69  1  0.561393  0.000000  0.374727  1
  Si  Si70  1  0.561393  0.499493  0.375028  1
  Si  Si71  1  0.061023  0.000000  0.292798  1
  Si  Si72  1  0.061022  0.500607  0.292486  1
  Si  Si73  1  0.438821  0.000000  0.292747  1
  Si  Si74  1  0.438819  0.500507  0.292483  1
  Si  Si75  1  0.938450  -0.000000  0.374725  1
  Si  Si76  1  0.938449  0.499411  0.375080  1
  H  H77  1  0.482925  0.248531  0.167377  1
  H  H78  1  0.483052  0.750261  0.168123  1
  H  H79  1  0.016728  0.750442  0.168228  1
  H  H80  1  0.016956  0.248360  0.167338  1
  H  H81  1  0.482925  0.248531  0.497134  1
  H  H82  1  0.483052  0.750261  0.497880  1
  H  H83  1  0.016728  0.750442  0.497986  1
  H  H84  1  0.016956  0.248360  0.497095  1
