# generated using pymatgen
data_Si36H2O73
_symmetry_space_group_name_H-M   'P 1'
_cell_length_a   13.90613991
_cell_length_b   9.56864993
_cell_length_c   74.98971248
_cell_angle_alpha   90.00000000
_cell_angle_beta   90.00000000
_cell_angle_gamma   90.00000000
_symmetry_Int_Tables_number   1
_chemical_formula_structural   Si36H2O73
_chemical_formula_sum   'Si144 H8 O292'
_cell_volume   9978.35496199
_cell_formula_units_Z   4
loop_
 _symmetry_equiv_pos_site_id
 _symmetry_equiv_pos_as_xyz
  1  'x, y, z'
loop_
 _atom_site_type_symbol
 _atom_site_label
 _atom_site_symmetry_multiplicity
 _atom_site_fract_x
 _atom_site_fract_y
 _atom_site_fract_z
 _atom_site_occupancy
  O  O1  1  0.589928  0.361881  0.078678  1
  O  O2  1  0.909876  0.861881  0.078677  1
  O  O3  1  0.517681  0.236067  0.106113  1
  O  O4  1  0.016592  0.236682  0.224242  1
  O  O5  1  0.517213  0.236713  0.287695  1
  O  O6  1  0.017746  0.236082  0.169539  1
  O  O7  1  0.982116  0.736066  0.106112  1
  O  O8  1  0.483220  0.736683  0.224242  1
  O  O9  1  0.982599  0.736714  0.287695  1
  O  O10  1  0.482051  0.736080  0.169539  1
  O  O11  1  0.482695  0.760194  0.287763  1
  O  O12  1  0.983682  0.759567  0.169630  1
  O  O13  1  0.483769  0.759613  0.106027  1
  O  O14  1  0.983290  0.760349  0.224201  1
  O  O15  1  0.017117  0.260196  0.287764  1
  O  O16  1  0.516114  0.259567  0.169630  1
  O  O17  1  0.016027  0.259612  0.106027  1
  O  O18  1  0.516522  0.260350  0.224201  1
  O  O19  1  0.500091  0.497574  0.102463  1
  O  O20  1  -0.000000  0.498436  0.220647  1
  O  O21  1  0.499824  0.498376  0.291367  1
  O  O22  1  -0.000000  0.497587  0.173177  1
  O  O23  1  -0.000000  0.997574  0.102463  1
  O  O24  1  0.499996  0.998436  0.220647  1
  O  O25  1  -0.000000  0.998376  0.291367  1
  O  O26  1  0.499722  0.997587  0.173177  1
  O  O27  1  0.589928  0.361881  0.315091  1
  O  O28  1  0.090532  0.362218  0.196932  1
  O  O29  1  0.909876  0.861881  0.315090  1
  O  O30  1  0.409271  0.862218  0.196933  1
  O  O31  1  0.409853  0.634252  0.078731  1
  O  O32  1  0.909183  0.633742  0.196884  1
  O  O33  1  0.089952  0.134252  0.078732  1
  O  O34  1  0.590621  0.133742  0.196884  1
  O  O35  1  0.665814  0.391747  0.110047  1
  O  O36  1  0.164824  0.390994  0.228558  1
  O  O37  1  0.665535  0.392025  0.283801  1
  O  O38  1  0.165878  0.391827  0.165580  1
  O  O39  1  0.833980  0.891739  0.110046  1
  O  O40  1  0.334991  0.891000  0.228560  1
  O  O41  1  0.834279  0.892031  0.283800  1
  O  O42  1  0.333917  0.891819  0.165581  1
  O  O43  1  0.334199  0.605360  0.283835  1
  O  O44  1  0.835176  0.606018  0.165276  1
  O  O45  1  0.335187  0.606143  0.110310  1
  O  O46  1  0.834904  0.606428  0.228534  1
  O  O47  1  0.165614  0.105367  0.283836  1
  O  O48  1  0.664618  0.106011  0.165275  1
  O  O49  1  0.164607  0.106136  0.110311  1
  O  O50  1  0.664910  0.106435  0.228533  1
  O  O51  1  0.649439  0.852531  0.117935  1
  O  O52  1  0.149813  0.850040  0.235993  1
  O  O53  1  0.649535  0.851567  0.276006  1
  O  O54  1  0.149445  0.852365  0.157706  1
  O  O55  1  0.850357  0.352534  0.117935  1
  O  O56  1  0.350000  0.350037  0.235993  1
  O  O57  1  0.850278  0.351565  0.276006  1
  O  O58  1  0.350350  0.352368  0.157706  1
  O  O59  1  0.350292  0.145634  0.275990  1
  O  O60  1  0.850021  0.148127  0.157942  1
  O  O61  1  0.349994  0.148040  0.117700  1
  O  O62  1  0.850035  0.147113  0.236008  1
  O  O63  1  0.149521  0.645632  0.275990  1
  O  O64  1  0.649775  0.648129  0.157942  1
  O  O65  1  0.149802  0.648043  0.117700  1
  O  O66  1  0.649778  0.647110  0.236009  1
  O  O67  1  0.523946  0.748087  0.137832  1
  O  O68  1  0.023992  0.748287  0.255962  1
  O  O69  1  0.523978  0.748416  0.256022  1
  O  O70  1  0.023956  0.748112  0.137820  1
  O  O71  1  0.975849  0.248088  0.137832  1
  O  O72  1  0.475821  0.248287  0.255962  1
  O  O73  1  0.975836  0.248417  0.256022  1
  O  O74  1  0.475839  0.248113  0.137820  1
  O  O75  1  0.498566  0.997875  0.123852  1
  O  O76  1  -0.000000  0.998443  0.242028  1
  O  O77  1  0.499820  0.998375  0.269974  1
  O  O78  1  0.998593  0.997846  0.151812  1
  O  O79  1  0.001231  0.497875  0.123852  1
  O  O80  1  0.499946  0.498444  0.242028  1
  O  O81  1  -0.000000  0.498376  0.269974  1
  O  O82  1  0.501204  0.497846  0.151812  1
  O  O83  1  0.747204  0.018253  0.136111  1
  O  O84  1  0.252953  0.979738  0.257766  1
  O  O85  1  0.746543  0.018010  0.257789  1
  O  O86  1  0.247037  0.017899  0.139480  1
  O  O87  1  0.752595  0.518253  0.136112  1
  O  O88  1  0.246856  0.479738  0.257765  1
  O  O89  1  0.753266  0.518011  0.257790  1
  O  O90  1  0.252762  0.517899  0.139479  1
  O  O91  1  0.721379  0.267842  0.139320  1
  O  O92  1  0.221318  0.230003  0.254602  1
  O  O93  1  0.721404  0.267815  0.254561  1
  O  O94  1  0.221322  0.267515  0.136315  1
  O  O95  1  0.778418  0.767842  0.139320  1
  O  O96  1  0.278494  0.730003  0.254602  1
  O  O97  1  0.778408  0.767814  0.254561  1
  O  O98  1  0.278474  0.767515  0.136315  1
  O  O99  1  0.517681  0.236067  0.342526  1
  O  O100  1  0.016592  0.236682  0.460655  1
  O  O101  1  0.517213  0.236713  0.524108  1
  O  O102  1  0.017746  0.236082  0.405952  1
  O  O103  1  0.982116  0.736066  0.342526  1
  O  O104  1  0.483220  0.736683  0.460655  1
  O  O105  1  0.982599  0.736714  0.524108  1
  O  O106  1  0.482051  0.736080  0.405952  1
  O  O107  1  0.482695  0.760194  0.524176  1
  O  O108  1  0.983682  0.759567  0.406043  1
  O  O109  1  0.483769  0.759613  0.342440  1
  O  O110  1  0.983290  0.760349  0.460614  1
  O  O111  1  0.017117  0.260196  0.524177  1
  O  O112  1  0.516114  0.259567  0.406043  1
  O  O113  1  0.016027  0.259612  0.342440  1
  O  O114  1  0.516522  0.260350  0.460614  1
  O  O115  1  0.500091  0.497574  0.338876  1
  O  O116  1  0.000000  0.498436  0.457060  1
  O  O117  1  0.499824  0.498376  0.527780  1
  O  O118  1  -0.000000  0.497587  0.409590  1
  O  O119  1  -0.000000  0.997574  0.338876  1
  O  O120  1  0.499996  0.998436  0.457060  1
  O  O121  1  -0.000000  0.998376  0.527780  1
  O  O122  1  0.499722  0.997587  0.409590  1
  O  O123  1  0.589928  0.361881  0.551504  1
  O  O124  1  0.090532  0.362218  0.433345  1
  O  O125  1  0.909876  0.861881  0.551504  1
  O  O126  1  0.409271  0.862218  0.433346  1
  O  O127  1  0.409853  0.634252  0.315144  1
  O  O128  1  0.909183  0.633742  0.433297  1
  O  O129  1  0.089952  0.134252  0.315145  1
  O  O130  1  0.590621  0.133742  0.433297  1
  O  O131  1  0.665814  0.391747  0.346460  1
  O  O132  1  0.164824  0.390994  0.464971  1
  O  O133  1  0.665535  0.392025  0.520214  1
  O  O134  1  0.165878  0.391827  0.401993  1
  O  O135  1  0.833980  0.891739  0.346459  1
  O  O136  1  0.334991  0.891000  0.464973  1
  O  O137  1  0.834279  0.892031  0.520213  1
  O  O138  1  0.333917  0.891819  0.401994  1
  O  O139  1  0.334199  0.605360  0.520248  1
  O  O140  1  0.835176  0.606018  0.401689  1
  O  O141  1  0.335187  0.606143  0.346723  1
  O  O142  1  0.834904  0.606428  0.464947  1
  O  O143  1  0.165614  0.105367  0.520249  1
  O  O144  1  0.664618  0.106011  0.401688  1
  O  O145  1  0.164607  0.106136  0.346724  1
  O  O146  1  0.664910  0.106435  0.464946  1
  O  O147  1  0.649439  0.852531  0.354348  1
  O  O148  1  0.149813  0.850040  0.472406  1
  O  O149  1  0.649535  0.851567  0.512419  1
  O  O150  1  0.149445  0.852365  0.394119  1
  O  O151  1  0.850357  0.352534  0.354348  1
  O  O152  1  0.350000  0.350037  0.472406  1
  O  O153  1  0.850278  0.351565  0.512419  1
  O  O154  1  0.350350  0.352368  0.394119  1
  O  O155  1  0.350292  0.145634  0.512403  1
  O  O156  1  0.850021  0.148127  0.394355  1
  O  O157  1  0.349994  0.148040  0.354113  1
  O  O158  1  0.850035  0.147113  0.472421  1
  O  O159  1  0.149521  0.645632  0.512403  1
  O  O160  1  0.649775  0.648129  0.394355  1
  O  O161  1  0.149802  0.648043  0.354113  1
  O  O162  1  0.649778  0.647110  0.472422  1
  O  O163  1  0.523946  0.748087  0.374245  1
  O  O164  1  0.023992  0.748287  0.492375  1
  O  O165  1  0.523978  0.748416  0.492435  1
  O  O166  1  0.023956  0.748112  0.374233  1
  O  O167  1  0.975849  0.248088  0.374245  1
  O  O168  1  0.475821  0.248287  0.492375  1
  O  O169  1  0.975836  0.248417  0.492435  1
  O  O170  1  0.475839  0.248113  0.374233  1
  O  O171  1  0.498566  0.997875  0.360265  1
  O  O172  1  0.000000  0.998443  0.478441  1
  O  O173  1  0.499820  0.998375  0.506387  1
  O  O174  1  0.998593  0.997846  0.388225  1
  O  O175  1  0.001231  0.497875  0.360265  1
  O  O176  1  0.499946  0.498444  0.478441  1
  O  O177  1  -0.000000  0.498376  0.506387  1
  O  O178  1  0.501204  0.497846  0.388225  1
  O  O179  1  0.747204  0.018253  0.372524  1
  O  O180  1  0.252953  0.979738  0.494179  1
  O  O181  1  0.746543  0.018010  0.494202  1
  O  O182  1  0.247037  0.017899  0.375893  1
  O  O183  1  0.752595  0.518253  0.372525  1
  O  O184  1  0.246856  0.479738  0.494178  1
  O  O185  1  0.753266  0.518011  0.494203  1
  O  O186  1  0.252762  0.517899  0.375892  1
  O  O187  1  0.721379  0.267842  0.375733  1
  O  O188  1  0.221318  0.230003  0.491015  1
  O  O189  1  0.721404  0.267815  0.490974  1
  O  O190  1  0.221322  0.267515  0.372728  1
  O  O191  1  0.778418  0.767842  0.375733  1
  O  O192  1  0.278494  0.730003  0.491015  1
  O  O193  1  0.778408  0.767814  0.490974  1
  O  O194  1  0.278474  0.767515  0.372728  1
  O  O195  1  0.517681  0.236067  0.578939  1
  O  O196  1  0.016592  0.236682  0.697068  1
  O  O197  1  0.517213  0.236713  0.760521  1
  O  O198  1  0.017746  0.236082  0.642365  1
  O  O199  1  0.982116  0.736066  0.578939  1
  O  O200  1  0.483220  0.736683  0.697068  1
  O  O201  1  0.982599  0.736714  0.760521  1
  O  O202  1  0.482051  0.736080  0.642365  1
  O  O203  1  0.482695  0.760194  0.760589  1
  O  O204  1  0.983682  0.759567  0.642456  1
  O  O205  1  0.483769  0.759613  0.578853  1
  O  O206  1  0.983290  0.760349  0.697027  1
  O  O207  1  0.017117  0.260196  0.760590  1
  O  O208  1  0.516114  0.259567  0.642456  1
  O  O209  1  0.016027  0.259612  0.578853  1
  O  O210  1  0.516522  0.260350  0.697027  1
  O  O211  1  0.500091  0.497574  0.575289  1
  O  O212  1  -0.000000  0.498436  0.693473  1
  O  O213  1  0.499824  0.498376  0.764193  1
  O  O214  1  -0.000000  0.497587  0.646003  1
  O  O215  1  -0.000000  0.997574  0.575289  1
  O  O216  1  0.499996  0.998436  0.693473  1
  O  O217  1  -0.000000  0.998376  0.764193  1
  O  O218  1  0.499722  0.997587  0.646003  1
  O  O219  1  0.589928  0.361881  0.787917  1
  O  O220  1  0.090532  0.362218  0.669758  1
  O  O221  1  0.909876  0.861881  0.787917  1
  O  O222  1  0.409271  0.862218  0.669759  1
  O  O223  1  0.409853  0.634252  0.551557  1
  O  O224  1  0.909183  0.633742  0.669711  1
  O  O225  1  0.089952  0.134252  0.551558  1
  O  O226  1  0.590621  0.133742  0.669710  1
  O  O227  1  0.665814  0.391747  0.582873  1
  O  O228  1  0.164824  0.390994  0.701384  1
  O  O229  1  0.665535  0.392025  0.756627  1
  O  O230  1  0.165878  0.391827  0.638406  1
  O  O231  1  0.833980  0.891739  0.582872  1
  O  O232  1  0.334991  0.891000  0.701386  1
  O  O233  1  0.834279  0.892031  0.756626  1
  O  O234  1  0.333917  0.891819  0.638407  1
  O  O235  1  0.334199  0.605360  0.756661  1
  O  O236  1  0.835176  0.606018  0.638102  1
  O  O237  1  0.335187  0.606143  0.583136  1
  O  O238  1  0.834904  0.606428  0.701360  1
  O  O239  1  0.165614  0.105367  0.756662  1
  O  O240  1  0.664618  0.106011  0.638101  1
  O  O241  1  0.164607  0.106136  0.583137  1
  O  O242  1  0.664910  0.106435  0.701359  1
  O  O243  1  0.649439  0.852531  0.590761  1
  O  O244  1  0.149813  0.850040  0.708819  1
  O  O245  1  0.649535  0.851567  0.748832  1
  O  O246  1  0.149445  0.852365  0.630532  1
  O  O247  1  0.850357  0.352534  0.590761  1
  O  O248  1  0.350000  0.350037  0.708819  1
  O  O249  1  0.850278  0.351565  0.748832  1
  O  O250  1  0.350350  0.352368  0.630532  1
  O  O251  1  0.350292  0.145634  0.748816  1
  O  O252  1  0.850021  0.148127  0.630768  1
  O  O253  1  0.349994  0.148040  0.590526  1
  O  O254  1  0.850035  0.147113  0.708834  1
  O  O255  1  0.149521  0.645632  0.748816  1
  O  O256  1  0.649775  0.648129  0.630768  1
  O  O257  1  0.149802  0.648043  0.590526  1
  O  O258  1  0.649778  0.647110  0.708835  1
  O  O259  1  0.523946  0.748087  0.610658  1
  O  O260  1  0.023992  0.748287  0.728788  1
  O  O261  1  0.523978  0.748416  0.728849  1
  O  O262  1  0.023956  0.748112  0.610646  1
  O  O263  1  0.975849  0.248088  0.610658  1
  O  O264  1  0.475821  0.248287  0.728788  1
  O  O265  1  0.975836  0.248417  0.728849  1
  O  O266  1  0.475839  0.248113  0.610646  1
  O  O267  1  0.498566  0.997875  0.596678  1
  O  O268  1  -0.000000  0.998443  0.714854  1
  O  O269  1  0.499820  0.998375  0.742800  1
  O  O270  1  0.998593  0.997846  0.624638  1
  O  O271  1  0.001231  0.497875  0.596678  1
  O  O272  1  0.499946  0.498444  0.714854  1
  O  O273  1  -0.000000  0.498376  0.742800  1
  O  O274  1  0.501204  0.497846  0.624638  1
  O  O275  1  0.747204  0.018253  0.608937  1
  O  O276  1  0.252953  0.979738  0.730592  1
  O  O277  1  0.746543  0.018010  0.730615  1
  O  O278  1  0.247037  0.017899  0.612306  1
  O  O279  1  0.752595  0.518253  0.608938  1
  O  O280  1  0.246856  0.479738  0.730591  1
  O  O281  1  0.753266  0.518011  0.730616  1
  O  O282  1  0.252762  0.517899  0.612305  1
  O  O283  1  0.721379  0.267842  0.612146  1
  O  O284  1  0.221318  0.230003  0.727428  1
  O  O285  1  0.721404  0.267815  0.727387  1
  O  O286  1  0.221322  0.267515  0.609141  1
  O  O287  1  0.778418  0.767842  0.612146  1
  O  O288  1  0.278494  0.730003  0.727428  1
  O  O289  1  0.778408  0.767814  0.727387  1
  O  O290  1  0.278474  0.767515  0.609141  1
  O  O291  1  0.409853  0.634252  0.787970  1
  O  O292  1  0.089952  0.134252  0.787971  1
  Si  Si293  1  0.570175  0.372053  0.099164  1
  Si  Si294  1  0.069743  0.372560  0.217398  1
  Si  Si295  1  0.569745  0.372644  0.294636  1
  Si  Si296  1  0.070270  0.372157  0.176459  1
  Si  Si297  1  0.929622  0.872051  0.099163  1
  Si  Si298  1  0.430069  0.872562  0.217399  1
  Si  Si299  1  0.930066  0.872646  0.294635  1
  Si  Si300  1  0.429527  0.872156  0.176460  1
  Si  Si301  1  0.430035  0.624211  0.294674  1
  Si  Si302  1  0.930351  0.623666  0.176429  1
  Si  Si303  1  0.430512  0.623790  0.099195  1
  Si  Si304  1  0.930017  0.624417  0.217368  1
  Si  Si305  1  0.069776  0.124213  0.294675  1
  Si  Si306  1  0.569446  0.123664  0.176428  1
  Si  Si307  1  0.069285  0.123788  0.099196  1
  Si  Si308  1  0.569795  0.124419  0.217368  1
  Si  Si309  1  0.537209  0.844608  0.121106  1
  Si  Si310  1  0.037560  0.844727  0.239237  1
  Si  Si311  1  0.537268  0.844598  0.272774  1
  Si  Si312  1  0.037195  0.844555  0.154553  1
  Si  Si313  1  0.962587  0.344607  0.121106  1
  Si  Si314  1  0.462252  0.344726  0.239237  1
  Si  Si315  1  0.962545  0.344597  0.272774  1
  Si  Si316  1  0.462601  0.344554  0.154553  1
  Si  Si317  1  0.462541  0.152289  0.272729  1
  Si  Si318  1  0.962270  0.152208  0.154607  1
  Si  Si319  1  0.462229  0.152227  0.121047  1
  Si  Si320  1  0.962274  0.152251  0.239270  1
  Si  Si321  1  0.037271  0.652289  0.272729  1
  Si  Si322  1  0.537526  0.652209  0.154607  1
  Si  Si323  1  0.037567  0.652227  0.121047  1
  Si  Si324  1  0.537538  0.652251  0.239270  1
  Si  Si325  1  0.743627  0.134030  0.150690  1
  Si  Si326  1  0.244954  0.115827  0.268973  1
  Si  Si327  1  0.743549  0.133832  0.243212  1
  Si  Si328  1  0.243557  0.133820  0.124922  1
  Si  Si329  1  0.756169  0.634033  0.150690  1
  Si  Si330  1  0.254857  0.615824  0.268973  1
  Si  Si331  1  0.756263  0.633829  0.243213  1
  Si  Si332  1  0.256240  0.633824  0.124921  1
  Si  Si333  1  0.256230  0.863742  0.243217  1
  Si  Si334  1  0.754793  0.881956  0.124938  1
  Si  Si335  1  0.254769  0.881746  0.150678  1
  Si  Si336  1  0.754781  0.881776  0.268965  1
  Si  Si337  1  0.243582  0.363738  0.243217  1
  Si  Si338  1  0.745004  0.381959  0.124938  1
  Si  Si339  1  0.245027  0.381748  0.150678  1
  Si  Si340  1  0.745031  0.381772  0.268966  1
  Si  Si341  1  0.570175  0.372053  0.335577  1
  Si  Si342  1  0.069743  0.372560  0.453812  1
  Si  Si343  1  0.569745  0.372644  0.531049  1
  Si  Si344  1  0.070270  0.372157  0.412872  1
  Si  Si345  1  0.929622  0.872051  0.335576  1
  Si  Si346  1  0.430069  0.872562  0.453812  1
  Si  Si347  1  0.930066  0.872646  0.531048  1
  Si  Si348  1  0.429527  0.872156  0.412873  1
  Si  Si349  1  0.430035  0.624211  0.531087  1
  Si  Si350  1  0.930351  0.623666  0.412842  1
  Si  Si351  1  0.430512  0.623790  0.335608  1
  Si  Si352  1  0.930017  0.624417  0.453781  1
  Si  Si353  1  0.069776  0.124213  0.531088  1
  Si  Si354  1  0.569446  0.123664  0.412841  1
  Si  Si355  1  0.069285  0.123788  0.335609  1
  Si  Si356  1  0.569795  0.124419  0.453781  1
  Si  Si357  1  0.537209  0.844608  0.357519  1
  Si  Si358  1  0.037560  0.844727  0.475650  1
  Si  Si359  1  0.537268  0.844598  0.509187  1
  Si  Si360  1  0.037195  0.844555  0.390966  1
  Si  Si361  1  0.962587  0.344607  0.357519  1
  Si  Si362  1  0.462252  0.344726  0.475650  1
  Si  Si363  1  0.962545  0.344597  0.509187  1
  Si  Si364  1  0.462601  0.344554  0.390966  1
  Si  Si365  1  0.462541  0.152289  0.509142  1
  Si  Si366  1  0.962270  0.152208  0.391020  1
  Si  Si367  1  0.462229  0.152227  0.357460  1
  Si  Si368  1  0.962274  0.152251  0.475683  1
  Si  Si369  1  0.037271  0.652289  0.509142  1
  Si  Si370  1  0.537526  0.652209  0.391020  1
  Si  Si371  1  0.037567  0.652227  0.357460  1
  Si  Si372  1  0.537538  0.652251  0.475683  1
  Si  Si373  1  0.743627  0.134030  0.387103  1
  Si  Si374  1  0.244954  0.115827  0.505386  1
  Si  Si375  1  0.743549  0.133832  0.479625  1
  Si  Si376  1  0.243557  0.133820  0.361335  1
  Si  Si377  1  0.756169  0.634033  0.387103  1
  Si  Si378  1  0.254857  0.615824  0.505386  1
  Si  Si379  1  0.756263  0.633829  0.479626  1
  Si  Si380  1  0.256240  0.633824  0.361334  1
  Si  Si381  1  0.256230  0.863742  0.479630  1
  Si  Si382  1  0.754793  0.881956  0.361351  1
  Si  Si383  1  0.254769  0.881746  0.387091  1
  Si  Si384  1  0.754781  0.881776  0.505378  1
  Si  Si385  1  0.243582  0.363738  0.479630  1
  Si  Si386  1  0.745004  0.381959  0.361351  1
  Si  Si387  1  0.245027  0.381748  0.387091  1
  Si  Si388  1  0.745031  0.381772  0.505379  1
  Si  Si389  1  0.570175  0.372053  0.571990  1
  Si  Si390  1  0.069743  0.372560  0.690225  1
  Si  Si391  1  0.569745  0.372644  0.767462  1
  Si  Si392  1  0.070270  0.372157  0.649285  1
  Si  Si393  1  0.929622  0.872051  0.571989  1
  Si  Si394  1  0.430069  0.872562  0.690225  1
  Si  Si395  1  0.930066  0.872646  0.767461  1
  Si  Si396  1  0.429527  0.872156  0.649286  1
  Si  Si397  1  0.430035  0.624211  0.767500  1
  Si  Si398  1  0.930351  0.623666  0.649255  1
  Si  Si399  1  0.430512  0.623790  0.572021  1
  Si  Si400  1  0.930017  0.624417  0.690194  1
  Si  Si401  1  0.069776  0.124213  0.767501  1
  Si  Si402  1  0.569446  0.123664  0.649254  1
  Si  Si403  1  0.069285  0.123788  0.572022  1
  Si  Si404  1  0.569795  0.124419  0.690194  1
  Si  Si405  1  0.537209  0.844608  0.593932  1
  Si  Si406  1  0.037560  0.844727  0.712063  1
  Si  Si407  1  0.537268  0.844598  0.745600  1
  Si  Si408  1  0.037195  0.844555  0.627379  1
  Si  Si409  1  0.962587  0.344607  0.593932  1
  Si  Si410  1  0.462252  0.344726  0.712063  1
  Si  Si411  1  0.962545  0.344597  0.745600  1
  Si  Si412  1  0.462601  0.344554  0.627379  1
  Si  Si413  1  0.462541  0.152289  0.745555  1
  Si  Si414  1  0.962270  0.152208  0.627433  1
  Si  Si415  1  0.462229  0.152227  0.593873  1
  Si  Si416  1  0.962274  0.152251  0.712097  1
  Si  Si417  1  0.037271  0.652289  0.745555  1
  Si  Si418  1  0.537526  0.652209  0.627433  1
  Si  Si419  1  0.037567  0.652227  0.593873  1
  Si  Si420  1  0.537538  0.652251  0.712097  1
  Si  Si421  1  0.743627  0.134030  0.623516  1
  Si  Si422  1  0.244954  0.115827  0.741799  1
  Si  Si423  1  0.743549  0.133832  0.716038  1
  Si  Si424  1  0.243557  0.133820  0.597748  1
  Si  Si425  1  0.756169  0.634033  0.623516  1
  Si  Si426  1  0.254857  0.615824  0.741799  1
  Si  Si427  1  0.756263  0.633829  0.716039  1
  Si  Si428  1  0.256240  0.633824  0.597747  1
  Si  Si429  1  0.256230  0.863742  0.716043  1
  Si  Si430  1  0.754793  0.881956  0.597764  1
  Si  Si431  1  0.254769  0.881746  0.623505  1
  Si  Si432  1  0.754781  0.881776  0.741791  1
  Si  Si433  1  0.243582  0.363738  0.716043  1
  Si  Si434  1  0.745004  0.381959  0.597764  1
  Si  Si435  1  0.245027  0.381748  0.623504  1
  Si  Si436  1  0.745031  0.381772  0.741792  1
  H  H437  1  0.589928  0.361881  0.066677  1
  H  H438  1  0.909876  0.861881  0.066676  1
  H  H439  1  0.409853  0.634252  0.066729  1
  H  H440  1  0.089952  0.134252  0.066730  1
  H  H441  1  0.589928  0.361881  0.799919  1
  H  H442  1  0.909876  0.861881  0.799918  1
  H  H443  1  0.409853  0.634252  0.799972  1
  H  H444  1  0.089952  0.134252  0.799973  1
