# generated using pymatgen
data_Si8H2O17
_symmetry_space_group_name_H-M   'P 1'
_cell_length_a   9.73973730
_cell_length_b   13.78101734
_cell_length_c   49.90743597
_cell_angle_alpha   134.99809859
_cell_angle_beta   90.00000000
_cell_angle_gamma   90.00000000
_symmetry_Int_Tables_number   1
_chemical_formula_structural   Si8H2O17
_chemical_formula_sum   'Si32 H8 O68'
_cell_volume   4736.88885497
_cell_formula_units_Z   4
loop_
 _symmetry_equiv_pos_site_id
 _symmetry_equiv_pos_as_xyz
  1  'x, y, z'
loop_
 _atom_site_type_symbol
 _atom_site_label
 _atom_site_symmetry_multiplicity
 _atom_site_fract_x
 _atom_site_fract_y
 _atom_site_fract_z
 _atom_site_occupancy
  O  O1  1  0.732779  0.762793  0.166434  1
  O  O2  1  0.267369  0.237495  0.159712  1
  O  O3  1  0.232932  0.734004  0.159731  1
  O  O4  1  0.767215  0.266285  0.166415  1
  O  O5  1  0.261822  0.233732  0.256594  1
  O  O6  1  0.238029  0.737072  0.257946  1
  O  O7  1  0.988202  0.816444  0.189348  1
  O  O8  1  0.511936  0.318901  0.189371  1
  O  O9  1  0.807832  0.827475  0.227588  1
  O  O10  1  0.327322  0.308009  0.222579  1
  O  O11  1  0.815559  0.008862  0.227042  1
  O  O12  1  0.319493  0.491448  0.222944  1
  O  O13  1  0.172850  0.808037  0.223059  1
  O  O14  1  0.692291  0.327451  0.227112  1
  O  O15  1  0.180705  0.988971  0.222454  1
  O  O16  1  0.684543  0.511332  0.227529  1
  O  O17  1  0.508108  0.316399  0.260307  1
  O  O18  1  0.008091  0.181340  0.260141  1
  O  O19  1  0.732779  0.762793  0.361682  1
  O  O20  1  0.267369  0.237495  0.354960  1
  O  O21  1  0.232932  0.734004  0.354979  1
  O  O22  1  0.767215  0.266285  0.361663  1
  O  O23  1  0.738326  0.766556  0.264800  1
  O  O24  1  0.261822  0.233732  0.451842  1
  O  O25  1  0.238029  0.737072  0.453194  1
  O  O26  1  0.762120  0.263217  0.263449  1
  O  O27  1  0.988202  0.816444  0.384596  1
  O  O28  1  0.511936  0.318901  0.384619  1
  O  O29  1  0.807832  0.827475  0.422836  1
  O  O30  1  0.327322  0.308009  0.417827  1
  O  O31  1  0.815559  0.008862  0.422290  1
  O  O32  1  0.319493  0.491448  0.418192  1
  O  O33  1  0.172850  0.808037  0.418307  1
  O  O34  1  0.692291  0.327451  0.422360  1
  O  O35  1  0.180705  0.988971  0.417702  1
  O  O36  1  0.684543  0.511332  0.422777  1
  O  O37  1  0.992058  0.818949  0.261253  1
  O  O38  1  0.508108  0.316399  0.455555  1
  O  O39  1  0.819443  0.011318  0.298940  1
  O  O40  1  0.315605  0.488957  0.293865  1
  O  O41  1  0.184590  0.991427  0.294352  1
  O  O42  1  0.680655  0.508841  0.298451  1
  O  O43  1  0.008091  0.181340  0.455389  1
  O  O44  1  0.492040  0.683890  0.261087  1
  O  O45  1  0.827299  0.192253  0.298336  1
  O  O46  1  0.307857  0.672838  0.294283  1
  O  O47  1  0.192316  0.172814  0.293807  1
  O  O48  1  0.672827  0.692279  0.298815  1
  O  O49  1  0.011945  0.183845  0.332046  1
  O  O50  1  0.488213  0.681388  0.332024  1
  O  O51  1  0.732779  0.762793  0.556930  1
  O  O52  1  0.267369  0.237495  0.550208  1
  O  O53  1  0.232932  0.734004  0.550227  1
  O  O54  1  0.767215  0.266285  0.556911  1
  O  O55  1  0.738326  0.766556  0.460048  1
  O  O56  1  0.762120  0.263217  0.458697  1
  O  O57  1  0.992058  0.818949  0.456501  1
  O  O58  1  0.819443  0.011318  0.494188  1
  O  O59  1  0.315605  0.488957  0.489113  1
  O  O60  1  0.184590  0.991427  0.489600  1
  O  O61  1  0.680655  0.508841  0.493699  1
  O  O62  1  0.492040  0.683890  0.456335  1
  O  O63  1  0.827299  0.192253  0.493584  1
  O  O64  1  0.307857  0.672838  0.489531  1
  O  O65  1  0.192316  0.172814  0.489055  1
  O  O66  1  0.672827  0.692279  0.494063  1
  O  O67  1  0.011945  0.183845  0.527294  1
  O  O68  1  0.488213  0.681388  0.527272  1
  Si  Si69  1  0.832297  0.850069  0.201107  1
  Si  Si70  1  0.352689  0.335126  0.197156  1
  Si  Si71  1  0.147466  0.832993  0.197142  1
  Si  Si72  1  0.667858  0.352199  0.201116  1
  Si  Si73  1  0.349371  0.333010  0.258352  1
  Si  Si74  1  0.150775  0.835159  0.259173  1
  Si  Si75  1  0.335626  0.650214  0.259085  1
  Si  Si76  1  0.164544  0.148077  0.258261  1
  Si  Si77  1  0.832297  0.850069  0.396355  1
  Si  Si78  1  0.352689  0.335126  0.392404  1
  Si  Si79  1  0.147466  0.832993  0.392390  1
  Si  Si80  1  0.667858  0.352199  0.396364  1
  Si  Si81  1  0.835605  0.852212  0.263133  1
  Si  Si82  1  0.349371  0.333010  0.453600  1
  Si  Si83  1  0.150775  0.835159  0.454421  1
  Si  Si84  1  0.664523  0.350075  0.262309  1
  Si  Si85  1  0.849373  0.165129  0.262221  1
  Si  Si86  1  0.335626  0.650214  0.454333  1
  Si  Si87  1  0.164544  0.148077  0.453509  1
  Si  Si88  1  0.650777  0.667279  0.263043  1
  Si  Si89  1  0.167851  0.150220  0.320288  1
  Si  Si90  1  0.647459  0.665163  0.324238  1
  Si  Si91  1  0.852682  0.167295  0.324252  1
  Si  Si92  1  0.332290  0.648090  0.320278  1
  Si  Si93  1  0.835605  0.852212  0.458381  1
  Si  Si94  1  0.664523  0.350075  0.457557  1
  Si  Si95  1  0.849373  0.165129  0.457469  1
  Si  Si96  1  0.650777  0.667279  0.458291  1
  Si  Si97  1  0.167851  0.150220  0.515536  1
  Si  Si98  1  0.647459  0.665163  0.519486  1
  Si  Si99  1  0.852682  0.167295  0.519500  1
  Si  Si100  1  0.332290  0.648090  0.515526  1
  H  H101  1  0.732779  0.762793  0.148400  1
  H  H102  1  0.267369  0.237495  0.141679  1
  H  H103  1  0.232932  0.734004  0.141698  1
  H  H104  1  0.767215  0.266285  0.148382  1
  H  H105  1  0.732779  0.762793  0.574963  1
  H  H106  1  0.267369  0.237495  0.568242  1
  H  H107  1  0.232932  0.734004  0.568260  1
  H  H108  1  0.767215  0.266285  0.574944  1
