# generated using pymatgen
data_Si24H2O49
_symmetry_space_group_name_H-M   'P 1'
_cell_length_a   13.78651735
_cell_length_b   6.96043577
_cell_length_c   54.96724138
_cell_angle_alpha   90.00000000
_cell_angle_beta   90.00000000
_cell_angle_gamma   90.00000000
_symmetry_Int_Tables_number   1
_chemical_formula_structural   Si24H2O49
_chemical_formula_sum   'Si48 H4 O98'
_cell_volume   5274.66574483
_cell_formula_units_Z   2
loop_
 _symmetry_equiv_pos_site_id
 _symmetry_equiv_pos_as_xyz
  1  'x, y, z'
loop_
 _atom_site_type_symbol
 _atom_site_label
 _atom_site_symmetry_multiplicity
 _atom_site_fract_x
 _atom_site_fract_y
 _atom_site_fract_z
 _atom_site_occupancy
  O  O1  1  0.122187  0.305185  0.149542  1
  O  O2  1  0.377553  0.305185  0.149542  1
  O  O3  1  0.877548  0.694974  0.350676  1
  O  O4  1  0.877552  0.695050  0.266263  1
  O  O5  1  0.622182  0.694974  0.350675  1
  O  O6  1  0.622189  0.695050  0.266262  1
  O  O7  1  0.123324  0.304836  0.195688  1
  O  O8  1  0.376419  0.304835  0.195688  1
  O  O9  1  0.876412  0.695323  0.396822  1
  O  O10  1  0.876419  0.695406  0.220118  1
  O  O11  1  0.623316  0.695323  0.396821  1
  O  O12  1  0.623324  0.695406  0.220117  1
  O  O13  1  0.076234  0.625441  0.173075  1
  O  O14  1  0.423508  0.625441  0.173074  1
  O  O15  1  0.923501  0.374717  0.374208  1
  O  O16  1  0.923509  0.374795  0.242734  1
  O  O17  1  0.576227  0.374717  0.374207  1
  O  O18  1  0.576234  0.374796  0.242733  1
  O  O19  1  0.249871  0.490454  0.172413  1
  O  O20  1  0.749864  0.509704  0.373547  1
  O  O21  1  0.749871  0.509781  0.243392  1
  O  O22  1  0.079484  0.951396  0.150007  1
  O  O23  1  0.420258  0.951396  0.150007  1
  O  O24  1  0.920252  0.048763  0.351141  1
  O  O25  1  0.920259  0.048837  0.265802  1
  O  O26  1  0.579478  0.048763  0.351140  1
  O  O27  1  0.579482  0.048838  0.265801  1
  O  O28  1  0.249870  0.064643  0.137478  1
  O  O29  1  0.749866  0.935515  0.338611  1
  O  O30  1  0.749870  0.935587  0.278330  1
  O  O31  1  0.113167  0.121381  0.107337  1
  O  O32  1  0.386569  0.121381  0.107337  1
  O  O33  1  0.886569  0.878778  0.308470  1
  O  O34  1  0.613167  0.878778  0.308470  1
  O  O35  1  0.249864  0.108328  0.398053  1
  O  O36  1  0.249872  0.108426  0.218888  1
  O  O37  1  0.749872  0.891831  0.196919  1
  O  O38  1  0.111626  0.945285  0.195012  1
  O  O39  1  0.388117  0.945284  0.195011  1
  O  O40  1  0.888110  0.054874  0.396145  1
  O  O41  1  0.888119  0.054957  0.220797  1
  O  O42  1  0.611619  0.054874  0.396145  1
  O  O43  1  0.611624  0.054956  0.220796  1
  O  O44  1  0.059461  0.127490  0.383821  1
  O  O45  1  0.059470  0.127579  0.233121  1
  O  O46  1  0.440267  0.127490  0.383820  1
  O  O47  1  0.440273  0.127579  0.233120  1
  O  O48  1  0.940275  0.872669  0.182688  1
  O  O49  1  0.559468  0.872669  0.182687  1
  O  O50  1  0.122184  0.305109  0.467397  1
  O  O51  1  0.122187  0.305185  0.551809  1
  O  O52  1  0.377546  0.305109  0.467396  1
  O  O53  1  0.377553  0.305185  0.551809  1
  O  O54  1  0.877552  0.695050  0.668530  1
  O  O55  1  0.622189  0.695050  0.668529  1
  O  O56  1  0.123317  0.304753  0.421251  1
  O  O57  1  0.123324  0.304836  0.597955  1
  O  O58  1  0.376411  0.304753  0.421251  1
  O  O59  1  0.376419  0.304835  0.597955  1
  O  O60  1  0.876419  0.695406  0.622384  1
  O  O61  1  0.623324  0.695406  0.622384  1
  O  O62  1  0.076227  0.625363  0.443866  1
  O  O63  1  0.076234  0.625441  0.575341  1
  O  O64  1  0.423502  0.625363  0.443866  1
  O  O65  1  0.423508  0.625441  0.575340  1
  O  O66  1  0.923509  0.374795  0.645000  1
  O  O67  1  0.576234  0.374796  0.644999  1
  O  O68  1  0.249864  0.490378  0.444525  1
  O  O69  1  0.249871  0.490454  0.574680  1
  O  O70  1  0.749871  0.509781  0.645659  1
  O  O71  1  0.079476  0.951321  0.466935  1
  O  O72  1  0.079484  0.951396  0.552274  1
  O  O73  1  0.420253  0.951321  0.466934  1
  O  O74  1  0.420258  0.951396  0.552274  1
  O  O75  1  0.920259  0.048837  0.668068  1
  O  O76  1  0.579482  0.048838  0.668068  1
  O  O77  1  0.249866  0.064571  0.479463  1
  O  O78  1  0.249870  0.064643  0.539745  1
  O  O79  1  0.749870  0.935587  0.680597  1
  O  O80  1  0.113167  0.121381  0.509604  1
  O  O81  1  0.386569  0.121381  0.509603  1
  O  O82  1  0.886569  0.878778  0.710737  1
  O  O83  1  0.613167  0.878778  0.710736  1
  O  O84  1  0.249872  0.108426  0.621155  1
  O  O85  1  0.749864  0.891733  0.420022  1
  O  O86  1  0.749872  0.891831  0.599185  1
  O  O87  1  0.111617  0.945202  0.421930  1
  O  O88  1  0.111626  0.945285  0.597279  1
  O  O89  1  0.388112  0.945203  0.421929  1
  O  O90  1  0.388117  0.945284  0.597278  1
  O  O91  1  0.888119  0.054957  0.623063  1
  O  O92  1  0.611624  0.054956  0.623062  1
  O  O93  1  0.059470  0.127579  0.635387  1
  O  O94  1  0.440273  0.127579  0.635386  1
  O  O95  1  0.940266  0.872579  0.434254  1
  O  O96  1  0.940275  0.872669  0.584955  1
  O  O97  1  0.559463  0.872580  0.434253  1
  O  O98  1  0.559468  0.872669  0.584954  1
  Si  Si99  1  0.138694  0.437017  0.172695  1
  Si  Si100  1  0.361048  0.437018  0.172694  1
  Si  Si101  1  0.861041  0.563142  0.373828  1
  Si  Si102  1  0.861048  0.563218  0.243111  1
  Si  Si103  1  0.638687  0.563141  0.373827  1
  Si  Si104  1  0.638694  0.563218  0.243111  1
  Si  Si105  1  0.137812  0.109414  0.135363  1
  Si  Si106  1  0.361927  0.109413  0.135363  1
  Si  Si107  1  0.861923  0.890745  0.336497  1
  Si  Si108  1  0.861927  0.890811  0.280444  1
  Si  Si109  1  0.637808  0.890746  0.336496  1
  Si  Si110  1  0.637812  0.890811  0.280444  1
  Si  Si111  1  0.138229  0.120354  0.404871  1
  Si  Si112  1  0.138236  0.120446  0.212070  1
  Si  Si113  1  0.361500  0.120355  0.404870  1
  Si  Si114  1  0.361507  0.120445  0.212070  1
  Si  Si115  1  0.861507  0.879804  0.203738  1
  Si  Si116  1  0.638236  0.879804  0.203737  1
  Si  Si117  1  0.049833  0.845098  0.174352  1
  Si  Si118  1  0.449909  0.845098  0.174352  1
  Si  Si119  1  0.949902  0.155061  0.375485  1
  Si  Si120  1  0.949911  0.155139  0.241457  1
  Si  Si121  1  0.549826  0.155060  0.375485  1
  Si  Si122  1  0.549831  0.155139  0.241456  1
  Si  Si123  1  0.138687  0.436941  0.444245  1
  Si  Si124  1  0.138694  0.437017  0.574961  1
  Si  Si125  1  0.361041  0.436940  0.444244  1
  Si  Si126  1  0.361048  0.437018  0.574961  1
  Si  Si127  1  0.861048  0.563218  0.645378  1
  Si  Si128  1  0.638694  0.563218  0.645377  1
  Si  Si129  1  0.137808  0.109348  0.481578  1
  Si  Si130  1  0.137812  0.109414  0.537630  1
  Si  Si131  1  0.361923  0.109348  0.481577  1
  Si  Si132  1  0.361927  0.109413  0.537629  1
  Si  Si133  1  0.861927  0.890811  0.682711  1
  Si  Si134  1  0.637812  0.890811  0.682710  1
  Si  Si135  1  0.138236  0.120446  0.614337  1
  Si  Si136  1  0.361507  0.120445  0.614336  1
  Si  Si137  1  0.861499  0.879713  0.413204  1
  Si  Si138  1  0.861507  0.879804  0.606004  1
  Si  Si139  1  0.638229  0.879713  0.413203  1
  Si  Si140  1  0.638236  0.879804  0.606004  1
  Si  Si141  1  0.049824  0.845020  0.442590  1
  Si  Si142  1  0.049833  0.845098  0.576619  1
  Si  Si143  1  0.449905  0.845019  0.442590  1
  Si  Si144  1  0.449909  0.845098  0.576618  1
  Si  Si145  1  0.949911  0.155139  0.643724  1
  Si  Si146  1  0.549831  0.155139  0.643723  1
  H  H147  1  0.113167  0.121381  0.090964  1
  H  H148  1  0.386569  0.121381  0.090963  1
  H  H149  1  0.886569  0.878778  0.727110  1
  H  H150  1  0.613167  0.878778  0.727110  1
