# generated using pymatgen
data_Si30H2O61
_symmetry_space_group_name_H-M   'P 1'
_cell_length_a   13.50435003
_cell_length_b   12.57013567
_cell_length_c   67.71932281
_cell_angle_alpha   90.00000000
_cell_angle_beta   90.00000000
_cell_angle_gamma   90.00000000
_symmetry_Int_Tables_number   1
_chemical_formula_structural   Si30H2O61
_chemical_formula_sum   'Si120 H8 O244'
_cell_volume   11495.4574393
_cell_formula_units_Z   4
loop_
 _symmetry_equiv_pos_site_id
 _symmetry_equiv_pos_as_xyz
  1  'x, y, z'
loop_
 _atom_site_type_symbol
 _atom_site_label
 _atom_site_symmetry_multiplicity
 _atom_site_fract_x
 _atom_site_fract_y
 _atom_site_fract_z
 _atom_site_occupancy
  O  O1  1  0.138453  0.041023  0.087125  1
  O  O2  1  0.361710  0.541020  0.087125  1
  O  O3  1  0.127870  0.851696  0.189539  1
  O  O4  1  0.372308  0.351690  0.189536  1
  O  O5  1  0.372307  0.648119  0.120329  1
  O  O6  1  0.127880  0.148112  0.120330  1
  O  O7  1  0.175575  0.047783  0.187907  1
  O  O8  1  0.324608  0.547782  0.187904  1
  O  O9  1  0.324583  0.452030  0.121961  1
  O  O10  1  0.175598  0.952027  0.121962  1
  O  O11  1  0.150512  0.164158  0.156954  1
  O  O12  1  0.349676  0.664161  0.156953  1
  O  O13  1  0.349662  0.335645  0.152913  1
  O  O14  1  0.150520  0.835646  0.152914  1
  O  O15  1  -0.000000  0.011639  0.112179  1
  O  O16  1  0.181035  0.330226  0.136126  1
  O  O17  1  0.319149  0.830230  0.136126  1
  O  O18  1  0.319134  0.169582  0.173743  1
  O  O19  1  0.181055  0.669589  0.173744  1
  O  O20  1  0.245349  0.499908  0.154933  1
  O  O21  1  0.254832  0.000000  0.154935  1
  O  O22  1  -0.000000  0.988153  0.197687  1
  O  O23  1  -0.000000  0.747812  0.169673  1
  O  O24  1  -0.000000  0.251973  0.140195  1
  O  O25  1  0.138421  0.958792  0.222743  1
  O  O26  1  0.361721  0.458791  0.222740  1
  O  O27  1  0.372276  0.351700  0.255944  1
  O  O28  1  0.127836  0.851699  0.255946  1
  O  O29  1  0.324571  0.547788  0.257576  1
  O  O30  1  0.175540  0.047787  0.257578  1
  O  O31  1  0.349643  0.664163  0.288528  1
  O  O32  1  0.150482  0.164163  0.288530  1
  O  O33  1  0.181018  0.669591  0.271740  1
  O  O34  1  0.319098  0.169591  0.271739  1
  O  O35  1  -0.000000  0.747819  0.275811  1
  O  O36  1  0.000000  0.988158  0.247796  1
  O  O37  1  0.638436  0.541008  0.087124  1
  O  O38  1  0.861726  0.041012  0.087125  1
  O  O39  1  0.627878  0.351669  0.189536  1
  O  O40  1  0.872300  0.851670  0.189536  1
  O  O41  1  0.872310  0.148100  0.120329  1
  O  O42  1  0.627875  0.648096  0.120329  1
  O  O43  1  0.675603  0.547755  0.187906  1
  O  O44  1  0.824573  0.047757  0.187904  1
  O  O45  1  0.824605  0.952008  0.121960  1
  O  O46  1  0.675586  0.452010  0.121959  1
  O  O47  1  0.650520  0.664141  0.156954  1
  O  O48  1  0.849664  0.164142  0.156953  1
  O  O49  1  0.849679  0.835626  0.152912  1
  O  O50  1  0.650512  0.335632  0.152911  1
  O  O51  1  0.681055  0.830200  0.136123  1
  O  O52  1  0.819139  0.330208  0.136124  1
  O  O53  1  0.819151  0.669558  0.173740  1
  O  O54  1  0.681030  0.169558  0.173738  1
  O  O55  1  0.745352  -0.000000  0.154931  1
  O  O56  1  0.754835  0.499885  0.154932  1
  O  O57  1  0.500101  0.488148  0.197686  1
  O  O58  1  0.500085  0.247815  0.169671  1
  O  O59  1  0.500081  0.511637  0.112179  1
  O  O60  1  0.500100  0.751977  0.140194  1
  O  O61  1  0.638448  0.458760  0.222742  1
  O  O62  1  0.861695  0.958764  0.222740  1
  O  O63  1  0.872270  0.851676  0.255945  1
  O  O64  1  0.627845  0.351674  0.255946  1
  O  O65  1  0.824536  0.047758  0.257576  1
  O  O66  1  0.675570  0.547762  0.257577  1
  O  O67  1  0.849631  0.164143  0.288527  1
  O  O68  1  0.650488  0.664147  0.288529  1
  O  O69  1  0.680994  0.169562  0.271743  1
  O  O70  1  0.819116  0.669566  0.271742  1
  O  O71  1  0.500073  0.488156  0.247794  1
  O  O72  1  0.500048  0.247821  0.275810  1
  O  O73  1  0.138453  0.041023  0.358357  1
  O  O74  1  0.361710  0.541020  0.358357  1
  O  O75  1  0.127853  0.148125  0.325154  1
  O  O76  1  0.372281  0.648114  0.325153  1
  O  O77  1  0.175578  0.952036  0.323521  1
  O  O78  1  0.324558  0.452031  0.323521  1
  O  O79  1  0.150488  0.835649  0.292570  1
  O  O80  1  0.349627  0.335654  0.292569  1
  O  O81  1  0.319119  0.830227  0.309357  1
  O  O82  1  0.181002  0.330238  0.309356  1
  O  O83  1  0.254806  0.000000  0.290548  1
  O  O84  1  -0.000000  0.251975  0.305287  1
  O  O85  1  0.245318  0.499914  0.290548  1
  O  O86  1  -0.000000  0.011643  0.333303  1
  O  O87  1  0.127870  0.851696  0.460771  1
  O  O88  1  0.372308  0.351690  0.460769  1
  O  O89  1  0.372307  0.648119  0.391561  1
  O  O90  1  0.127880  0.148112  0.391562  1
  O  O91  1  0.175575  0.047783  0.459139  1
  O  O92  1  0.324608  0.547782  0.459136  1
  O  O93  1  0.324583  0.452030  0.393193  1
  O  O94  1  0.175598  0.952027  0.393194  1
  O  O95  1  0.150512  0.164158  0.428187  1
  O  O96  1  0.349676  0.664161  0.428185  1
  O  O97  1  0.349662  0.335645  0.424145  1
  O  O98  1  0.150520  0.835646  0.424146  1
  O  O99  1  0.000000  0.011639  0.383411  1
  O  O100  1  0.181035  0.330226  0.407358  1
  O  O101  1  0.319149  0.830230  0.407358  1
  O  O102  1  0.319134  0.169582  0.444975  1
  O  O103  1  0.181055  0.669589  0.444976  1
  O  O104  1  0.245349  0.499908  0.426166  1
  O  O105  1  0.254832  -0.000000  0.426168  1
  O  O106  1  -0.000000  0.988153  0.468919  1
  O  O107  1  -0.000000  0.747812  0.440906  1
  O  O108  1  -0.000000  0.251973  0.411427  1
  O  O109  1  0.138421  0.958792  0.493975  1
  O  O110  1  0.361721  0.458791  0.493972  1
  O  O111  1  0.372276  0.351700  0.527176  1
  O  O112  1  0.127836  0.851699  0.527179  1
  O  O113  1  0.324571  0.547788  0.528808  1
  O  O114  1  0.175540  0.047787  0.528810  1
  O  O115  1  0.349643  0.664163  0.559760  1
  O  O116  1  0.150482  0.164163  0.559762  1
  O  O117  1  0.181018  0.669591  0.542972  1
  O  O118  1  0.319098  0.169591  0.542971  1
  O  O119  1  -0.000000  0.747819  0.547043  1
  O  O120  1  -0.000000  0.988158  0.519028  1
  O  O121  1  0.638436  0.541008  0.358357  1
  O  O122  1  0.861726  0.041012  0.358357  1
  O  O123  1  0.627849  0.648102  0.325153  1
  O  O124  1  0.872284  0.148099  0.325152  1
  O  O125  1  0.675561  0.452013  0.323521  1
  O  O126  1  0.824578  0.952012  0.323522  1
  O  O127  1  0.650477  0.335633  0.292570  1
  O  O128  1  0.849640  0.835636  0.292570  1
  O  O129  1  0.500067  0.751978  0.305288  1
  O  O130  1  0.819107  0.330205  0.309357  1
  O  O131  1  0.681019  0.830210  0.309359  1
  O  O132  1  0.754803  0.499887  0.290549  1
  O  O133  1  0.500063  0.511637  0.333303  1
  O  O134  1  0.745315  0.000000  0.290551  1
  O  O135  1  0.627878  0.351669  0.460768  1
  O  O136  1  0.872300  0.851670  0.460769  1
  O  O137  1  0.872310  0.148100  0.391561  1
  O  O138  1  0.627875  0.648096  0.391561  1
  O  O139  1  0.675603  0.547755  0.459138  1
  O  O140  1  0.824573  0.047757  0.459137  1
  O  O141  1  0.824605  0.952008  0.393192  1
  O  O142  1  0.675586  0.452010  0.393192  1
  O  O143  1  0.650520  0.664141  0.428186  1
  O  O144  1  0.849664  0.164142  0.428186  1
  O  O145  1  0.849679  0.835626  0.424144  1
  O  O146  1  0.650512  0.335632  0.424144  1
  O  O147  1  0.681055  0.830200  0.407355  1
  O  O148  1  0.819139  0.330208  0.407356  1
  O  O149  1  0.819151  0.669558  0.444972  1
  O  O150  1  0.681030  0.169558  0.444970  1
  O  O151  1  0.745352  0.000000  0.426163  1
  O  O152  1  0.754835  0.499885  0.426164  1
  O  O153  1  0.500101  0.488148  0.468919  1
  O  O154  1  0.500085  0.247815  0.440903  1
  O  O155  1  0.500081  0.511637  0.383411  1
  O  O156  1  0.500100  0.751977  0.411426  1
  O  O157  1  0.638448  0.458760  0.493974  1
  O  O158  1  0.861695  0.958764  0.493972  1
  O  O159  1  0.872270  0.851676  0.527177  1
  O  O160  1  0.627845  0.351674  0.527178  1
  O  O161  1  0.824536  0.047758  0.528808  1
  O  O162  1  0.675570  0.547762  0.528809  1
  O  O163  1  0.849631  0.164143  0.559760  1
  O  O164  1  0.650488  0.664147  0.559761  1
  O  O165  1  0.680994  0.169562  0.542975  1
  O  O166  1  0.819116  0.669566  0.542974  1
  O  O167  1  0.500073  0.488156  0.519027  1
  O  O168  1  0.500048  0.247821  0.547043  1
  O  O169  1  0.138453  0.041023  0.629590  1
  O  O170  1  0.361710  0.541020  0.629590  1
  O  O171  1  0.127853  0.148125  0.596386  1
  O  O172  1  0.372281  0.648114  0.596385  1
  O  O173  1  0.175578  0.952036  0.594754  1
  O  O174  1  0.324558  0.452031  0.594753  1
  O  O175  1  0.150488  0.835649  0.563802  1
  O  O176  1  0.349627  0.335654  0.563801  1
  O  O177  1  0.319119  0.830227  0.580589  1
  O  O178  1  0.181002  0.330238  0.580589  1
  O  O179  1  0.254806  0.000000  0.561780  1
  O  O180  1  -0.000000  0.251975  0.576519  1
  O  O181  1  0.245318  0.499914  0.561780  1
  O  O182  1  -0.000000  0.011643  0.604536  1
  O  O183  1  0.127870  0.851696  0.732003  1
  O  O184  1  0.372308  0.351690  0.732001  1
  O  O185  1  0.372307  0.648119  0.662793  1
  O  O186  1  0.127880  0.148112  0.662794  1
  O  O187  1  0.175575  0.047783  0.730372  1
  O  O188  1  0.324608  0.547782  0.730369  1
  O  O189  1  0.324583  0.452030  0.664425  1
  O  O190  1  0.175598  0.952027  0.664426  1
  O  O191  1  0.150512  0.164158  0.699419  1
  O  O192  1  0.349676  0.664161  0.699417  1
  O  O193  1  0.349662  0.335645  0.695377  1
  O  O194  1  0.150520  0.835646  0.695379  1
  O  O195  1  -0.000000  0.011639  0.654643  1
  O  O196  1  0.181035  0.330226  0.678590  1
  O  O197  1  0.319149  0.830230  0.678590  1
  O  O198  1  0.319134  0.169582  0.716207  1
  O  O199  1  0.181055  0.669589  0.716208  1
  O  O200  1  0.245349  0.499908  0.697398  1
  O  O201  1  0.254832  0.000000  0.697400  1
  O  O202  1  -0.000000  0.988153  0.740152  1
  O  O203  1  -0.000000  0.747812  0.712138  1
  O  O204  1  -0.000000  0.251973  0.682659  1
  O  O205  1  0.138421  0.958792  0.765207  1
  O  O206  1  0.361721  0.458791  0.765204  1
  O  O207  1  0.638436  0.541008  0.629589  1
  O  O208  1  0.861726  0.041012  0.629590  1
  O  O209  1  0.627849  0.648102  0.596385  1
  O  O210  1  0.872284  0.148099  0.596384  1
  O  O211  1  0.675561  0.452013  0.594754  1
  O  O212  1  0.824578  0.952012  0.594754  1
  O  O213  1  0.650477  0.335633  0.563802  1
  O  O214  1  0.849640  0.835636  0.563802  1
  O  O215  1  0.500067  0.751978  0.576521  1
  O  O216  1  0.819107  0.330205  0.580589  1
  O  O217  1  0.681019  0.830210  0.580591  1
  O  O218  1  0.754803  0.499887  0.561782  1
  O  O219  1  0.500063  0.511637  0.604535  1
  O  O220  1  0.745315  0.000000  0.561783  1
  O  O221  1  0.627878  0.351669  0.732001  1
  O  O222  1  0.872300  0.851670  0.732001  1
  O  O223  1  0.872310  0.148100  0.662794  1
  O  O224  1  0.627875  0.648096  0.662794  1
  O  O225  1  0.675603  0.547755  0.730370  1
  O  O226  1  0.824573  0.047757  0.730369  1
  O  O227  1  0.824605  0.952008  0.664424  1
  O  O228  1  0.675586  0.452010  0.664424  1
  O  O229  1  0.650520  0.664141  0.699418  1
  O  O230  1  0.849664  0.164142  0.699418  1
  O  O231  1  0.849679  0.835626  0.695376  1
  O  O232  1  0.650512  0.335632  0.695376  1
  O  O233  1  0.681055  0.830200  0.678588  1
  O  O234  1  0.819139  0.330208  0.678588  1
  O  O235  1  0.819151  0.669558  0.716205  1
  O  O236  1  0.681030  0.169558  0.716202  1
  O  O237  1  0.745352  0.000000  0.697395  1
  O  O238  1  0.754835  0.499885  0.697396  1
  O  O239  1  0.500101  0.488148  0.740151  1
  O  O240  1  0.500085  0.247815  0.712135  1
  O  O241  1  0.500081  0.511637  0.654644  1
  O  O242  1  0.500100  0.751977  0.682658  1
  O  O243  1  0.638448  0.458760  0.765206  1
  O  O244  1  0.861695  0.958764  0.765205  1
  Si  Si245  1  0.272583  0.595771  0.169046  1
  Si  Si246  1  0.272568  0.404042  0.140821  1
  Si  Si247  1  0.227614  0.904041  0.140822  1
  Si  Si248  1  0.227602  0.095766  0.169048  1
  Si  Si249  1  0.114277  0.227796  0.138194  1
  Si  Si250  1  0.385912  0.727802  0.138193  1
  Si  Si251  1  0.385900  0.272005  0.171672  1
  Si  Si252  1  0.114284  0.772009  0.171674  1
  Si  Si253  1  0.113974  0.963274  0.199968  1
  Si  Si254  1  0.386197  0.463269  0.199965  1
  Si  Si255  1  0.386181  0.536537  0.109900  1
  Si  Si256  1  0.114000  0.036534  0.109901  1
  Si  Si257  1  0.385864  0.272014  0.273809  1
  Si  Si258  1  0.114248  0.772011  0.273810  1
  Si  Si259  1  0.227571  0.095771  0.276436  1
  Si  Si260  1  0.113946  0.963276  0.245517  1
  Si  Si261  1  0.272549  0.595775  0.276435  1
  Si  Si262  1  0.386169  0.463278  0.245515  1
  Si  Si263  1  0.772586  0.904016  0.140819  1
  Si  Si264  1  0.727607  0.404023  0.140819  1
  Si  Si265  1  0.727615  0.595746  0.169046  1
  Si  Si266  1  0.772565  0.095746  0.169044  1
  Si  Si267  1  0.614273  0.271991  0.171671  1
  Si  Si268  1  0.885912  0.771987  0.171672  1
  Si  Si269  1  0.614284  0.727781  0.138194  1
  Si  Si270  1  0.885904  0.227784  0.138194  1
  Si  Si271  1  0.613984  0.536520  0.109900  1
  Si  Si272  1  0.886171  0.963251  0.199966  1
  Si  Si273  1  0.614001  0.463247  0.199966  1
  Si  Si274  1  0.886197  0.036524  0.109900  1
  Si  Si275  1  0.772530  0.095749  0.276437  1
  Si  Si276  1  0.727582  0.595752  0.276437  1
  Si  Si277  1  0.886143  0.963255  0.245516  1
  Si  Si278  1  0.613973  0.463253  0.245516  1
  Si  Si279  1  0.614237  0.271993  0.273810  1
  Si  Si280  1  0.885875  0.771995  0.273810  1
  Si  Si281  1  0.272537  0.404050  0.304661  1
  Si  Si282  1  0.227587  0.904043  0.304662  1
  Si  Si283  1  0.114245  0.227805  0.307289  1
  Si  Si284  1  0.113981  0.036543  0.335583  1
  Si  Si285  1  0.386162  0.536534  0.335582  1
  Si  Si286  1  0.385880  0.727799  0.307289  1
  Si  Si287  1  0.272583  0.595771  0.440278  1
  Si  Si288  1  0.272568  0.404042  0.412053  1
  Si  Si289  1  0.227614  0.904041  0.412054  1
  Si  Si290  1  0.227602  0.095766  0.440280  1
  Si  Si291  1  0.114277  0.227796  0.409426  1
  Si  Si292  1  0.385912  0.727802  0.409425  1
  Si  Si293  1  0.385900  0.272005  0.442905  1
  Si  Si294  1  0.114284  0.772009  0.442907  1
  Si  Si295  1  0.113974  0.963274  0.471200  1
  Si  Si296  1  0.386197  0.463269  0.471198  1
  Si  Si297  1  0.386181  0.536537  0.381132  1
  Si  Si298  1  0.114000  0.036534  0.381133  1
  Si  Si299  1  0.385864  0.272014  0.545041  1
  Si  Si300  1  0.114248  0.772011  0.545042  1
  Si  Si301  1  0.227571  0.095771  0.547669  1
  Si  Si302  1  0.113946  0.963276  0.516749  1
  Si  Si303  1  0.272549  0.595775  0.547667  1
  Si  Si304  1  0.386169  0.463278  0.516747  1
  Si  Si305  1  0.727576  0.404023  0.304662  1
  Si  Si306  1  0.772550  0.904027  0.304663  1
  Si  Si307  1  0.885872  0.227782  0.307287  1
  Si  Si308  1  0.614252  0.727787  0.307289  1
  Si  Si309  1  0.613965  0.536524  0.335582  1
  Si  Si310  1  0.886178  0.036524  0.335582  1
  Si  Si311  1  0.772586  0.904016  0.412051  1
  Si  Si312  1  0.727607  0.404023  0.412051  1
  Si  Si313  1  0.727615  0.595746  0.440278  1
  Si  Si314  1  0.772565  0.095746  0.440276  1
  Si  Si315  1  0.614273  0.271991  0.442903  1
  Si  Si316  1  0.885912  0.771987  0.442905  1
  Si  Si317  1  0.614284  0.727781  0.409426  1
  Si  Si318  1  0.885904  0.227784  0.409426  1
  Si  Si319  1  0.613984  0.536520  0.381132  1
  Si  Si320  1  0.886171  0.963251  0.471198  1
  Si  Si321  1  0.614001  0.463247  0.471198  1
  Si  Si322  1  0.886197  0.036524  0.381132  1
  Si  Si323  1  0.772530  0.095749  0.547669  1
  Si  Si324  1  0.727582  0.595752  0.547669  1
  Si  Si325  1  0.886143  0.963255  0.516748  1
  Si  Si326  1  0.613973  0.463253  0.516748  1
  Si  Si327  1  0.614237  0.271993  0.545042  1
  Si  Si328  1  0.885875  0.771995  0.545042  1
  Si  Si329  1  0.272537  0.404050  0.575893  1
  Si  Si330  1  0.227587  0.904043  0.575894  1
  Si  Si331  1  0.114245  0.227805  0.578521  1
  Si  Si332  1  0.113981  0.036543  0.606815  1
  Si  Si333  1  0.386162  0.536534  0.606814  1
  Si  Si334  1  0.385880  0.727799  0.578521  1
  Si  Si335  1  0.272583  0.595771  0.711510  1
  Si  Si336  1  0.272568  0.404042  0.683285  1
  Si  Si337  1  0.227614  0.904041  0.683286  1
  Si  Si338  1  0.227602  0.095766  0.711513  1
  Si  Si339  1  0.114277  0.227796  0.680659  1
  Si  Si340  1  0.385912  0.727802  0.680657  1
  Si  Si341  1  0.385900  0.272005  0.714137  1
  Si  Si342  1  0.114284  0.772009  0.714139  1
  Si  Si343  1  0.113974  0.963274  0.742432  1
  Si  Si344  1  0.386197  0.463269  0.742430  1
  Si  Si345  1  0.386181  0.536537  0.652364  1
  Si  Si346  1  0.114000  0.036534  0.652365  1
  Si  Si347  1  0.727576  0.404023  0.575894  1
  Si  Si348  1  0.772550  0.904027  0.575896  1
  Si  Si349  1  0.885872  0.227782  0.578520  1
  Si  Si350  1  0.614252  0.727787  0.578521  1
  Si  Si351  1  0.613965  0.536524  0.606814  1
  Si  Si352  1  0.886178  0.036524  0.606814  1
  Si  Si353  1  0.772586  0.904016  0.683283  1
  Si  Si354  1  0.727607  0.404023  0.683283  1
  Si  Si355  1  0.727615  0.595746  0.711510  1
  Si  Si356  1  0.772565  0.095746  0.711509  1
  Si  Si357  1  0.614273  0.271991  0.714135  1
  Si  Si358  1  0.885912  0.771987  0.714137  1
  Si  Si359  1  0.614284  0.727781  0.680658  1
  Si  Si360  1  0.885904  0.227784  0.680658  1
  Si  Si361  1  0.613984  0.536520  0.652364  1
  Si  Si362  1  0.886171  0.963251  0.742430  1
  Si  Si363  1  0.614001  0.463247  0.742430  1
  Si  Si364  1  0.886197  0.036524  0.652364  1
  H  H365  1  0.138453  0.041023  0.073835  1
  H  H366  1  0.361710  0.541020  0.073835  1
  H  H367  1  0.638436  0.541008  0.073834  1
  H  H368  1  0.861726  0.041012  0.073835  1
  H  H369  1  0.138421  0.958792  0.778497  1
  H  H370  1  0.361721  0.458791  0.778494  1
  H  H371  1  0.638448  0.458760  0.778496  1
  H  H372  1  0.861695  0.958764  0.778495  1
