# generated using pymatgen
data_Si5H2O11
_symmetry_space_group_name_H-M   'P 1'
_cell_length_a   13.03001073
_cell_length_b   12.67812019
_cell_length_c   40.85770802
_cell_angle_alpha   90.00000000
_cell_angle_beta   120.00000000
_cell_angle_gamma   90.00000000
_symmetry_Int_Tables_number   1
_chemical_formula_structural   Si5H2O11
_chemical_formula_sum   'Si30 H12 O66'
_cell_volume   5845.26587716
_cell_formula_units_Z   6
loop_
 _symmetry_equiv_pos_site_id
 _symmetry_equiv_pos_as_xyz
  1  'x, y, z'
loop_
 _atom_site_type_symbol
 _atom_site_label
 _atom_site_symmetry_multiplicity
 _atom_site_fract_x
 _atom_site_fract_y
 _atom_site_fract_z
 _atom_site_occupancy
  O  O1  1  0.297729  0.097439  0.192210  1
  O  O2  1  0.354240  0.499955  0.199397  1
  O  O3  1  0.111261  0.982681  0.163335  1
  O  O4  1  0.643226  0.499847  0.199368  1
  O  O5  1  0.212637  0.437740  0.450078  1
  O  O6  1  0.229015  0.162975  0.346073  1
  O  O7  1  0.229060  0.162945  0.444863  1
  O  O8  1  0.021122  0.097578  0.301795  1
  O  O9  1  0.297729  0.097439  0.511119  1
  O  O10  1  0.021178  0.097548  0.422803  1
  O  O11  1  0.297742  0.097687  0.301724  1
  O  O12  1  0.087988  0.147023  0.372967  1
  O  O13  1  0.454340  0.146881  0.489918  1
  O  O14  1  0.454377  0.147040  0.372906  1
  O  O15  1  0.063960  0.294016  0.326593  1
  O  O16  1  0.332685  0.293894  0.497532  1
  O  O17  1  0.064000  0.293993  0.411743  1
  O  O18  1  0.332730  0.294104  0.326565  1
  O  O19  1  0.123756  0.425381  0.378734  1
  O  O20  1  0.436234  0.425202  0.478454  1
  O  O21  1  0.436276  0.425311  0.378731  1
  O  O22  1  0.212675  0.437818  0.335778  1
  O  O23  1  0.223582  0.017121  0.235140  1
  O  O24  1  0.354240  0.499955  0.518306  1
  O  O25  1  0.111299  0.982787  0.271108  1
  O  O26  1  0.459165  0.837227  0.272723  1
  O  O27  1  0.320011  0.902358  0.206421  1
  O  O28  1  0.320103  0.902583  0.294661  1
  O  O29  1  0.397792  0.706031  0.220127  1
  O  O30  1  0.397850  0.706201  0.305825  1
  O  O31  1  0.426677  0.562309  0.267610  1
  O  O32  1  0.111261  0.982681  0.482245  1
  O  O33  1  0.354266  0.500199  0.312748  1
  O  O34  1  0.886198  0.017255  0.235213  1
  O  O35  1  0.538327  0.162816  0.444801  1
  O  O36  1  0.677482  0.097686  0.422876  1
  O  O37  1  0.677388  0.097460  0.511086  1
  O  O38  1  0.599696  0.294011  0.411775  1
  O  O39  1  0.599641  0.293842  0.497456  1
  O  O40  1  0.570810  0.437734  0.450049  1
  O  O41  1  0.886229  0.017358  0.446361  1
  O  O42  1  0.643226  0.499847  0.518278  1
  O  O43  1  0.773910  0.982922  0.482347  1
  O  O44  1  0.784808  0.562219  0.267553  1
  O  O45  1  0.784853  0.562307  0.381867  1
  O  O46  1  0.768474  0.837066  0.272640  1
  O  O47  1  0.768436  0.837091  0.371416  1
  O  O48  1  0.976365  0.902459  0.294658  1
  O  O49  1  0.699759  0.902602  0.415771  1
  O  O50  1  0.976317  0.902490  0.415650  1
  O  O51  1  0.699753  0.902357  0.206373  1
  O  O52  1  0.543112  0.853000  0.227600  1
  O  O53  1  0.909505  0.853013  0.344508  1
  O  O54  1  0.543158  0.853164  0.344626  1
  O  O55  1  0.933528  0.706019  0.305794  1
  O  O56  1  0.664797  0.706149  0.391034  1
  O  O57  1  0.933496  0.706044  0.390933  1
  O  O58  1  0.664764  0.705940  0.220054  1
  O  O59  1  0.561207  0.574731  0.239195  1
  O  O60  1  0.873731  0.574662  0.338866  1
  O  O61  1  0.561257  0.574841  0.338933  1
  O  O62  1  0.643245  0.500089  0.404934  1
  O  O63  1  0.998741  0.500021  0.309323  1
  O  O64  1  0.998740  0.500017  0.401489  1
  O  O65  1  0.223582  0.017121  0.554050  1
  O  O66  1  0.320011  0.902358  0.525331  1
  Si  Si67  1  0.236451  0.000000  0.199272  1
  Si  Si68  1  0.095838  0.172891  0.336390  1
  Si  Si69  1  0.331714  0.172787  0.487361  1
  Si  Si70  1  0.095909  0.172894  0.412058  1
  Si  Si71  1  0.331745  0.172941  0.336354  1
  Si  Si72  1  0.095853  0.414824  0.336615  1
  Si  Si73  1  0.332060  0.414720  0.487348  1
  Si  Si74  1  0.095864  0.414824  0.411957  1
  Si  Si75  1  0.332121  0.414867  0.336609  1
  Si  Si76  1  0.236524  0.000000  0.275128  1
  Si  Si77  1  0.428617  0.827170  0.230231  1
  Si  Si78  1  0.428649  0.827325  0.305485  1
  Si  Si79  1  0.429176  0.585232  0.230330  1
  Si  Si80  1  0.429233  0.585380  0.305689  1
  Si  Si81  1  0.236451  0.000000  0.518182  1
  Si  Si82  1  0.568875  0.172874  0.412050  1
  Si  Si83  1  0.568842  0.172721  0.487294  1
  Si  Si84  1  0.568312  0.414808  0.411970  1
  Si  Si85  1  0.568255  0.414661  0.487313  1
  Si  Si86  1  0.761038  0.000000  0.442375  1
  Si  Si87  1  0.998745  0.000000  0.438899  1
  Si  Si88  1  0.998745  0.000000  0.271773  1
  Si  Si89  1  0.901653  0.827154  0.305427  1
  Si  Si90  1  0.665780  0.827256  0.381175  1
  Si  Si91  1  0.901586  0.827150  0.381074  1
  Si  Si92  1  0.665745  0.827102  0.230158  1
  Si  Si93  1  0.901633  0.585210  0.305645  1
  Si  Si94  1  0.665431  0.585323  0.381050  1
  Si  Si95  1  0.901625  0.585210  0.380984  1
  Si  Si96  1  0.665364  0.585172  0.230291  1
  H  H97  1  0.297729  0.097439  0.170182  1
  H  H98  1  0.354240  0.499955  0.177369  1
  H  H99  1  0.111261  0.982681  0.141308  1
  H  H100  1  0.643226  0.499847  0.177340  1
  H  H101  1  0.354240  0.499955  0.540334  1
  H  H102  1  0.886198  0.017255  0.213186  1
  H  H103  1  0.677388  0.097460  0.533114  1
  H  H104  1  0.643226  0.499847  0.540305  1
  H  H105  1  0.773910  0.982922  0.504375  1
  H  H106  1  0.699753  0.902357  0.184345  1
  H  H107  1  0.223582  0.017121  0.576077  1
  H  H108  1  0.320011  0.902358  0.547359  1
