# generated using pymatgen
data_Si18H2O37
_symmetry_space_group_name_H-M   'P 1'
_cell_length_a   13.66911044
_cell_length_b   8.35476497
_cell_length_c   65.89121654
_cell_angle_alpha   90.00000000
_cell_angle_beta   120.00000000
_cell_angle_gamma   90.00000000
_symmetry_Int_Tables_number   1
_chemical_formula_structural   Si18H2O37
_chemical_formula_sum   'Si72 H8 O148'
_cell_volume   6516.77380783
_cell_formula_units_Z   4
loop_
 _symmetry_equiv_pos_site_id
 _symmetry_equiv_pos_as_xyz
  1  'x, y, z'
loop_
 _atom_site_type_symbol
 _atom_site_label
 _atom_site_symmetry_multiplicity
 _atom_site_fract_x
 _atom_site_fract_y
 _atom_site_fract_z
 _atom_site_occupancy
  O  O1  1  0.630137  0.252393  0.101294  1
  O  O2  1  0.369065  0.248262  0.101281  1
  O  O3  1  0.369060  0.751896  0.101290  1
  O  O4  1  0.630132  0.747856  0.101303  1
  O  O5  1  0.336864  0.000000  0.196849  1
  O  O6  1  0.122721  -0.000000  0.238956  1
  O  O7  1  0.541704  0.000000  0.284085  1
  O  O8  1  0.662304  0.000000  0.213807  1
  O  O9  1  0.878720  0.000000  0.171482  1
  O  O10  1  0.458911  0.000000  0.127164  1
  O  O11  1  0.540854  0.500109  0.239350  1
  O  O12  1  0.337987  0.500103  0.283880  1
  O  O13  1  0.121416  0.500093  0.196564  1
  O  O14  1  0.458547  0.500091  0.171729  1
  O  O15  1  0.663370  0.500102  0.127106  1
  O  O16  1  0.878568  0.500110  0.213675  1
  O  O17  1  0.369501  0.248336  0.177966  1
  O  O18  1  0.000000  0.249402  0.232086  1
  O  O19  1  0.630137  0.252393  0.308685  1
  O  O20  1  0.630615  0.251808  0.232103  1
  O  O21  1  -0.000000  0.250245  0.177919  1
  O  O22  1  0.369065  0.248262  0.308672  1
  O  O23  1  0.630605  0.748447  0.232112  1
  O  O24  1  0.369060  0.751896  0.308681  1
  O  O25  1  -0.000000  0.749949  0.177927  1
  O  O26  1  0.369492  0.751811  0.177975  1
  O  O27  1  0.630132  0.747856  0.308694  1
  O  O28  1  0.000000  0.750808  0.232094  1
  O  O29  1  0.215169  0.250643  0.190593  1
  O  O30  1  0.214859  0.251263  0.264061  1
  O  O31  1  0.569520  0.247505  0.264068  1
  O  O32  1  0.784748  0.249706  0.219474  1
  O  O33  1  0.784424  0.248928  0.145931  1
  O  O34  1  0.430160  0.252667  0.145925  1
  O  O35  1  0.569514  0.752665  0.264077  1
  O  O36  1  0.214855  0.748952  0.264070  1
  O  O37  1  0.215158  0.749578  0.190601  1
  O  O38  1  0.430152  0.747569  0.145934  1
  O  O39  1  0.784420  0.751264  0.145939  1
  O  O40  1  0.784736  0.750476  0.219482  1
  O  O41  1  0.425769  0.250921  0.220440  1
  O  O42  1  0.148258  0.249881  0.220403  1
  O  O43  1  0.425442  0.250263  0.277898  1
  O  O44  1  0.574239  0.249562  0.189641  1
  O  O45  1  0.851358  0.250692  0.189626  1
  O  O46  1  0.573890  0.249346  0.132106  1
  O  O47  1  0.425762  0.749303  0.220449  1
  O  O48  1  0.425435  0.749977  0.277907  1
  O  O49  1  0.148250  0.750265  0.220412  1
  O  O50  1  0.574231  0.750617  0.189650  1
  O  O51  1  0.573883  0.750822  0.132115  1
  O  O52  1  0.851350  0.749567  0.189634  1
  O  O53  1  0.336864  -0.000000  0.404240  1
  O  O54  1  0.122721  -0.000000  0.446347  1
  O  O55  1  0.541704  0.000000  0.491476  1
  O  O56  1  0.662304  0.000000  0.421198  1
  O  O57  1  0.878720  0.000000  0.378873  1
  O  O58  1  0.458911  0.000000  0.334555  1
  O  O59  1  0.540854  0.500109  0.446741  1
  O  O60  1  0.337987  0.500103  0.491271  1
  O  O61  1  0.121416  0.500093  0.403955  1
  O  O62  1  0.458547  0.500091  0.379120  1
  O  O63  1  0.663370  0.500102  0.334497  1
  O  O64  1  0.878568  0.500110  0.421066  1
  O  O65  1  0.369501  0.248336  0.385357  1
  O  O66  1  0.000000  0.249402  0.439477  1
  O  O67  1  0.630137  0.252393  0.516076  1
  O  O68  1  0.630615  0.251808  0.439494  1
  O  O69  1  -0.000000  0.250245  0.385310  1
  O  O70  1  0.369065  0.248262  0.516063  1
  O  O71  1  0.630605  0.748447  0.439503  1
  O  O72  1  0.369060  0.751896  0.516072  1
  O  O73  1  -0.000000  0.749949  0.385318  1
  O  O74  1  0.369492  0.751811  0.385366  1
  O  O75  1  0.630132  0.747856  0.516085  1
  O  O76  1  -0.000000  0.750808  0.439485  1
  O  O77  1  0.215169  0.250643  0.397984  1
  O  O78  1  0.214859  0.251263  0.471452  1
  O  O79  1  0.569520  0.247505  0.471459  1
  O  O80  1  0.784748  0.249706  0.426865  1
  O  O81  1  0.784424  0.248928  0.353322  1
  O  O82  1  0.430160  0.252667  0.353316  1
  O  O83  1  0.569514  0.752665  0.471468  1
  O  O84  1  0.214855  0.748952  0.471461  1
  O  O85  1  0.215158  0.749578  0.397992  1
  O  O86  1  0.430152  0.747569  0.353325  1
  O  O87  1  0.784420  0.751264  0.353330  1
  O  O88  1  0.784736  0.750476  0.426873  1
  O  O89  1  0.425769  0.250921  0.427831  1
  O  O90  1  0.148258  0.249881  0.427794  1
  O  O91  1  0.425442  0.250263  0.485289  1
  O  O92  1  0.574239  0.249562  0.397032  1
  O  O93  1  0.851358  0.250692  0.397017  1
  O  O94  1  0.573890  0.249346  0.339497  1
  O  O95  1  0.425762  0.749303  0.427840  1
  O  O96  1  0.425435  0.749977  0.485298  1
  O  O97  1  0.148250  0.750265  0.427803  1
  O  O98  1  0.574231  0.750617  0.397041  1
  O  O99  1  0.573883  0.750822  0.339506  1
  O  O100  1  0.851350  0.749567  0.397025  1
  O  O101  1  0.336864  0.000000  0.611631  1
  O  O102  1  0.122721  -0.000000  0.653738  1
  O  O103  1  0.541704  0.000000  0.698867  1
  O  O104  1  0.662304  0.000000  0.628589  1
  O  O105  1  0.878720  0.000000  0.586264  1
  O  O106  1  0.458911  0.000000  0.541946  1
  O  O107  1  0.540854  0.500109  0.654132  1
  O  O108  1  0.337987  0.500103  0.698662  1
  O  O109  1  0.121416  0.500093  0.611346  1
  O  O110  1  0.458547  0.500091  0.586511  1
  O  O111  1  0.663370  0.500102  0.541888  1
  O  O112  1  0.878568  0.500110  0.628457  1
  O  O113  1  0.369501  0.248336  0.592748  1
  O  O114  1  -0.000000  0.249402  0.646868  1
  O  O115  1  0.630137  0.252393  0.723467  1
  O  O116  1  0.630615  0.251808  0.646885  1
  O  O117  1  -0.000000  0.250245  0.592701  1
  O  O118  1  0.369065  0.248262  0.723454  1
  O  O119  1  0.630605  0.748447  0.646894  1
  O  O120  1  0.369060  0.751896  0.723463  1
  O  O121  1  0.000000  0.749949  0.592709  1
  O  O122  1  0.369492  0.751811  0.592757  1
  O  O123  1  0.630132  0.747856  0.723476  1
  O  O124  1  0.000000  0.750808  0.646876  1
  O  O125  1  0.215169  0.250643  0.605375  1
  O  O126  1  0.214859  0.251263  0.678843  1
  O  O127  1  0.569520  0.247505  0.678850  1
  O  O128  1  0.784748  0.249706  0.634256  1
  O  O129  1  0.784424  0.248928  0.560713  1
  O  O130  1  0.430160  0.252667  0.560707  1
  O  O131  1  0.569514  0.752665  0.678859  1
  O  O132  1  0.214855  0.748952  0.678852  1
  O  O133  1  0.215158  0.749578  0.605383  1
  O  O134  1  0.430152  0.747569  0.560716  1
  O  O135  1  0.784420  0.751264  0.560721  1
  O  O136  1  0.784736  0.750476  0.634264  1
  O  O137  1  0.425769  0.250921  0.635222  1
  O  O138  1  0.148258  0.249881  0.635185  1
  O  O139  1  0.425442  0.250263  0.692680  1
  O  O140  1  0.574239  0.249562  0.604423  1
  O  O141  1  0.851358  0.250692  0.604408  1
  O  O142  1  0.573890  0.249346  0.546888  1
  O  O143  1  0.425762  0.749303  0.635231  1
  O  O144  1  0.425435  0.749977  0.692689  1
  O  O145  1  0.148250  0.750265  0.635194  1
  O  O146  1  0.574231  0.750617  0.604432  1
  O  O147  1  0.573883  0.750822  0.546897  1
  O  O148  1  0.851350  0.749567  0.604416  1
  Si  Si149  1  0.333424  0.186590  0.195843  1
  Si  Si150  1  0.121811  0.186649  0.239584  1
  Si  Si151  1  0.544520  0.186621  0.283530  1
  Si  Si152  1  0.666517  0.186670  0.214357  1
  Si  Si153  1  0.878023  0.186609  0.170513  1
  Si  Si154  1  0.454950  0.186652  0.126664  1
  Si  Si155  1  0.544740  0.686671  0.239675  1
  Si  Si156  1  0.333293  0.686652  0.283497  1
  Si  Si157  1  0.121675  0.686598  0.195759  1
  Si  Si158  1  0.455270  0.686595  0.170588  1
  Si  Si159  1  0.666299  0.686597  0.126689  1
  Si  Si160  1  0.878044  0.686676  0.214334  1
  Si  Si161  1  0.666509  0.813535  0.214364  1
  Si  Si162  1  0.878018  0.813604  0.170520  1
  Si  Si163  1  0.454944  0.813534  0.126671  1
  Si  Si164  1  0.333416  0.813606  0.195850  1
  Si  Si165  1  0.121806  0.813543  0.239591  1
  Si  Si166  1  0.544514  0.813598  0.283537  1
  Si  Si167  1  0.455277  0.313592  0.170581  1
  Si  Si168  1  0.666303  0.313605  0.126682  1
  Si  Si169  1  0.878052  0.313539  0.214328  1
  Si  Si170  1  0.544745  0.313545  0.239667  1
  Si  Si171  1  0.333297  0.313550  0.283490  1
  Si  Si172  1  0.121683  0.313589  0.195753  1
  Si  Si173  1  0.333424  0.186590  0.403234  1
  Si  Si174  1  0.121811  0.186649  0.446975  1
  Si  Si175  1  0.544520  0.186621  0.490921  1
  Si  Si176  1  0.666517  0.186670  0.421748  1
  Si  Si177  1  0.878023  0.186609  0.377904  1
  Si  Si178  1  0.454950  0.186652  0.334055  1
  Si  Si179  1  0.544740  0.686671  0.447066  1
  Si  Si180  1  0.333293  0.686652  0.490888  1
  Si  Si181  1  0.121675  0.686598  0.403150  1
  Si  Si182  1  0.455270  0.686595  0.377979  1
  Si  Si183  1  0.666299  0.686597  0.334080  1
  Si  Si184  1  0.878044  0.686676  0.421725  1
  Si  Si185  1  0.666509  0.813535  0.421755  1
  Si  Si186  1  0.878018  0.813604  0.377911  1
  Si  Si187  1  0.454944  0.813534  0.334062  1
  Si  Si188  1  0.333416  0.813606  0.403241  1
  Si  Si189  1  0.121806  0.813543  0.446982  1
  Si  Si190  1  0.544514  0.813598  0.490928  1
  Si  Si191  1  0.455277  0.313592  0.377971  1
  Si  Si192  1  0.666303  0.313605  0.334073  1
  Si  Si193  1  0.878052  0.313539  0.421719  1
  Si  Si194  1  0.544745  0.313545  0.447058  1
  Si  Si195  1  0.333297  0.313550  0.490881  1
  Si  Si196  1  0.121683  0.313589  0.403144  1
  Si  Si197  1  0.333424  0.186590  0.610625  1
  Si  Si198  1  0.121811  0.186649  0.654366  1
  Si  Si199  1  0.544520  0.186621  0.698312  1
  Si  Si200  1  0.666517  0.186670  0.629139  1
  Si  Si201  1  0.878023  0.186609  0.585295  1
  Si  Si202  1  0.454950  0.186652  0.541446  1
  Si  Si203  1  0.544740  0.686671  0.654457  1
  Si  Si204  1  0.333293  0.686652  0.698279  1
  Si  Si205  1  0.121675  0.686598  0.610541  1
  Si  Si206  1  0.455270  0.686595  0.585370  1
  Si  Si207  1  0.666299  0.686597  0.541471  1
  Si  Si208  1  0.878044  0.686676  0.629116  1
  Si  Si209  1  0.666509  0.813535  0.629146  1
  Si  Si210  1  0.878018  0.813604  0.585302  1
  Si  Si211  1  0.454944  0.813534  0.541453  1
  Si  Si212  1  0.333416  0.813606  0.610632  1
  Si  Si213  1  0.121806  0.813543  0.654373  1
  Si  Si214  1  0.544514  0.813598  0.698319  1
  Si  Si215  1  0.455277  0.313592  0.585362  1
  Si  Si216  1  0.666303  0.313605  0.541464  1
  Si  Si217  1  0.878052  0.313539  0.629110  1
  Si  Si218  1  0.544745  0.313545  0.654449  1
  Si  Si219  1  0.333297  0.313550  0.698272  1
  Si  Si220  1  0.121683  0.313589  0.610535  1
  H  H221  1  0.630137  0.252393  0.087635  1
  H  H222  1  0.369065  0.248262  0.087622  1
  H  H223  1  0.369060  0.751896  0.087631  1
  H  H224  1  0.630132  0.747856  0.087644  1
  H  H225  1  0.630137  0.252393  0.737125  1
  H  H226  1  0.369065  0.248262  0.737112  1
  H  H227  1  0.369060  0.751896  0.737122  1
  H  H228  1  0.630132  0.747856  0.737135  1
