# generated using pymatgen
data_Si18H2O37
_symmetry_space_group_name_H-M   'P 1'
_cell_length_a   8.30247312
_cell_length_b   14.94066669
_cell_length_c   50.00164667
_cell_angle_alpha   90.00000000
_cell_angle_beta   90.00000000
_cell_angle_gamma   90.00000000
_symmetry_Int_Tables_number   1
_chemical_formula_structural   Si18H2O37
_chemical_formula_sum   'Si72 H8 O148'
_cell_volume   6202.42844006
_cell_formula_units_Z   4
loop_
 _symmetry_equiv_pos_site_id
 _symmetry_equiv_pos_as_xyz
  1  'x, y, z'
loop_
 _atom_site_type_symbol
 _atom_site_label
 _atom_site_symmetry_multiplicity
 _atom_site_fract_x
 _atom_site_fract_y
 _atom_site_fract_z
 _atom_site_occupancy
  O  O1  1  0.770386  0.749907  0.117996  1
  O  O2  1  0.229763  0.749906  0.117996  1
  O  O3  1  0.249189  0.119956  0.212385  1
  O  O4  1  0.751226  0.619949  0.212088  1
  O  O5  1  0.750959  0.119956  0.212385  1
  O  O6  1  0.248921  0.619948  0.212088  1
  O  O7  1  0.248923  0.379887  0.212367  1
  O  O8  1  0.750956  0.879879  0.212070  1
  O  O9  1  0.751226  0.379888  0.212367  1
  O  O10  1  0.249191  0.879879  0.212070  1
  O  O11  1  0.263235  0.165727  0.162914  1
  O  O12  1  0.743473  0.665550  0.162451  1
  O  O13  1  0.736914  0.165729  0.162914  1
  O  O14  1  0.256675  0.665549  0.162450  1
  O  O15  1  0.263300  0.334185  0.162900  1
  O  O16  1  0.743505  0.834386  0.162428  1
  O  O17  1  0.736848  0.334185  0.162900  1
  O  O18  1  0.256644  0.834385  0.162427  1
  O  O19  1  0.736914  0.834108  0.261541  1
  O  O20  1  0.256674  0.334284  0.262004  1
  O  O21  1  0.263232  0.834107  0.261541  1
  O  O22  1  0.743474  0.334286  0.262005  1
  O  O23  1  0.736845  0.665650  0.261556  1
  O  O24  1  0.256644  0.165450  0.262028  1
  O  O25  1  0.263303  0.665649  0.261556  1
  O  O26  1  0.743502  0.165450  0.262028  1
  O  O27  1  0.241353  0.000000  0.177115  1
  O  O28  1  0.758557  0.499625  0.177109  1
  O  O29  1  0.758794  0.000000  0.177114  1
  O  O30  1  0.241592  0.499624  0.177110  1
  O  O31  1  0.758793  0.000000  0.247341  1
  O  O32  1  0.241590  0.500210  0.247346  1
  O  O33  1  0.241354  0.000000  0.247341  1
  O  O34  1  0.758556  0.500211  0.247346  1
  O  O35  1  -0.000000  0.106695  0.183016  1
  O  O36  1  0.500074  0.589910  0.184548  1
  O  O37  1  -0.000000  0.393349  0.182940  1
  O  O38  1  0.500074  0.910167  0.184476  1
  O  O39  1  -0.000000  0.893141  0.241439  1
  O  O40  1  0.500074  0.409925  0.239908  1
  O  O41  1  0.000000  0.606486  0.241516  1
  O  O42  1  0.500074  0.089669  0.239979  1
  O  O43  1  0.500074  0.249908  0.142973  1
  O  O44  1  0.000000  0.749935  0.151941  1
  O  O45  1  0.500075  0.749929  0.281482  1
  O  O46  1  -0.000000  0.249899  0.272514  1
  O  O47  1  0.229760  0.249928  0.118684  1
  O  O48  1  0.770386  0.749907  0.305772  1
  O  O49  1  0.770387  0.249929  0.118684  1
  O  O50  1  0.229763  0.749906  0.305772  1
  O  O51  1  0.249189  0.119956  0.400161  1
  O  O52  1  0.751226  0.619949  0.399864  1
  O  O53  1  0.750959  0.119956  0.400161  1
  O  O54  1  0.248921  0.619948  0.399864  1
  O  O55  1  0.248923  0.379887  0.400143  1
  O  O56  1  0.750956  0.879879  0.399846  1
  O  O57  1  0.751226  0.379888  0.400143  1
  O  O58  1  0.249191  0.879879  0.399846  1
  O  O59  1  0.263235  0.165727  0.350690  1
  O  O60  1  0.743473  0.665550  0.350227  1
  O  O61  1  0.736914  0.165729  0.350690  1
  O  O62  1  0.256675  0.665549  0.350226  1
  O  O63  1  0.263300  0.334185  0.350675  1
  O  O64  1  0.743505  0.834386  0.350203  1
  O  O65  1  0.736848  0.334185  0.350675  1
  O  O66  1  0.256644  0.834385  0.350203  1
  O  O67  1  0.736914  0.834108  0.449317  1
  O  O68  1  0.256674  0.334284  0.449780  1
  O  O69  1  0.263232  0.834107  0.449317  1
  O  O70  1  0.743474  0.334286  0.449780  1
  O  O71  1  0.736845  0.665650  0.449331  1
  O  O72  1  0.256644  0.165450  0.449803  1
  O  O73  1  0.263303  0.665649  0.449331  1
  O  O74  1  0.743502  0.165450  0.449804  1
  O  O75  1  0.241353  0.000000  0.364890  1
  O  O76  1  0.758557  0.499625  0.364885  1
  O  O77  1  0.758794  0.000000  0.364890  1
  O  O78  1  0.241592  0.499624  0.364885  1
  O  O79  1  0.758793  0.000000  0.435116  1
  O  O80  1  0.241590  0.500210  0.435122  1
  O  O81  1  0.241354  0.000000  0.435116  1
  O  O82  1  0.758556  0.500211  0.435122  1
  O  O83  1  -0.000000  0.106695  0.370791  1
  O  O84  1  0.500074  0.589910  0.372324  1
  O  O85  1  -0.000000  0.393349  0.370716  1
  O  O86  1  0.500074  0.910167  0.372251  1
  O  O87  1  -0.000000  0.893141  0.429215  1
  O  O88  1  0.500074  0.409925  0.427683  1
  O  O89  1  -0.000000  0.606486  0.429291  1
  O  O90  1  0.500074  0.089669  0.427755  1
  O  O91  1  0.500074  0.249908  0.330749  1
  O  O92  1  0.000000  0.749935  0.339717  1
  O  O93  1  0.500075  0.749929  0.469258  1
  O  O94  1  0.000000  0.249899  0.460290  1
  O  O95  1  0.229760  0.249928  0.306459  1
  O  O96  1  0.770386  0.749907  0.493547  1
  O  O97  1  0.770387  0.249929  0.306459  1
  O  O98  1  0.229763  0.749906  0.493548  1
  O  O99  1  0.249189  0.119956  0.587936  1
  O  O100  1  0.751226  0.619949  0.587640  1
  O  O101  1  0.750959  0.119956  0.587936  1
  O  O102  1  0.248921  0.619948  0.587640  1
  O  O103  1  0.248923  0.379887  0.587919  1
  O  O104  1  0.750956  0.879879  0.587622  1
  O  O105  1  0.751226  0.379888  0.587919  1
  O  O106  1  0.249191  0.879879  0.587622  1
  O  O107  1  0.263235  0.165727  0.538466  1
  O  O108  1  0.743473  0.665550  0.538002  1
  O  O109  1  0.736914  0.165729  0.538465  1
  O  O110  1  0.256675  0.665549  0.538002  1
  O  O111  1  0.263300  0.334185  0.538451  1
  O  O112  1  0.743505  0.834386  0.537979  1
  O  O113  1  0.736848  0.334185  0.538451  1
  O  O114  1  0.256644  0.834385  0.537979  1
  O  O115  1  0.736914  0.834108  0.637093  1
  O  O116  1  0.256674  0.334284  0.637556  1
  O  O117  1  0.263232  0.834107  0.637092  1
  O  O118  1  0.743474  0.334286  0.637556  1
  O  O119  1  0.736845  0.665650  0.637107  1
  O  O120  1  0.256644  0.165450  0.637579  1
  O  O121  1  0.263303  0.665649  0.637107  1
  O  O122  1  0.743502  0.165450  0.637579  1
  O  O123  1  0.241353  0.000000  0.552666  1
  O  O124  1  0.758557  0.499625  0.552661  1
  O  O125  1  0.758794  0.000000  0.552666  1
  O  O126  1  0.241592  0.499624  0.552661  1
  O  O127  1  0.758793  0.000000  0.622892  1
  O  O128  1  0.241590  0.500210  0.622898  1
  O  O129  1  0.241354  0.000000  0.622892  1
  O  O130  1  0.758556  0.500211  0.622897  1
  O  O131  1  -0.000000  0.106695  0.558567  1
  O  O132  1  0.500074  0.589910  0.560100  1
  O  O133  1  0.000000  0.393349  0.558491  1
  O  O134  1  0.500074  0.910167  0.560027  1
  O  O135  1  -0.000000  0.893141  0.616990  1
  O  O136  1  0.500074  0.409925  0.615459  1
  O  O137  1  -0.000000  0.606486  0.617067  1
  O  O138  1  0.500074  0.089669  0.615531  1
  O  O139  1  0.500074  0.249908  0.518525  1
  O  O140  1  0.000000  0.749935  0.527493  1
  O  O141  1  0.500075  0.749929  0.657033  1
  O  O142  1  -0.000000  0.249899  0.648066  1
  O  O143  1  0.229760  0.249928  0.494235  1
  O  O144  1  0.770386  0.749907  0.681323  1
  O  O145  1  0.770387  0.249929  0.494235  1
  O  O146  1  0.229763  0.749906  0.681323  1
  O  O147  1  0.229760  0.249928  0.682010  1
  O  O148  1  0.770387  0.249929  0.682010  1
  Si  Si149  1  0.187473  0.098905  0.183298  1
  Si  Si150  1  0.687621  0.594789  0.183412  1
  Si  Si151  1  0.812674  0.098905  0.183298  1
  Si  Si152  1  0.312528  0.594789  0.183412  1
  Si  Si153  1  0.187480  0.401031  0.183270  1
  Si  Si154  1  0.687622  0.905151  0.183387  1
  Si  Si155  1  0.812667  0.401031  0.183270  1
  Si  Si156  1  0.312527  0.905150  0.183386  1
  Si  Si157  1  0.812675  0.900931  0.241158  1
  Si  Si158  1  0.312527  0.405046  0.241043  1
  Si  Si159  1  0.187474  0.900930  0.241158  1
  Si  Si160  1  0.687620  0.405047  0.241043  1
  Si  Si161  1  0.812667  0.598804  0.241186  1
  Si  Si162  1  0.312527  0.094685  0.241069  1
  Si  Si163  1  0.187481  0.598804  0.241186  1
  Si  Si164  1  0.687621  0.094685  0.241069  1
  Si  Si165  1  0.313764  0.249935  0.146542  1
  Si  Si166  1  0.813843  0.749942  0.148313  1
  Si  Si167  1  0.686384  0.249935  0.146542  1
  Si  Si168  1  0.186303  0.749941  0.148313  1
  Si  Si169  1  0.686383  0.749901  0.277913  1
  Si  Si170  1  0.186304  0.249893  0.276142  1
  Si  Si171  1  0.313764  0.749901  0.277913  1
  Si  Si172  1  0.813845  0.249894  0.276142  1
  Si  Si173  1  0.187473  0.098905  0.371073  1
  Si  Si174  1  0.687621  0.594789  0.371188  1
  Si  Si175  1  0.812674  0.098905  0.371073  1
  Si  Si176  1  0.312528  0.594789  0.371188  1
  Si  Si177  1  0.187480  0.401031  0.371046  1
  Si  Si178  1  0.687622  0.905151  0.371162  1
  Si  Si179  1  0.812667  0.401031  0.371046  1
  Si  Si180  1  0.312527  0.905150  0.371162  1
  Si  Si181  1  0.812675  0.900931  0.428933  1
  Si  Si182  1  0.312527  0.405046  0.428819  1
  Si  Si183  1  0.187474  0.900930  0.428933  1
  Si  Si184  1  0.687620  0.405047  0.428819  1
  Si  Si185  1  0.812667  0.598804  0.428961  1
  Si  Si186  1  0.312527  0.094685  0.428844  1
  Si  Si187  1  0.187481  0.598804  0.428961  1
  Si  Si188  1  0.687621  0.094685  0.428845  1
  Si  Si189  1  0.313764  0.249935  0.334318  1
  Si  Si190  1  0.813843  0.749942  0.336089  1
  Si  Si191  1  0.686384  0.249935  0.334318  1
  Si  Si192  1  0.186303  0.749941  0.336089  1
  Si  Si193  1  0.686383  0.749901  0.465689  1
  Si  Si194  1  0.186304  0.249893  0.463918  1
  Si  Si195  1  0.313764  0.749901  0.465689  1
  Si  Si196  1  0.813845  0.249894  0.463918  1
  Si  Si197  1  0.187473  0.098905  0.558849  1
  Si  Si198  1  0.687621  0.594789  0.558964  1
  Si  Si199  1  0.812674  0.098905  0.558849  1
  Si  Si200  1  0.312528  0.594789  0.558964  1
  Si  Si201  1  0.187480  0.401031  0.558821  1
  Si  Si202  1  0.687622  0.905151  0.558938  1
  Si  Si203  1  0.812667  0.401031  0.558821  1
  Si  Si204  1  0.312527  0.905150  0.558938  1
  Si  Si205  1  0.812675  0.900931  0.616709  1
  Si  Si206  1  0.312527  0.405046  0.616595  1
  Si  Si207  1  0.187474  0.900930  0.616709  1
  Si  Si208  1  0.687620  0.405047  0.616595  1
  Si  Si209  1  0.812667  0.598804  0.616737  1
  Si  Si210  1  0.312527  0.094685  0.616620  1
  Si  Si211  1  0.187481  0.598804  0.616737  1
  Si  Si212  1  0.687621  0.094685  0.616620  1
  Si  Si213  1  0.313764  0.249935  0.522094  1
  Si  Si214  1  0.813843  0.749942  0.523865  1
  Si  Si215  1  0.686384  0.249935  0.522094  1
  Si  Si216  1  0.186303  0.749941  0.523865  1
  Si  Si217  1  0.686383  0.749901  0.653464  1
  Si  Si218  1  0.186304  0.249893  0.651693  1
  Si  Si219  1  0.313764  0.749901  0.653464  1
  Si  Si220  1  0.813845  0.249894  0.651693  1
  H  H221  1  0.770386  0.749907  0.099997  1
  H  H222  1  0.229763  0.749906  0.099997  1
  H  H223  1  0.229760  0.249928  0.100684  1
  H  H224  1  0.770387  0.249929  0.100684  1
  H  H225  1  0.770386  0.749907  0.699322  1
  H  H226  1  0.229763  0.749906  0.699323  1
  H  H227  1  0.229760  0.249928  0.700010  1
  H  H228  1  0.770387  0.249929  0.700010  1
