# generated using pymatgen
data_Si20H2O41
_symmetry_space_group_name_H-M   'P 1'
_cell_length_a   9.70747760
_cell_length_b   8.31165552
_cell_length_c   47.06363364
_cell_angle_alpha   90.00000000
_cell_angle_beta   90.00000000
_cell_angle_gamma   90.00000000
_symmetry_Int_Tables_number   1
_chemical_formula_structural   Si20H2O41
_chemical_formula_sum   'Si40 H4 O82'
_cell_volume   3797.33915327
_cell_formula_units_Z   2
loop_
 _symmetry_equiv_pos_site_id
 _symmetry_equiv_pos_as_xyz
  1  'x, y, z'
loop_
 _atom_site_type_symbol
 _atom_site_label
 _atom_site_symmetry_multiplicity
 _atom_site_fract_x
 _atom_site_fract_y
 _atom_site_fract_z
 _atom_site_occupancy
  O  O1  1  0.500080  0.011496  0.125362  1
  O  O2  1  0.500098  0.488255  0.125364  1
  O  O3  1  0.801020  0.749883  0.471346  1
  O  O4  1  0.301044  0.749859  0.202953  1
  O  O5  1  0.198783  0.749884  0.471388  1
  O  O6  1  0.698803  0.749860  0.202986  1
  O  O7  1  0.803433  0.249859  0.318302  1
  O  O8  1  0.303407  0.249885  0.586688  1
  O  O9  1  0.195976  0.249858  0.318691  1
  O  O10  1  0.695956  0.249884  0.587101  1
  O  O11  1  0.635969  0.991952  0.469657  1
  O  O12  1  0.135996  0.991925  0.201261  1
  O  O13  1  0.363844  0.991927  0.469677  1
  O  O14  1  0.863869  0.991897  0.201279  1
  O  O15  1  0.636021  0.490799  0.318674  1
  O  O16  1  0.136017  0.490845  0.587074  1
  O  O17  1  0.363916  0.490420  0.318714  1
  O  O18  1  0.863914  0.490433  0.587110  1
  O  O19  1  0.363924  0.009301  0.318710  1
  O  O20  1  0.863916  0.009336  0.587109  1
  O  O21  1  0.636027  0.008910  0.318674  1
  O  O22  1  0.136017  0.008926  0.587070  1
  O  O23  1  0.363835  0.507833  0.469679  1
  O  O24  1  0.863873  0.507820  0.201283  1
  O  O25  1  0.635957  0.507825  0.469661  1
  O  O26  1  0.135995  0.507787  0.201262  1
  O  O27  1  0.870329  0.011720  0.494843  1
  O  O28  1  0.370357  0.011706  0.226446  1
  O  O29  1  0.129438  0.011772  0.494863  1
  O  O30  1  0.629467  0.011735  0.226465  1
  O  O31  1  0.870448  0.509623  0.293557  1
  O  O32  1  0.370445  0.509688  0.561959  1
  O  O33  1  0.129651  0.508748  0.293560  1
  O  O34  1  0.629646  0.508736  0.561955  1
  O  O35  1  0.129653  0.990972  0.293556  1
  O  O36  1  0.629649  0.991032  0.561954  1
  O  O37  1  0.870454  0.990093  0.293556  1
  O  O38  1  0.370449  0.990093  0.561954  1
  O  O39  1  0.129430  0.488001  0.494864  1
  O  O40  1  0.629466  0.487989  0.226469  1
  O  O41  1  0.870322  0.488053  0.494847  1
  O  O42  1  0.370356  0.488009  0.226447  1
  O  O43  1  0.870619  0.995188  0.441725  1
  O  O44  1  0.370642  0.995158  0.173329  1
  O  O45  1  0.129238  0.995140  0.441747  1
  O  O46  1  0.629260  0.995135  0.173349  1
  O  O47  1  0.870369  0.502368  0.346399  1
  O  O48  1  0.370370  0.502324  0.614801  1
  O  O49  1  0.129446  0.503820  0.346398  1
  O  O50  1  0.629447  0.503900  0.614793  1
  O  O51  1  0.129457  0.995884  0.346395  1
  O  O52  1  0.629444  0.995858  0.614792  1
  O  O53  1  0.870380  0.997356  0.346399  1
  O  O54  1  0.370368  0.997424  0.614797  1
  O  O55  1  0.129223  0.504621  0.441748  1
  O  O56  1  0.629265  0.504575  0.173352  1
  O  O57  1  0.870605  0.504553  0.441729  1
  O  O58  1  0.370646  0.504561  0.173330  1
  O  O59  1  0.500080  0.011496  0.662158  1
  O  O60  1  -0.000000  0.011495  0.393757  1
  O  O61  1  0.500098  0.488255  0.662160  1
  O  O62  1  -0.000000  0.488249  0.393762  1
  O  O63  1  0.498638  0.749879  0.633315  1
  O  O64  1  0.998724  0.749863  0.364919  1
  O  O65  1  0.499991  0.249864  0.160014  1
  O  O66  1  0.000000  0.249873  0.428413  1
  O  O67  1  0.500700  0.749886  0.540693  1
  O  O68  1  -0.000000  0.749858  0.272294  1
  O  O69  1  0.499850  0.249856  0.248586  1
  O  O70  1  -0.000000  0.249884  0.516983  1
  O  O71  1  0.499963  0.022351  0.514796  1
  O  O72  1  -0.000000  0.022326  0.246398  1
  O  O73  1  0.499812  0.524528  0.273669  1
  O  O74  1  -0.000000  0.524553  0.542067  1
  O  O75  1  0.499830  0.975177  0.273666  1
  O  O76  1  -0.000000  0.975207  0.542064  1
  O  O77  1  0.499942  0.477408  0.514799  1
  O  O78  1  -0.000000  0.477376  0.246400  1
  O  O79  1  -0.000000  0.749885  0.578459  1
  O  O80  1  0.499656  0.749858  0.310062  1
  O  O81  1  -0.000000  0.249856  0.210480  1
  O  O82  1  0.499900  0.249886  0.478879  1
  Si  Si83  1  0.790434  0.936733  0.468910  1
  Si  Si84  1  0.290459  0.936708  0.200514  1
  Si  Si85  1  0.209376  0.936730  0.468939  1
  Si  Si86  1  0.709401  0.936706  0.200539  1
  Si  Si87  1  0.790776  0.436937  0.319697  1
  Si  Si88  1  0.290770  0.436961  0.588095  1
  Si  Si89  1  0.209068  0.436957  0.319808  1
  Si  Si90  1  0.709062  0.436983  0.588206  1
  Si  Si91  1  0.209076  0.062758  0.319805  1
  Si  Si92  1  0.709064  0.062783  0.588206  1
  Si  Si93  1  0.790780  0.062780  0.319697  1
  Si  Si94  1  0.290770  0.062806  0.588092  1
  Si  Si95  1  0.209367  0.563036  0.468939  1
  Si  Si96  1  0.709402  0.563010  0.200543  1
  Si  Si97  1  0.790426  0.563031  0.468913  1
  Si  Si98  1  0.290461  0.563006  0.200515  1
  Si  Si99  1  0.499651  0.937086  0.631852  1
  Si  Si100  1  -0.000000  0.937076  0.363456  1
  Si  Si101  1  0.499994  0.436662  0.157095  1
  Si  Si102  1  -0.000000  0.436676  0.425494  1
  Si  Si103  1  0.499986  0.063063  0.157093  1
  Si  Si104  1  0.000000  0.063078  0.425492  1
  Si  Si105  1  0.499656  0.562664  0.631855  1
  Si  Si106  1  -0.000000  0.562651  0.363456  1
  Si  Si107  1  0.500193  0.937029  0.544326  1
  Si  Si108  1  -0.000000  0.937001  0.275929  1
  Si  Si109  1  0.499870  0.436717  0.244324  1
  Si  Si110  1  -0.000000  0.436745  0.512722  1
  Si  Si111  1  0.499875  0.062997  0.244323  1
  Si  Si112  1  -0.000000  0.063024  0.512719  1
  Si  Si113  1  0.500186  0.562740  0.544329  1
  Si  Si114  1  -0.000000  0.562712  0.275930  1
  Si  Si115  1  0.000000  0.936195  0.574561  1
  Si  Si116  1  0.499865  0.936166  0.306164  1
  Si  Si117  1  0.000000  0.436215  0.214018  1
  Si  Si118  1  0.499911  0.436242  0.482416  1
  Si  Si119  1  0.000000  0.063497  0.214016  1
  Si  Si120  1  0.499922  0.063524  0.482413  1
  Si  Si121  1  -0.000000  0.563573  0.574564  1
  Si  Si122  1  0.499857  0.563544  0.306166  1
  H  H123  1  0.500080  0.011496  0.106239  1
  H  H124  1  0.500098  0.488255  0.106241  1
  H  H125  1  0.500080  0.011496  0.681281  1
  H  H126  1  0.500098  0.488255  0.681283  1
