# generated using pymatgen
data_Si8H2O17
_symmetry_space_group_name_H-M   'P 1'
_cell_length_a   12.95735766
_cell_length_b   5.13138262
_cell_length_c   34.76131972
_cell_angle_alpha   90.00000000
_cell_angle_beta   90.00000000
_cell_angle_gamma   90.00000000
_symmetry_Int_Tables_number   1
_chemical_formula_structural   Si8H2O17
_chemical_formula_sum   'Si16 H4 O34'
_cell_volume   2311.25094514
_cell_formula_units_Z   2
loop_
 _symmetry_equiv_pos_site_id
 _symmetry_equiv_pos_as_xyz
  1  'x, y, z'
loop_
 _atom_site_type_symbol
 _atom_site_label
 _atom_site_symmetry_multiplicity
 _atom_site_fract_x
 _atom_site_fract_y
 _atom_site_fract_z
 _atom_site_occupancy
  O  O1  1  0.734243  0.499832  0.169729  1
  O  O2  1  0.265539  0.499886  0.169736  1
  O  O3  1  0.150057  0.750097  0.300165  1
  O  O4  1  0.650093  0.249586  0.486614  1
  O  O5  1  0.349698  0.749820  0.486603  1
  O  O6  1  0.849715  0.249939  0.300176  1
  O  O7  1  0.849660  0.749581  0.412136  1
  O  O8  1  0.349751  0.250096  0.225735  1
  O  O9  1  0.650095  0.749941  0.225715  1
  O  O10  1  0.150056  0.249819  0.412157  1
  O  O11  1  0.150062  0.749817  0.412151  1
  O  O12  1  0.650076  0.249951  0.225725  1
  O  O13  1  0.349694  0.750093  0.225713  1
  O  O14  1  0.849732  0.249577  0.412164  1
  O  O15  1  0.849730  0.749934  0.300167  1
  O  O16  1  0.349695  0.249825  0.486608  1
  O  O17  1  0.650025  0.749588  0.486588  1
  O  O18  1  0.150113  0.250091  0.300187  1
  O  O19  1  0.234243  -0.000000  0.356167  1
  O  O20  1  0.734243  0.499832  0.542588  1
  O  O21  1  0.499878  -0.000000  0.455231  1
  O  O22  1  0.000000  0.499905  0.268801  1
  O  O23  1  0.765538  -0.000000  0.356160  1
  O  O24  1  0.265539  0.499886  0.542595  1
  O  O25  1  0.499906  0.000000  0.257095  1
  O  O26  1  0.000000  0.499819  0.443525  1
  O  O27  1  0.315031  0.000000  0.287227  1
  O  O28  1  0.814999  0.499704  0.473650  1
  O  O29  1  0.315000  -0.000000  0.425105  1
  O  O30  1  0.815031  0.499905  0.238669  1
  O  O31  1  0.684748  -0.000000  0.425099  1
  O  O32  1  0.184781  0.499996  0.238675  1
  O  O33  1  0.684782  -0.000000  0.287221  1
  O  O34  1  0.184749  0.499836  0.473656  1
  Si  Si35  1  0.212746  0.000000  0.311715  1
  Si  Si36  1  0.712719  0.499668  0.498140  1
  Si  Si37  1  0.380656  -0.000000  0.463245  1
  Si  Si38  1  0.880686  0.499915  0.276811  1
  Si  Si39  1  0.787035  -0.000000  0.400610  1
  Si  Si40  1  0.287062  0.500026  0.214186  1
  Si  Si41  1  0.619123  0.000000  0.249080  1
  Si  Si42  1  0.119097  0.499830  0.435514  1
  Si  Si43  1  0.212719  -0.000000  0.400615  1
  Si  Si44  1  0.712747  0.499917  0.214182  1
  Si  Si45  1  0.380686  0.000000  0.249085  1
  Si  Si46  1  0.880658  0.499665  0.435510  1
  Si  Si47  1  0.787063  -0.000000  0.311710  1
  Si  Si48  1  0.287034  0.499833  0.498145  1
  Si  Si49  1  0.619097  -0.000000  0.463241  1
  Si  Si50  1  0.119124  0.500027  0.276816  1
  H  H51  1  0.734243  0.499832  0.143838  1
  H  H52  1  0.265539  0.499886  0.143845  1
  H  H53  1  0.734243  0.499832  0.568479  1
  H  H54  1  0.265539  0.499886  0.568486  1
