# generated using pymatgen
data_Si34H2O69
_symmetry_space_group_name_H-M   'P 1'
_cell_length_a   13.14623884
_cell_length_b   5.11803959
_cell_length_c   81.81189890
_cell_angle_alpha   90.00000000
_cell_angle_beta   90.00000000
_cell_angle_gamma   90.00000000
_symmetry_Int_Tables_number   1
_chemical_formula_structural   Si34H2O69
_chemical_formula_sum   'Si68 H4 O138'
_cell_volume   5504.54760828
_cell_formula_units_Z   2
loop_
 _symmetry_equiv_pos_site_id
 _symmetry_equiv_pos_as_xyz
  1  'x, y, z'
loop_
 _atom_site_type_symbol
 _atom_site_label
 _atom_site_symmetry_multiplicity
 _atom_site_fract_x
 _atom_site_fract_y
 _atom_site_fract_z
 _atom_site_occupancy
  O  O1  1  0.322965  0.249970  0.280342  1
  O  O2  1  0.822959  0.249758  0.149017  1
  O  O3  1  0.676944  0.249949  0.280343  1
  O  O4  1  0.176937  0.249718  0.149016  1
  O  O5  1  0.322959  0.749906  0.072117  1
  O  O6  1  0.822963  0.749790  0.203445  1
  O  O7  1  0.676939  0.749922  0.072117  1
  O  O8  1  0.176944  0.749769  0.203445  1
  O  O9  1  0.360976  0.500498  0.307538  1
  O  O10  1  0.860969  0.499667  0.176234  1
  O  O11  1  0.638927  0.500504  0.307538  1
  O  O12  1  0.138932  0.499689  0.176232  1
  O  O13  1  0.860974  0.000000  0.176227  1
  O  O14  1  0.138926  0.000000  0.176228  1
  O  O15  1  0.499955  0.250203  0.293194  1
  O  O16  1  0.000000  0.249731  0.161867  1
  O  O17  1  -0.000000  0.749711  0.190594  1
  O  O18  1  0.637392  0.998908  0.254241  1
  O  O19  1  0.137404  0.998596  0.122916  1
  O  O20  1  0.362516  0.998903  0.254241  1
  O  O21  1  0.862537  0.998969  0.122906  1
  O  O22  1  0.637373  0.498900  0.098222  1
  O  O23  1  0.137353  0.499181  0.229560  1
  O  O24  1  0.362466  0.498452  0.098208  1
  O  O25  1  0.862524  0.498904  0.229551  1
  O  O26  1  0.362584  0.000000  0.098241  1
  O  O27  1  0.862545  0.000000  0.229554  1
  O  O28  1  0.637367  0.000000  0.098229  1
  O  O29  1  0.137406  0.000000  0.229544  1
  O  O30  1  0.362549  0.500611  0.254229  1
  O  O31  1  0.862517  0.500679  0.122911  1
  O  O32  1  0.637364  0.500605  0.254231  1
  O  O33  1  0.137332  0.500301  0.122899  1
  O  O34  1  0.803267  0.249809  0.254651  1
  O  O35  1  0.303262  0.249637  0.123323  1
  O  O36  1  0.196646  0.249857  0.254650  1
  O  O37  1  0.696632  0.249803  0.123323  1
  O  O38  1  0.803262  0.749780  0.097811  1
  O  O39  1  0.303267  0.749891  0.229137  1
  O  O40  1  0.196633  0.749608  0.097809  1
  O  O41  1  0.696644  0.749831  0.229137  1
  O  O42  1  0.499956  0.749890  0.238675  1
  O  O43  1  -0.000000  0.749721  0.107349  1
  O  O44  1  0.499947  0.249789  0.113785  1
  O  O45  1  -0.000000  0.249818  0.245112  1
  O  O46  1  0.322965  0.249970  0.542997  1
  O  O47  1  0.822959  0.249758  0.411671  1
  O  O48  1  0.676944  0.249949  0.542997  1
  O  O49  1  0.176937  0.249718  0.411670  1
  O  O50  1  0.322959  0.749906  0.334771  1
  O  O51  1  0.822963  0.749790  0.466100  1
  O  O52  1  0.676939  0.749922  0.334772  1
  O  O53  1  0.176944  0.749769  0.466099  1
  O  O54  1  0.360976  0.500498  0.570193  1
  O  O55  1  0.860969  0.499667  0.438888  1
  O  O56  1  0.638927  0.500504  0.570193  1
  O  O57  1  0.138932  0.499689  0.438886  1
  O  O58  1  0.360968  0.000000  0.307576  1
  O  O59  1  0.860974  0.000000  0.438881  1
  O  O60  1  0.638933  0.000000  0.307577  1
  O  O61  1  0.138926  0.000000  0.438883  1
  O  O62  1  0.499955  0.250203  0.555849  1
  O  O63  1  -0.000000  0.249731  0.424522  1
  O  O64  1  0.499952  0.750224  0.321920  1
  O  O65  1  0.000000  0.749711  0.453248  1
  O  O66  1  0.637392  0.998908  0.516895  1
  O  O67  1  0.137404  0.998596  0.385570  1
  O  O68  1  0.362516  0.998903  0.516895  1
  O  O69  1  0.862537  0.998969  0.385560  1
  O  O70  1  0.637373  0.498900  0.360876  1
  O  O71  1  0.137353  0.499181  0.492214  1
  O  O72  1  0.362466  0.498452  0.360862  1
  O  O73  1  0.862524  0.498904  0.492205  1
  O  O74  1  0.362584  0.000000  0.360896  1
  O  O75  1  0.862545  0.000000  0.492208  1
  O  O76  1  0.637367  0.000000  0.360883  1
  O  O77  1  0.137406  0.000000  0.492198  1
  O  O78  1  0.362549  0.500611  0.516884  1
  O  O79  1  0.862517  0.500679  0.385565  1
  O  O80  1  0.637364  0.500605  0.516885  1
  O  O81  1  0.137332  0.500301  0.385554  1
  O  O82  1  0.803267  0.249809  0.517305  1
  O  O83  1  0.303262  0.249637  0.385977  1
  O  O84  1  0.196646  0.249857  0.517305  1
  O  O85  1  0.696632  0.249803  0.385977  1
  O  O86  1  0.803262  0.749780  0.360465  1
  O  O87  1  0.303267  0.749891  0.491791  1
  O  O88  1  0.196633  0.749608  0.360464  1
  O  O89  1  0.696644  0.749831  0.491791  1
  O  O90  1  0.499956  0.749890  0.501330  1
  O  O91  1  0.000000  0.749721  0.370003  1
  O  O92  1  0.499947  0.249789  0.376439  1
  O  O93  1  0.000000  0.249818  0.507766  1
  O  O94  1  0.322965  0.249970  0.805651  1
  O  O95  1  0.822959  0.249758  0.674325  1
  O  O96  1  0.676944  0.249949  0.805652  1
  O  O97  1  0.176937  0.249718  0.674325  1
  O  O98  1  0.322959  0.749906  0.597425  1
  O  O99  1  0.822963  0.749790  0.728754  1
  O  O100  1  0.676939  0.749922  0.597426  1
  O  O101  1  0.176944  0.749769  0.728753  1
  O  O102  1  0.860969  0.499667  0.701543  1
  O  O103  1  0.138932  0.499689  0.701541  1
  O  O104  1  0.360968  0.000000  0.570231  1
  O  O105  1  0.860974  0.000000  0.701536  1
  O  O106  1  0.638933  0.000000  0.570232  1
  O  O107  1  0.138926  0.000000  0.701537  1
  O  O108  1  0.000000  0.249731  0.687176  1
  O  O109  1  0.499952  0.750224  0.584575  1
  O  O110  1  -0.000000  0.749711  0.715902  1
  O  O111  1  0.637392  0.998908  0.779549  1
  O  O112  1  0.137404  0.998596  0.648224  1
  O  O113  1  0.362516  0.998903  0.779550  1
  O  O114  1  0.862537  0.998969  0.648215  1
  O  O115  1  0.637373  0.498900  0.623531  1
  O  O116  1  0.137353  0.499181  0.754868  1
  O  O117  1  0.362466  0.498452  0.623516  1
  O  O118  1  0.862524  0.498904  0.754859  1
  O  O119  1  0.362584  0.000000  0.623550  1
  O  O120  1  0.862545  0.000000  0.754862  1
  O  O121  1  0.637367  0.000000  0.623538  1
  O  O122  1  0.137406  0.000000  0.754853  1
  O  O123  1  0.362549  0.500611  0.779538  1
  O  O124  1  0.862517  0.500679  0.648219  1
  O  O125  1  0.637364  0.500605  0.779540  1
  O  O126  1  0.137332  0.500301  0.648208  1
  O  O127  1  0.803267  0.249809  0.779959  1
  O  O128  1  0.303262  0.249637  0.648631  1
  O  O129  1  0.196646  0.249857  0.779959  1
  O  O130  1  0.696632  0.249803  0.648632  1
  O  O131  1  0.803262  0.749780  0.623119  1
  O  O132  1  0.303267  0.749891  0.754445  1
  O  O133  1  0.196633  0.749608  0.623118  1
  O  O134  1  0.696644  0.749831  0.754446  1
  O  O135  1  0.499956  0.749890  0.763984  1
  O  O136  1  -0.000000  0.749721  0.632657  1
  O  O137  1  0.499947  0.249789  0.639093  1
  O  O138  1  -0.000000  0.249818  0.770421  1
  Si  Si139  1  0.382655  0.250293  0.297033  1
  Si  Si140  1  0.882652  0.249708  0.165706  1
  Si  Si141  1  0.617258  0.250294  0.297034  1
  Si  Si142  1  0.117248  0.249712  0.165706  1
  Si  Si143  1  0.882650  0.749708  0.186754  1
  Si  Si144  1  0.117254  0.749711  0.186754  1
  Si  Si145  1  0.690136  0.249811  0.261237  1
  Si  Si146  1  0.190130  0.249558  0.129909  1
  Si  Si147  1  0.309778  0.249824  0.261237  1
  Si  Si148  1  0.809764  0.249796  0.129910  1
  Si  Si149  1  0.690129  0.749786  0.091225  1
  Si  Si150  1  0.190135  0.749937  0.222550  1
  Si  Si151  1  0.309768  0.749515  0.091224  1
  Si  Si152  1  0.809777  0.749783  0.222551  1
  Si  Si153  1  0.383357  0.749827  0.243562  1
  Si  Si154  1  0.883343  0.749793  0.112235  1
  Si  Si155  1  0.616557  0.749813  0.243563  1
  Si  Si156  1  0.116552  0.749557  0.112235  1
  Si  Si157  1  0.383345  0.249519  0.108899  1
  Si  Si158  1  0.883355  0.249781  0.240226  1
  Si  Si159  1  0.616551  0.249787  0.108899  1
  Si  Si160  1  0.116555  0.249933  0.240226  1
  Si  Si161  1  0.382655  0.250293  0.559687  1
  Si  Si162  1  0.882652  0.249708  0.428360  1
  Si  Si163  1  0.617258  0.250294  0.559688  1
  Si  Si164  1  0.117248  0.249712  0.428360  1
  Si  Si165  1  0.382655  0.750292  0.318082  1
  Si  Si166  1  0.882650  0.749708  0.449409  1
  Si  Si167  1  0.617253  0.750295  0.318082  1
  Si  Si168  1  0.117254  0.749711  0.449408  1
  Si  Si169  1  0.690136  0.249811  0.523892  1
  Si  Si170  1  0.190130  0.249558  0.392563  1
  Si  Si171  1  0.309778  0.249824  0.523891  1
  Si  Si172  1  0.809764  0.249796  0.392564  1
  Si  Si173  1  0.690129  0.749786  0.353879  1
  Si  Si174  1  0.190135  0.749937  0.485205  1
  Si  Si175  1  0.309768  0.749515  0.353879  1
  Si  Si176  1  0.809777  0.749783  0.485205  1
  Si  Si177  1  0.383357  0.749827  0.506216  1
  Si  Si178  1  0.883343  0.749793  0.374889  1
  Si  Si179  1  0.616557  0.749813  0.506217  1
  Si  Si180  1  0.116552  0.749557  0.374889  1
  Si  Si181  1  0.383345  0.249519  0.371553  1
  Si  Si182  1  0.883355  0.249781  0.502880  1
  Si  Si183  1  0.616551  0.249787  0.371553  1
  Si  Si184  1  0.116555  0.249933  0.502880  1
  Si  Si185  1  0.882652  0.249708  0.691015  1
  Si  Si186  1  0.117248  0.249712  0.691014  1
  Si  Si187  1  0.382655  0.750292  0.580736  1
  Si  Si188  1  0.882650  0.749708  0.712063  1
  Si  Si189  1  0.617253  0.750295  0.580736  1
  Si  Si190  1  0.117254  0.749711  0.712062  1
  Si  Si191  1  0.690136  0.249811  0.786546  1
  Si  Si192  1  0.190130  0.249558  0.655218  1
  Si  Si193  1  0.309778  0.249824  0.786545  1
  Si  Si194  1  0.809764  0.249796  0.655218  1
  Si  Si195  1  0.690129  0.749786  0.616533  1
  Si  Si196  1  0.190135  0.749937  0.747859  1
  Si  Si197  1  0.309768  0.749515  0.616533  1
  Si  Si198  1  0.809777  0.749783  0.747860  1
  Si  Si199  1  0.383357  0.749827  0.768871  1
  Si  Si200  1  0.883343  0.749793  0.637543  1
  Si  Si201  1  0.616557  0.749813  0.768871  1
  Si  Si202  1  0.116552  0.749557  0.637543  1
  Si  Si203  1  0.383345  0.249519  0.634208  1
  Si  Si204  1  0.883355  0.249781  0.765535  1
  Si  Si205  1  0.616551  0.249787  0.634208  1
  Si  Si206  1  0.116555  0.249933  0.765534  1
  H  H207  1  0.322959  0.749906  0.061116  1
  H  H208  1  0.676939  0.749922  0.061117  1
  H  H209  1  0.322965  0.249970  0.816652  1
  H  H210  1  0.676944  0.249949  0.816653  1
