# generated using pymatgen
data_Si40H2O81
_symmetry_space_group_name_H-M   'P 1'
_cell_length_a   13.78651735
_cell_length_b   6.96043577
_cell_length_c   77.07872089
_cell_angle_alpha   90.00000000
_cell_angle_beta   90.00000000
_cell_angle_gamma   90.00000000
_symmetry_Int_Tables_number   1
_chemical_formula_structural   Si40H2O81
_chemical_formula_sum   'Si80 H4 O162'
_cell_volume   7396.48704454
_cell_formula_units_Z   2
loop_
 _symmetry_equiv_pos_site_id
 _symmetry_equiv_pos_as_xyz
  1  'x, y, z'
loop_
 _atom_site_type_symbol
 _atom_site_label
 _atom_site_symmetry_multiplicity
 _atom_site_fract_x
 _atom_site_fract_y
 _atom_site_fract_z
 _atom_site_occupancy
  O  O1  1  0.122187  0.305185  0.106643  1
  O  O2  1  0.377553  0.305185  0.106643  1
  O  O3  1  0.877548  0.694974  0.250078  1
  O  O4  1  0.877552  0.695050  0.189881  1
  O  O5  1  0.622182  0.694974  0.250078  1
  O  O6  1  0.622189  0.695050  0.189880  1
  O  O7  1  0.123324  0.304836  0.139552  1
  O  O8  1  0.376419  0.304835  0.139551  1
  O  O9  1  0.876412  0.695323  0.282986  1
  O  O10  1  0.876419  0.695406  0.156973  1
  O  O11  1  0.623316  0.695323  0.282986  1
  O  O12  1  0.623324  0.695406  0.156973  1
  O  O13  1  0.076234  0.625441  0.123425  1
  O  O14  1  0.423508  0.625441  0.123424  1
  O  O15  1  0.923501  0.374717  0.266860  1
  O  O16  1  0.923509  0.374795  0.173101  1
  O  O17  1  0.576227  0.374717  0.266859  1
  O  O18  1  0.576234  0.374796  0.173100  1
  O  O19  1  0.249871  0.490454  0.122953  1
  O  O20  1  0.749864  0.509704  0.266388  1
  O  O21  1  0.749871  0.509781  0.173570  1
  O  O22  1  0.079484  0.951396  0.106975  1
  O  O23  1  0.420258  0.951396  0.106975  1
  O  O24  1  0.920252  0.048763  0.250410  1
  O  O25  1  0.920259  0.048837  0.189552  1
  O  O26  1  0.579478  0.048763  0.250409  1
  O  O27  1  0.579482  0.048838  0.189551  1
  O  O28  1  0.249870  0.064643  0.098040  1
  O  O29  1  0.749866  0.935515  0.241474  1
  O  O30  1  0.749870  0.935587  0.198486  1
  O  O31  1  0.113167  0.121381  0.076545  1
  O  O32  1  0.386569  0.121381  0.076545  1
  O  O33  1  0.886569  0.878778  0.219980  1
  O  O34  1  0.613167  0.878778  0.219980  1
  O  O35  1  0.249864  0.108328  0.283864  1
  O  O36  1  0.249872  0.108426  0.156096  1
  O  O37  1  0.749872  0.891831  0.140429  1
  O  O38  1  0.111626  0.945285  0.139069  1
  O  O39  1  0.388117  0.945284  0.139069  1
  O  O40  1  0.888110  0.054874  0.282504  1
  O  O41  1  0.888119  0.054957  0.157457  1
  O  O42  1  0.611619  0.054874  0.282503  1
  O  O43  1  0.611624  0.054956  0.157456  1
  O  O44  1  0.059461  0.127490  0.273715  1
  O  O45  1  0.059470  0.127579  0.166246  1
  O  O46  1  0.440267  0.127490  0.273714  1
  O  O47  1  0.440273  0.127579  0.166245  1
  O  O48  1  0.940275  0.872669  0.130281  1
  O  O49  1  0.559468  0.872669  0.130280  1
  O  O50  1  0.122184  0.305109  0.333315  1
  O  O51  1  0.122187  0.305185  0.393512  1
  O  O52  1  0.377546  0.305109  0.333314  1
  O  O53  1  0.377553  0.305185  0.393512  1
  O  O54  1  0.877548  0.694974  0.536947  1
  O  O55  1  0.877552  0.695050  0.476749  1
  O  O56  1  0.622182  0.694974  0.536946  1
  O  O57  1  0.622189  0.695050  0.476749  1
  O  O58  1  0.123317  0.304753  0.300407  1
  O  O59  1  0.123324  0.304836  0.426420  1
  O  O60  1  0.376411  0.304753  0.300407  1
  O  O61  1  0.376419  0.304835  0.426420  1
  O  O62  1  0.876412  0.695323  0.569855  1
  O  O63  1  0.876419  0.695406  0.443842  1
  O  O64  1  0.623316  0.695323  0.569854  1
  O  O65  1  0.623324  0.695406  0.443841  1
  O  O66  1  0.076227  0.625363  0.316535  1
  O  O67  1  0.076234  0.625441  0.410294  1
  O  O68  1  0.423502  0.625363  0.316535  1
  O  O69  1  0.423508  0.625441  0.410293  1
  O  O70  1  0.923501  0.374717  0.553728  1
  O  O71  1  0.923509  0.374795  0.459970  1
  O  O72  1  0.576227  0.374717  0.553728  1
  O  O73  1  0.576234  0.374796  0.459969  1
  O  O74  1  0.249864  0.490378  0.317005  1
  O  O75  1  0.249871  0.490454  0.409822  1
  O  O76  1  0.749864  0.509704  0.553257  1
  O  O77  1  0.749871  0.509781  0.460439  1
  O  O78  1  0.079476  0.951321  0.332986  1
  O  O79  1  0.079484  0.951396  0.393844  1
  O  O80  1  0.420253  0.951321  0.332985  1
  O  O81  1  0.420258  0.951396  0.393844  1
  O  O82  1  0.920252  0.048763  0.537278  1
  O  O83  1  0.920259  0.048837  0.476420  1
  O  O84  1  0.579478  0.048763  0.537278  1
  O  O85  1  0.579482  0.048838  0.476420  1
  O  O86  1  0.249866  0.064571  0.341920  1
  O  O87  1  0.249870  0.064643  0.384909  1
  O  O88  1  0.749866  0.935515  0.528343  1
  O  O89  1  0.749870  0.935587  0.485355  1
  O  O90  1  0.113167  0.121381  0.363414  1
  O  O91  1  0.386569  0.121381  0.363414  1
  O  O92  1  0.886569  0.878778  0.506849  1
  O  O93  1  0.613167  0.878778  0.506848  1
  O  O94  1  0.249864  0.108328  0.570733  1
  O  O95  1  0.249872  0.108426  0.442965  1
  O  O96  1  0.749864  0.891733  0.299531  1
  O  O97  1  0.749872  0.891831  0.427298  1
  O  O98  1  0.111617  0.945202  0.300891  1
  O  O99  1  0.111626  0.945285  0.425938  1
  O  O100  1  0.388112  0.945203  0.300891  1
  O  O101  1  0.388117  0.945284  0.425938  1
  O  O102  1  0.888110  0.054874  0.569373  1
  O  O103  1  0.888119  0.054957  0.444326  1
  O  O104  1  0.611619  0.054874  0.569372  1
  O  O105  1  0.611624  0.054956  0.444325  1
  O  O106  1  0.059461  0.127490  0.560584  1
  O  O107  1  0.059470  0.127579  0.453114  1
  O  O108  1  0.440267  0.127490  0.560583  1
  O  O109  1  0.440273  0.127579  0.453114  1
  O  O110  1  0.940266  0.872579  0.309680  1
  O  O111  1  0.940275  0.872669  0.417149  1
  O  O112  1  0.559463  0.872580  0.309679  1
  O  O113  1  0.559468  0.872669  0.417149  1
  O  O114  1  0.122184  0.305109  0.620184  1
  O  O115  1  0.122187  0.305185  0.680381  1
  O  O116  1  0.377546  0.305109  0.620183  1
  O  O117  1  0.377553  0.305185  0.680381  1
  O  O118  1  0.877552  0.695050  0.763618  1
  O  O119  1  0.622189  0.695050  0.763618  1
  O  O120  1  0.123317  0.304753  0.587276  1
  O  O121  1  0.123324  0.304836  0.713289  1
  O  O122  1  0.376411  0.304753  0.587276  1
  O  O123  1  0.376419  0.304835  0.713289  1
  O  O124  1  0.876419  0.695406  0.730710  1
  O  O125  1  0.623324  0.695406  0.730710  1
  O  O126  1  0.076227  0.625363  0.603404  1
  O  O127  1  0.076234  0.625441  0.697163  1
  O  O128  1  0.423502  0.625363  0.603403  1
  O  O129  1  0.423508  0.625441  0.697162  1
  O  O130  1  0.923509  0.374795  0.746838  1
  O  O131  1  0.576234  0.374796  0.746838  1
  O  O132  1  0.249864  0.490378  0.603873  1
  O  O133  1  0.249871  0.490454  0.696691  1
  O  O134  1  0.749871  0.509781  0.747308  1
  O  O135  1  0.079476  0.951321  0.619855  1
  O  O136  1  0.079484  0.951396  0.680713  1
  O  O137  1  0.420253  0.951321  0.619854  1
  O  O138  1  0.420258  0.951396  0.680712  1
  O  O139  1  0.920259  0.048837  0.763289  1
  O  O140  1  0.579482  0.048838  0.763289  1
  O  O141  1  0.249866  0.064571  0.628789  1
  O  O142  1  0.249870  0.064643  0.671777  1
  O  O143  1  0.749870  0.935587  0.772223  1
  O  O144  1  0.113167  0.121381  0.650283  1
  O  O145  1  0.386569  0.121381  0.650283  1
  O  O146  1  0.886569  0.878778  0.793717  1
  O  O147  1  0.613167  0.878778  0.793717  1
  O  O148  1  0.249872  0.108426  0.729834  1
  O  O149  1  0.749864  0.891733  0.586399  1
  O  O150  1  0.749872  0.891831  0.714167  1
  O  O151  1  0.111617  0.945202  0.587760  1
  O  O152  1  0.111626  0.945285  0.712807  1
  O  O153  1  0.388112  0.945203  0.587760  1
  O  O154  1  0.388117  0.945284  0.712806  1
  O  O155  1  0.888119  0.054957  0.731195  1
  O  O156  1  0.611624  0.054956  0.731194  1
  O  O157  1  0.059470  0.127579  0.739983  1
  O  O158  1  0.440273  0.127579  0.739983  1
  O  O159  1  0.940266  0.872579  0.596549  1
  O  O160  1  0.940275  0.872669  0.704018  1
  O  O161  1  0.559463  0.872580  0.596548  1
  O  O162  1  0.559468  0.872669  0.704018  1
  Si  Si163  1  0.138694  0.437017  0.123154  1
  Si  Si164  1  0.361048  0.437018  0.123154  1
  Si  Si165  1  0.861041  0.563142  0.266588  1
  Si  Si166  1  0.861048  0.563218  0.173370  1
  Si  Si167  1  0.638687  0.563141  0.266588  1
  Si  Si168  1  0.638694  0.563218  0.173370  1
  Si  Si169  1  0.137812  0.109414  0.096532  1
  Si  Si170  1  0.361927  0.109413  0.096532  1
  Si  Si171  1  0.861923  0.890745  0.239966  1
  Si  Si172  1  0.861927  0.890811  0.199994  1
  Si  Si173  1  0.637808  0.890746  0.239966  1
  Si  Si174  1  0.637812  0.890811  0.199993  1
  Si  Si175  1  0.138229  0.120354  0.288726  1
  Si  Si176  1  0.138236  0.120446  0.151234  1
  Si  Si177  1  0.361500  0.120355  0.288726  1
  Si  Si178  1  0.361507  0.120445  0.151234  1
  Si  Si179  1  0.861507  0.879804  0.145292  1
  Si  Si180  1  0.638236  0.879804  0.145291  1
  Si  Si181  1  0.049833  0.845098  0.124336  1
  Si  Si182  1  0.449909  0.845098  0.124336  1
  Si  Si183  1  0.949902  0.155061  0.267770  1
  Si  Si184  1  0.949911  0.155139  0.172191  1
  Si  Si185  1  0.549826  0.155060  0.267770  1
  Si  Si186  1  0.549831  0.155139  0.172190  1
  Si  Si187  1  0.138687  0.436941  0.316805  1
  Si  Si188  1  0.138694  0.437017  0.410023  1
  Si  Si189  1  0.361041  0.436940  0.316804  1
  Si  Si190  1  0.361048  0.437018  0.410022  1
  Si  Si191  1  0.861041  0.563142  0.553457  1
  Si  Si192  1  0.861048  0.563218  0.460239  1
  Si  Si193  1  0.638687  0.563141  0.553457  1
  Si  Si194  1  0.638694  0.563218  0.460239  1
  Si  Si195  1  0.137808  0.109348  0.343428  1
  Si  Si196  1  0.137812  0.109414  0.383401  1
  Si  Si197  1  0.361923  0.109348  0.343427  1
  Si  Si198  1  0.361927  0.109413  0.383400  1
  Si  Si199  1  0.861923  0.890745  0.526835  1
  Si  Si200  1  0.861927  0.890811  0.486862  1
  Si  Si201  1  0.637808  0.890746  0.526835  1
  Si  Si202  1  0.637812  0.890811  0.486862  1
  Si  Si203  1  0.138229  0.120354  0.575595  1
  Si  Si204  1  0.138236  0.120446  0.438103  1
  Si  Si205  1  0.361500  0.120355  0.575594  1
  Si  Si206  1  0.361507  0.120445  0.438102  1
  Si  Si207  1  0.861499  0.879713  0.294668  1
  Si  Si208  1  0.861507  0.879804  0.432161  1
  Si  Si209  1  0.638229  0.879713  0.294668  1
  Si  Si210  1  0.638236  0.879804  0.432160  1
  Si  Si211  1  0.049824  0.845020  0.315625  1
  Si  Si212  1  0.049833  0.845098  0.411205  1
  Si  Si213  1  0.449905  0.845019  0.315624  1
  Si  Si214  1  0.449909  0.845098  0.411205  1
  Si  Si215  1  0.949902  0.155061  0.554639  1
  Si  Si216  1  0.949911  0.155139  0.459059  1
  Si  Si217  1  0.549826  0.155060  0.554639  1
  Si  Si218  1  0.549831  0.155139  0.459059  1
  Si  Si219  1  0.138687  0.436941  0.603674  1
  Si  Si220  1  0.138694  0.437017  0.696891  1
  Si  Si221  1  0.361041  0.436940  0.603673  1
  Si  Si222  1  0.361048  0.437018  0.696891  1
  Si  Si223  1  0.861048  0.563218  0.747108  1
  Si  Si224  1  0.638694  0.563218  0.747108  1
  Si  Si225  1  0.137808  0.109348  0.630297  1
  Si  Si226  1  0.137812  0.109414  0.670269  1
  Si  Si227  1  0.361923  0.109348  0.630296  1
  Si  Si228  1  0.361927  0.109413  0.670269  1
  Si  Si229  1  0.861927  0.890811  0.773731  1
  Si  Si230  1  0.637812  0.890811  0.773731  1
  Si  Si231  1  0.138236  0.120446  0.724972  1
  Si  Si232  1  0.361507  0.120445  0.724971  1
  Si  Si233  1  0.861499  0.879713  0.581537  1
  Si  Si234  1  0.861507  0.879804  0.719029  1
  Si  Si235  1  0.638229  0.879713  0.581537  1
  Si  Si236  1  0.638236  0.879804  0.719029  1
  Si  Si237  1  0.049824  0.845020  0.602494  1
  Si  Si238  1  0.049833  0.845098  0.698074  1
  Si  Si239  1  0.449905  0.845019  0.602493  1
  Si  Si240  1  0.449909  0.845098  0.698073  1
  Si  Si241  1  0.949911  0.155139  0.745928  1
  Si  Si242  1  0.549831  0.155139  0.745928  1
  H  H243  1  0.113167  0.121381  0.064869  1
  H  H244  1  0.386569  0.121381  0.064869  1
  H  H245  1  0.886569  0.878778  0.805394  1
  H  H246  1  0.613167  0.878778  0.805393  1
