# generated using pymatgen
data_Si8H2O17
_symmetry_space_group_name_H-M   'P 1'
_cell_length_a   14.21019635
_cell_length_b   13.24854446
_cell_length_c   32.89146091
_cell_angle_alpha   90.00000000
_cell_angle_beta   107.23900000
_cell_angle_gamma   90.00000000
_symmetry_Int_Tables_number   1
_chemical_formula_structural   Si8H2O17
_chemical_formula_sum   'Si32 H8 O68'
_cell_volume   5914.11455307
_cell_formula_units_Z   4
loop_
 _symmetry_equiv_pos_site_id
 _symmetry_equiv_pos_as_xyz
  1  'x, y, z'
loop_
 _atom_site_type_symbol
 _atom_site_label
 _atom_site_symmetry_multiplicity
 _atom_site_fract_x
 _atom_site_fract_y
 _atom_site_fract_z
 _atom_site_occupancy
  O  O1  1  0.174052  0.154205  0.245591  1
  O  O2  1  0.234508  0.310436  0.289902  1
  O  O3  1  0.373802  0.211229  0.273234  1
  O  O4  1  0.286105  0.136883  0.321736  1
  O  O5  1  0.013713  0.167597  0.265637  1
  O  O6  1  0.000000  0.140497  0.186549  1
  O  O7  1  0.063344  0.342598  0.296131  1
  O  O8  1  0.063509  0.657149  0.296128  1
  O  O9  1  0.180139  0.499847  0.301847  1
  O  O10  1  0.174191  0.845588  0.245570  1
  O  O11  1  0.234624  0.689261  0.289853  1
  O  O12  1  0.373919  0.788565  0.273203  1
  O  O13  1  0.286193  0.862786  0.321721  1
  O  O14  1  0.063888  0.000000  0.240444  1
  O  O15  1  0.013899  0.832137  0.265634  1
  O  O16  1  0.000000  0.859236  0.186536  1
  O  O17  1  0.734484  0.189320  0.289878  1
  O  O18  1  0.873747  0.288580  0.273204  1
  O  O19  1  0.563386  0.157166  0.296161  1
  O  O20  1  0.513762  0.332192  0.265678  1
  O  O21  1  0.673995  0.345567  0.245568  1
  O  O22  1  0.674180  0.654193  0.245570  1
  O  O23  1  0.786015  0.362838  0.321726  1
  O  O24  1  0.786221  0.636924  0.321708  1
  O  O25  1  0.563863  0.499901  0.240441  1
  O  O26  1  0.500478  0.640498  0.186528  1
  O  O27  1  0.500229  0.359236  0.186563  1
  O  O28  1  0.734647  0.810489  0.289876  1
  O  O29  1  0.873916  0.711231  0.273199  1
  O  O30  1  0.563516  0.842621  0.296132  1
  O  O31  1  0.513874  0.667648  0.265621  1
  O  O32  1  0.680170  0.000000  0.301857  1
  O  O33  1  0.266128  0.189235  0.391781  1
  O  O34  1  0.126831  0.288479  0.408444  1
  O  O35  1  0.437291  0.157124  0.385550  1
  O  O36  1  0.486910  0.332097  0.416059  1
  O  O37  1  0.000000  0.223171  0.340820  1
  O  O38  1  0.000000  0.140497  0.495127  1
  O  O39  1  0.326557  0.345531  0.436082  1
  O  O40  1  0.326745  0.654176  0.436084  1
  O  O41  1  0.214533  0.362799  0.359941  1
  O  O42  1  0.214739  0.636906  0.359923  1
  O  O43  1  0.436861  0.499833  0.441224  1
  O  O44  1  0.266293  0.810423  0.391781  1
  O  O45  1  0.127002  0.711175  0.408440  1
  O  O46  1  0.437423  0.842559  0.385522  1
  O  O47  1  0.487025  0.667532  0.416001  1
  O  O48  1  0.320653  0.000000  0.379814  1
  O  O49  1  0.000000  0.859236  0.495114  1
  O  O50  1  0.000000  0.776560  0.340824  1
  O  O51  1  0.826614  0.154166  0.436107  1
  O  O52  1  0.766153  0.310476  0.391806  1
  O  O53  1  0.626884  0.211178  0.408474  1
  O  O54  1  0.714623  0.136947  0.359952  1
  O  O55  1  0.986860  0.167580  0.416017  1
  O  O56  1  0.500335  0.276562  0.340863  1
  O  O57  1  0.937250  0.342578  0.385520  1
  O  O58  1  0.937417  0.657138  0.385519  1
  O  O59  1  0.820625  0.499885  0.379805  1
  O  O60  1  0.500478  0.640498  0.495106  1
  O  O61  1  0.500229  0.359236  0.495141  1
  O  O62  1  0.826754  0.845509  0.436084  1
  O  O63  1  0.766271  0.689293  0.391757  1
  O  O64  1  0.627004  0.788498  0.408443  1
  O  O65  1  0.714715  0.862850  0.359936  1
  O  O66  1  0.500469  0.723173  0.340818  1
  O  O67  1  0.987050  0.832149  0.416014  1
  O  O68  1  0.936884  -0.000000  0.441227  1
  Si  Si69  1  0.062765  0.116616  0.233700  1
  Si  Si70  1  0.485957  0.245346  0.292679  1
  Si  Si71  1  0.267485  0.201348  0.279620  1
  Si  Si72  1  0.173393  0.383087  0.310585  1
  Si  Si73  1  0.173542  0.616631  0.310566  1
  Si  Si74  1  0.062891  0.883145  0.233684  1
  Si  Si75  1  0.486079  0.754450  0.292639  1
  Si  Si76  1  0.267599  0.798377  0.279592  1
  Si  Si77  1  0.673432  0.116673  0.310595  1
  Si  Si78  1  0.985898  0.254431  0.292641  1
  Si  Si79  1  0.767433  0.298423  0.279598  1
  Si  Si80  1  0.562883  0.616630  0.233681  1
  Si  Si81  1  0.562709  0.383158  0.233701  1
  Si  Si82  1  0.986081  0.745324  0.292642  1
  Si  Si83  1  0.767601  0.701384  0.279592  1
  Si  Si84  1  0.673553  0.883131  0.310578  1
  Si  Si85  1  0.327257  0.116602  0.371094  1
  Si  Si86  1  0.014667  0.254391  0.389005  1
  Si  Si87  1  0.233148  0.298334  0.402056  1
  Si  Si88  1  0.438027  0.616576  0.447964  1
  Si  Si89  1  0.437851  0.383104  0.447985  1
  Si  Si90  1  0.327380  0.883062  0.371077  1
  Si  Si91  1  0.014851  0.745318  0.389006  1
  Si  Si92  1  0.233319  0.701324  0.402051  1
  Si  Si93  1  0.733200  0.201362  0.402080  1
  Si  Si94  1  0.937906  0.116588  0.447984  1
  Si  Si95  1  0.514725  0.245298  0.389043  1
  Si  Si96  1  0.827219  0.383103  0.371084  1
  Si  Si97  1  0.827370  0.616643  0.371065  1
  Si  Si98  1  0.938034  0.883116  0.447967  1
  Si  Si99  1  0.514849  0.754376  0.389004  1
  Si  Si100  1  0.733317  0.798381  0.402050  1
  H  H101  1  0.000000  0.140497  0.159186  1
  H  H102  1  0.000000  0.859236  0.159173  1
  H  H103  1  0.500478  0.640498  0.159165  1
  H  H104  1  0.500229  0.359236  0.159201  1
  H  H105  1  0.000000  0.140497  0.522490  1
  H  H106  1  -0.000000  0.859236  0.522477  1
  H  H107  1  0.500478  0.640498  0.522469  1
  H  H108  1  0.500229  0.359236  0.522504  1
