# generated using pymatgen
data_Si10H2O21
_symmetry_space_group_name_H-M   'P 1'
_cell_length_a   13.66911044
_cell_length_b   8.35476497
_cell_length_c   46.34445251
_cell_angle_alpha   90.00000000
_cell_angle_beta   120.00000000
_cell_angle_gamma   90.00000000
_symmetry_Int_Tables_number   1
_chemical_formula_structural   Si10H2O21
_chemical_formula_sum   'Si40 H8 O84'
_cell_volume   4583.55954128
_cell_formula_units_Z   4
loop_
 _symmetry_equiv_pos_site_id
 _symmetry_equiv_pos_as_xyz
  1  'x, y, z'
loop_
 _atom_site_type_symbol
 _atom_site_label
 _atom_site_symmetry_multiplicity
 _atom_site_fract_x
 _atom_site_fract_y
 _atom_site_fract_z
 _atom_site_occupancy
  O  O1  1  0.336864  0.000000  0.216400  1
  O  O2  1  0.122721  0.000000  0.276267  1
  O  O3  1  0.541704  0.000000  0.340430  1
  O  O4  1  0.662304  0.000000  0.240511  1
  O  O5  1  0.878720  0.000000  0.180335  1
  O  O6  1  0.540854  0.500109  0.276826  1
  O  O7  1  0.337987  0.500103  0.340138  1
  O  O8  1  0.121416  0.500093  0.215995  1
  O  O9  1  0.458547  0.500091  0.180685  1
  O  O10  1  0.878568  0.500110  0.240323  1
  O  O11  1  0.369501  0.248336  0.189553  1
  O  O12  1  0.000000  0.249402  0.266499  1
  O  O13  1  0.630137  0.252393  0.375405  1
  O  O14  1  0.630615  0.251808  0.266524  1
  O  O15  1  0.000000  0.250245  0.189486  1
  O  O16  1  0.369065  0.248262  0.375386  1
  O  O17  1  0.630605  0.748447  0.266537  1
  O  O18  1  0.369060  0.751896  0.375399  1
  O  O19  1  0.000000  0.749949  0.189497  1
  O  O20  1  0.369492  0.751811  0.189566  1
  O  O21  1  0.630132  0.747856  0.375418  1
  O  O22  1  0.000000  0.750808  0.266511  1
  O  O23  1  0.215169  0.250643  0.207506  1
  O  O24  1  0.214859  0.251263  0.311960  1
  O  O25  1  0.569520  0.247505  0.311970  1
  O  O26  1  0.784748  0.249706  0.248568  1
  O  O27  1  0.784424  0.248928  0.144006  1
  O  O28  1  0.430160  0.252667  0.143998  1
  O  O29  1  0.569514  0.752665  0.311983  1
  O  O30  1  0.214855  0.748952  0.311973  1
  O  O31  1  0.215158  0.749578  0.207517  1
  O  O32  1  0.430152  0.747569  0.144011  1
  O  O33  1  0.784420  0.751264  0.144018  1
  O  O34  1  0.784736  0.750476  0.248579  1
  O  O35  1  0.425769  0.250921  0.249941  1
  O  O36  1  0.148258  0.249881  0.249889  1
  O  O37  1  0.425442  0.250263  0.331633  1
  O  O38  1  0.574239  0.249562  0.206152  1
  O  O39  1  0.851358  0.250692  0.206131  1
  O  O40  1  0.425762  0.749303  0.249954  1
  O  O41  1  0.425435  0.749977  0.331646  1
  O  O42  1  0.148250  0.750265  0.249901  1
  O  O43  1  0.574231  0.750617  0.206165  1
  O  O44  1  0.851350  0.749567  0.206143  1
  O  O45  1  0.336864  0.000000  0.511263  1
  O  O46  1  0.122721  0.000000  0.571130  1
  O  O47  1  0.662304  0.000000  0.535373  1
  O  O48  1  0.878720  0.000000  0.475197  1
  O  O49  1  0.458911  0.000000  0.412187  1
  O  O50  1  0.540854  0.500109  0.571689  1
  O  O51  1  0.121416  0.500093  0.510857  1
  O  O52  1  0.458547  0.500091  0.475547  1
  O  O53  1  0.663370  0.500102  0.412104  1
  O  O54  1  0.878568  0.500110  0.535185  1
  O  O55  1  0.369501  0.248336  0.484416  1
  O  O56  1  0.000000  0.249402  0.561362  1
  O  O57  1  0.630615  0.251808  0.561386  1
  O  O58  1  0.000000  0.250245  0.484348  1
  O  O59  1  0.630605  0.748447  0.561399  1
  O  O60  1  0.000000  0.749949  0.484360  1
  O  O61  1  0.369492  0.751811  0.484428  1
  O  O62  1  0.000000  0.750808  0.561373  1
  O  O63  1  0.215169  0.250643  0.502369  1
  O  O64  1  0.214859  0.251263  0.606823  1
  O  O65  1  0.569520  0.247505  0.606832  1
  O  O66  1  0.784748  0.249706  0.543430  1
  O  O67  1  0.784424  0.248928  0.438868  1
  O  O68  1  0.430160  0.252667  0.438860  1
  O  O69  1  0.569514  0.752665  0.606846  1
  O  O70  1  0.214855  0.748952  0.606835  1
  O  O71  1  0.215158  0.749578  0.502380  1
  O  O72  1  0.430152  0.747569  0.438874  1
  O  O73  1  0.784420  0.751264  0.438880  1
  O  O74  1  0.784736  0.750476  0.543442  1
  O  O75  1  0.425769  0.250921  0.544803  1
  O  O76  1  0.148258  0.249881  0.544752  1
  O  O77  1  0.574239  0.249562  0.501014  1
  O  O78  1  0.851358  0.250692  0.500993  1
  O  O79  1  0.573890  0.249346  0.419213  1
  O  O80  1  0.425762  0.749303  0.544816  1
  O  O81  1  0.148250  0.750265  0.544763  1
  O  O82  1  0.574231  0.750617  0.501027  1
  O  O83  1  0.573883  0.750822  0.419226  1
  O  O84  1  0.851350  0.749567  0.501005  1
  Si  Si85  1  0.333424  0.186590  0.214970  1
  Si  Si86  1  0.121811  0.186649  0.277160  1
  Si  Si87  1  0.544520  0.186621  0.339640  1
  Si  Si88  1  0.666517  0.186670  0.241292  1
  Si  Si89  1  0.878023  0.186609  0.178956  1
  Si  Si90  1  0.544740  0.686671  0.277289  1
  Si  Si91  1  0.333293  0.686652  0.339593  1
  Si  Si92  1  0.121675  0.686598  0.214850  1
  Si  Si93  1  0.455270  0.686595  0.179063  1
  Si  Si94  1  0.878044  0.686676  0.241260  1
  Si  Si95  1  0.666509  0.813535  0.241302  1
  Si  Si96  1  0.878018  0.813604  0.178966  1
  Si  Si97  1  0.333416  0.813606  0.214980  1
  Si  Si98  1  0.121806  0.813543  0.277169  1
  Si  Si99  1  0.544514  0.813598  0.339651  1
  Si  Si100  1  0.455277  0.313592  0.179052  1
  Si  Si101  1  0.878052  0.313539  0.241251  1
  Si  Si102  1  0.544745  0.313545  0.277278  1
  Si  Si103  1  0.333297  0.313550  0.339583  1
  Si  Si104  1  0.121683  0.313589  0.214842  1
  Si  Si105  1  0.333424  0.186590  0.509833  1
  Si  Si106  1  0.121811  0.186649  0.572022  1
  Si  Si107  1  0.666517  0.186670  0.536155  1
  Si  Si108  1  0.878023  0.186609  0.473819  1
  Si  Si109  1  0.454950  0.186652  0.411475  1
  Si  Si110  1  0.544740  0.686671  0.572151  1
  Si  Si111  1  0.121675  0.686598  0.509713  1
  Si  Si112  1  0.455270  0.686595  0.473925  1
  Si  Si113  1  0.666299  0.686597  0.411511  1
  Si  Si114  1  0.878044  0.686676  0.536122  1
  Si  Si115  1  0.666509  0.813535  0.536164  1
  Si  Si116  1  0.878018  0.813604  0.473829  1
  Si  Si117  1  0.454944  0.813534  0.411486  1
  Si  Si118  1  0.333416  0.813606  0.509842  1
  Si  Si119  1  0.121806  0.813543  0.572032  1
  Si  Si120  1  0.455277  0.313592  0.473915  1
  Si  Si121  1  0.666303  0.313605  0.411502  1
  Si  Si122  1  0.878052  0.313539  0.536113  1
  Si  Si123  1  0.544745  0.313545  0.572141  1
  Si  Si124  1  0.121683  0.313589  0.509704  1
  H  H125  1  0.784424  0.248928  0.124586  1
  H  H126  1  0.430160  0.252667  0.124578  1
  H  H127  1  0.430152  0.747569  0.124591  1
  H  H128  1  0.784420  0.751264  0.124598  1
  H  H129  1  0.214859  0.251263  0.626243  1
  H  H130  1  0.569520  0.247505  0.626252  1
  H  H131  1  0.569514  0.752665  0.626266  1
  H  H132  1  0.214855  0.748952  0.626255  1
