# generated using pymatgen
data_Si19(HO10)4
_symmetry_space_group_name_H-M   'P 1'
_cell_length_a   8.49308350
_cell_length_b   14.48572599
_cell_length_c   36.83444706
_cell_angle_alpha   90.00000000
_cell_angle_beta   90.00000000
_cell_angle_gamma   90.00000000
_symmetry_Int_Tables_number   1
_chemical_formula_structural   Si19(HO10)4
_chemical_formula_sum   'Si38 H8 O80'
_cell_volume   4531.68604783
_cell_formula_units_Z   2
loop_
 _symmetry_equiv_pos_site_id
 _symmetry_equiv_pos_as_xyz
  1  'x, y, z'
loop_
 _atom_site_type_symbol
 _atom_site_label
 _atom_site_symmetry_multiplicity
 _atom_site_fract_x
 _atom_site_fract_y
 _atom_site_fract_z
 _atom_site_occupancy
  O  O1  1  0.589889  0.319704  0.160178  1
  O  O2  1  0.114822  0.319703  0.228218  1
  O  O3  1  0.409899  0.319706  0.337758  1
  O  O4  1  0.884964  0.319707  0.269720  1
  O  O5  1  0.589887  0.819703  0.337756  1
  O  O6  1  0.114820  0.819703  0.269716  1
  O  O7  1  0.409897  0.819707  0.160176  1
  O  O8  1  0.884963  0.819706  0.228214  1
  O  O9  1  0.409893  0.680267  0.337756  1
  O  O10  1  0.884959  0.680268  0.269717  1
  O  O11  1  0.589883  0.680265  0.160177  1
  O  O12  1  0.114816  0.680264  0.228215  1
  O  O13  1  0.409896  0.180268  0.160178  1
  O  O14  1  0.884960  0.180267  0.228218  1
  O  O15  1  0.589885  0.180264  0.337758  1
  O  O16  1  0.114819  0.180264  0.269720  1
  O  O17  1  0.416842  -0.000000  0.180876  1
  O  O18  1  0.204586  -0.000000  0.268116  1
  O  O19  1  0.582939  0.000000  0.317059  1
  O  O20  1  0.795196  0.000000  0.229818  1
  O  O21  1  0.416842  0.499987  0.317059  1
  O  O22  1  0.204586  0.499982  0.229818  1
  O  O23  1  0.582939  0.499984  0.180876  1
  O  O24  1  0.795195  0.499987  0.268116  1
  O  O25  1  0.317576  0.119939  0.225648  1
  O  O26  1  0.398749  0.119937  0.291006  1
  O  O27  1  0.682202  0.119939  0.272289  1
  O  O28  1  0.601030  0.119941  0.206931  1
  O  O29  1  0.317576  0.619939  0.272287  1
  O  O30  1  0.398749  0.619937  0.206928  1
  O  O31  1  0.682199  0.619940  0.225646  1
  O  O32  1  0.601026  0.619941  0.291004  1
  O  O33  1  0.682204  0.880031  0.272287  1
  O  O34  1  0.601031  0.880034  0.206928  1
  O  O35  1  0.317580  0.880032  0.225645  1
  O  O36  1  0.398754  0.880029  0.291004  1
  O  O37  1  0.682207  0.380032  0.225648  1
  O  O38  1  0.601034  0.380034  0.291006  1
  O  O39  1  0.317581  0.380031  0.272289  1
  O  O40  1  0.398753  0.380030  0.206931  1
  O  O41  1  0.589889  0.319704  0.390759  1
  O  O42  1  0.114822  0.319703  0.458798  1
  O  O43  1  0.409899  0.319706  0.568339  1
  O  O44  1  0.884964  0.319707  0.500300  1
  O  O45  1  0.589887  0.819703  0.568336  1
  O  O46  1  0.114820  0.819703  0.500297  1
  O  O47  1  0.409897  0.819707  0.390757  1
  O  O48  1  0.884963  0.819706  0.458795  1
  O  O49  1  0.409893  0.680267  0.568337  1
  O  O50  1  0.884959  0.680268  0.500297  1
  O  O51  1  0.589883  0.680265  0.390757  1
  O  O52  1  0.114816  0.680264  0.458795  1
  O  O53  1  0.409896  0.180268  0.390759  1
  O  O54  1  0.884960  0.180267  0.458798  1
  O  O55  1  0.589885  0.180264  0.568339  1
  O  O56  1  0.114819  0.180264  0.500301  1
  O  O57  1  0.416842  -0.000000  0.411456  1
  O  O58  1  0.204586  -0.000000  0.498697  1
  O  O59  1  0.582939  -0.000000  0.547639  1
  O  O60  1  0.795196  -0.000000  0.460398  1
  O  O61  1  0.416842  0.499987  0.547639  1
  O  O62  1  0.204586  0.499982  0.460398  1
  O  O63  1  0.582939  0.499984  0.411456  1
  O  O64  1  0.795195  0.499987  0.498697  1
  O  O65  1  0.317576  0.119939  0.456229  1
  O  O66  1  0.398749  0.119937  0.521587  1
  O  O67  1  0.682202  0.119939  0.502869  1
  O  O68  1  0.601030  0.119941  0.437511  1
  O  O69  1  0.317576  0.619939  0.502868  1
  O  O70  1  0.398749  0.619937  0.437509  1
  O  O71  1  0.682199  0.619940  0.456226  1
  O  O72  1  0.601026  0.619941  0.521585  1
  O  O73  1  0.682204  0.880031  0.502867  1
  O  O74  1  0.601031  0.880034  0.437508  1
  O  O75  1  0.317580  0.880032  0.456226  1
  O  O76  1  0.398754  0.880029  0.521584  1
  O  O77  1  0.682207  0.380032  0.456228  1
  O  O78  1  0.601034  0.380034  0.521587  1
  O  O79  1  0.317581  0.380031  0.502869  1
  O  O80  1  0.398753  0.380030  0.437511  1
  Si  Si81  1  0.428265  0.105954  0.191862  1
  Si  Si82  1  0.252226  0.105950  0.265483  1
  Si  Si83  1  0.571513  0.105950  0.306075  1
  Si  Si84  1  0.747553  0.105953  0.232453  1
  Si  Si85  1  0.428264  0.605952  0.306073  1
  Si  Si86  1  0.252224  0.605950  0.232451  1
  Si  Si87  1  0.571511  0.605951  0.191860  1
  Si  Si88  1  0.747552  0.605954  0.265481  1
  Si  Si89  1  0.571516  0.894017  0.306072  1
  Si  Si90  1  0.747555  0.894021  0.232451  1
  Si  Si91  1  0.428268  0.894021  0.191860  1
  Si  Si92  1  0.252228  0.894018  0.265481  1
  Si  Si93  1  0.571517  0.394018  0.191862  1
  Si  Si94  1  0.747557  0.394021  0.265483  1
  Si  Si95  1  0.428269  0.394020  0.306075  1
  Si  Si96  1  0.252230  0.394017  0.232453  1
  Si  Si97  1  0.000000  0.249985  0.248969  1
  Si  Si98  1  0.000000  0.749985  0.248965  1
  Si  Si99  1  0.428265  0.105954  0.422442  1
  Si  Si100  1  0.252226  0.105950  0.496064  1
  Si  Si101  1  0.571513  0.105950  0.536655  1
  Si  Si102  1  0.747553  0.105953  0.463034  1
  Si  Si103  1  0.428264  0.605952  0.536653  1
  Si  Si104  1  0.252224  0.605950  0.463032  1
  Si  Si105  1  0.571511  0.605951  0.422440  1
  Si  Si106  1  0.747552  0.605954  0.496062  1
  Si  Si107  1  0.571516  0.894017  0.536653  1
  Si  Si108  1  0.747555  0.894021  0.463031  1
  Si  Si109  1  0.428268  0.894021  0.422440  1
  Si  Si110  1  0.252228  0.894018  0.496061  1
  Si  Si111  1  0.571517  0.394018  0.422442  1
  Si  Si112  1  0.747557  0.394021  0.496064  1
  Si  Si113  1  0.428269  0.394020  0.536655  1
  Si  Si114  1  0.252230  0.394017  0.463033  1
  Si  Si115  1  0.499893  0.249985  0.364258  1
  Si  Si116  1  0.000000  0.249985  0.479550  1
  Si  Si117  1  0.499890  0.749985  0.364257  1
  Si  Si118  1  -0.000000  0.749985  0.479546  1
  H  H119  1  0.589889  0.319704  0.135745  1
  H  H120  1  0.409897  0.819707  0.135743  1
  H  H121  1  0.589883  0.680265  0.135743  1
  H  H122  1  0.409896  0.180268  0.135745  1
  H  H123  1  0.409899  0.319706  0.592772  1
  H  H124  1  0.589887  0.819703  0.592770  1
  H  H125  1  0.409893  0.680267  0.592770  1
  H  H126  1  0.589885  0.180264  0.592772  1
