# generated using pymatgen
data_Si8H2O17
_symmetry_space_group_name_H-M   'P 1'
_cell_length_a   13.78651735
_cell_length_b   6.96043577
_cell_length_c   32.85576187
_cell_angle_alpha   90.00000000
_cell_angle_beta   90.00000000
_cell_angle_gamma   90.00000000
_symmetry_Int_Tables_number   1
_chemical_formula_structural   Si8H2O17
_chemical_formula_sum   'Si16 H4 O34'
_cell_volume   3152.84444512
_cell_formula_units_Z   2
loop_
 _symmetry_equiv_pos_site_id
 _symmetry_equiv_pos_as_xyz
  1  'x, y, z'
loop_
 _atom_site_type_symbol
 _atom_site_label
 _atom_site_symmetry_multiplicity
 _atom_site_fract_x
 _atom_site_fract_y
 _atom_site_fract_z
 _atom_site_occupancy
  O  O1  1  0.122187  0.305185  0.250182  1
  O  O2  1  0.377553  0.305185  0.250182  1
  O  O3  1  0.877552  0.695050  0.445455  1
  O  O4  1  0.622189  0.695050  0.445454  1
  O  O5  1  0.123324  0.304836  0.327384  1
  O  O6  1  0.376419  0.304835  0.327383  1
  O  O7  1  0.876419  0.695406  0.368254  1
  O  O8  1  0.623324  0.695406  0.368253  1
  O  O9  1  0.076234  0.625441  0.289552  1
  O  O10  1  0.423508  0.625441  0.289550  1
  O  O11  1  0.923509  0.374795  0.406090  1
  O  O12  1  0.576234  0.374796  0.406089  1
  O  O13  1  0.249871  0.490454  0.288445  1
  O  O14  1  0.749871  0.509781  0.407192  1
  O  O15  1  0.079484  0.951396  0.250960  1
  O  O16  1  0.420258  0.951396  0.250960  1
  O  O17  1  0.920259  0.048837  0.444683  1
  O  O18  1  0.579482  0.048838  0.444682  1
  O  O19  1  0.249870  0.064643  0.229999  1
  O  O20  1  0.749870  0.935587  0.465642  1
  O  O21  1  0.113167  0.121381  0.179573  1
  O  O22  1  0.386569  0.121381  0.179573  1
  O  O23  1  0.886569  0.878778  0.516067  1
  O  O24  1  0.613167  0.878778  0.516066  1
  O  O25  1  0.249872  0.108426  0.366197  1
  O  O26  1  0.749872  0.891831  0.329443  1
  O  O27  1  0.111626  0.945285  0.326253  1
  O  O28  1  0.388117  0.945284  0.326251  1
  O  O29  1  0.888119  0.054957  0.369390  1
  O  O30  1  0.611624  0.054956  0.369389  1
  O  O31  1  0.059470  0.127579  0.390008  1
  O  O32  1  0.440273  0.127579  0.390006  1
  O  O33  1  0.940275  0.872669  0.305635  1
  O  O34  1  0.559468  0.872669  0.305633  1
  Si  Si35  1  0.138694  0.437017  0.288916  1
  Si  Si36  1  0.361048  0.437018  0.288915  1
  Si  Si37  1  0.861048  0.563218  0.406722  1
  Si  Si38  1  0.638694  0.563218  0.406721  1
  Si  Si39  1  0.137812  0.109414  0.226461  1
  Si  Si40  1  0.361927  0.109413  0.226460  1
  Si  Si41  1  0.861927  0.890811  0.469180  1
  Si  Si42  1  0.637812  0.890811  0.469178  1
  Si  Si43  1  0.138236  0.120446  0.354791  1
  Si  Si44  1  0.361507  0.120445  0.354790  1
  Si  Si45  1  0.861507  0.879804  0.340851  1
  Si  Si46  1  0.638236  0.879804  0.340849  1
  Si  Si47  1  0.049833  0.845098  0.291689  1
  Si  Si48  1  0.449909  0.845098  0.291688  1
  Si  Si49  1  0.949911  0.155139  0.403954  1
  Si  Si50  1  0.549831  0.155139  0.403953  1
  H  H51  1  0.113167  0.121381  0.152181  1
  H  H52  1  0.386569  0.121381  0.152180  1
  H  H53  1  0.886569  0.878778  0.543459  1
  H  H54  1  0.613167  0.878778  0.543458  1
