# generated using pymatgen
data_Si16H2O33
_symmetry_space_group_name_H-M   'P 1'
_cell_length_a   14.21019635
_cell_length_b   13.24854446
_cell_length_c   43.04104171
_cell_angle_alpha   90.00000000
_cell_angle_beta   107.23900000
_cell_angle_gamma   90.00000000
_symmetry_Int_Tables_number   1
_chemical_formula_structural   Si16H2O33
_chemical_formula_sum   'Si64 H8 O132'
_cell_volume   7739.08011714
_cell_formula_units_Z   4
loop_
 _symmetry_equiv_pos_site_id
 _symmetry_equiv_pos_as_xyz
  1  'x, y, z'
loop_
 _atom_site_type_symbol
 _atom_site_label
 _atom_site_symmetry_multiplicity
 _atom_site_fract_x
 _atom_site_fract_y
 _atom_site_fract_z
 _atom_site_occupancy
  O  O1  1  0.174052  0.154205  0.187678  1
  O  O2  1  0.234508  0.310436  0.221540  1
  O  O3  1  0.373802  0.211229  0.208802  1
  O  O4  1  0.286105  0.136883  0.245867  1
  O  O5  1  0.013713  0.167597  0.202996  1
  O  O6  1  0.000000  0.140497  0.142559  1
  O  O7  1  0.063344  0.342598  0.226300  1
  O  O8  1  0.063509  0.657149  0.226298  1
  O  O9  1  0.180139  0.499847  0.230668  1
  O  O10  1  0.174191  0.845588  0.187662  1
  O  O11  1  0.234624  0.689261  0.221502  1
  O  O12  1  0.373919  0.788565  0.208779  1
  O  O13  1  0.286193  0.862786  0.245855  1
  O  O14  1  0.063888  0.000000  0.183744  1
  O  O15  1  0.013899  0.832137  0.202995  1
  O  O16  1  -0.000000  0.859236  0.142549  1
  O  O17  1  0.734484  0.189320  0.221521  1
  O  O18  1  0.873747  0.288580  0.208779  1
  O  O19  1  0.563386  0.157166  0.226323  1
  O  O20  1  0.513762  0.332192  0.203028  1
  O  O21  1  0.673995  0.345567  0.187660  1
  O  O22  1  0.674180  0.654193  0.187662  1
  O  O23  1  0.786015  0.362838  0.245859  1
  O  O24  1  0.786221  0.636924  0.245846  1
  O  O25  1  0.563863  0.499901  0.183742  1
  O  O26  1  0.500478  0.640498  0.142543  1
  O  O27  1  0.500229  0.359236  0.142569  1
  O  O28  1  0.734647  0.810489  0.221520  1
  O  O29  1  0.873916  0.711231  0.208776  1
  O  O30  1  0.563516  0.842621  0.226301  1
  O  O31  1  0.513874  0.667648  0.202984  1
  O  O32  1  0.680170  -0.000000  0.230676  1
  O  O33  1  0.174052  0.154205  0.423490  1
  O  O34  1  0.266128  0.189235  0.299394  1
  O  O35  1  0.234508  0.310436  0.457351  1
  O  O36  1  0.126831  0.288479  0.312128  1
  O  O37  1  0.373802  0.211229  0.444614  1
  O  O38  1  0.286105  0.136883  0.481679  1
  O  O39  1  0.437291  0.157124  0.294633  1
  O  O40  1  0.486910  0.332097  0.317947  1
  O  O41  1  0.013713  0.167597  0.438808  1
  O  O42  1  0.000000  0.223171  0.260450  1
  O  O43  1  0.000000  0.140497  0.378370  1
  O  O44  1  0.326557  0.345531  0.333249  1
  O  O45  1  0.326745  0.654176  0.333251  1
  O  O46  1  0.214533  0.362799  0.275063  1
  O  O47  1  0.214739  0.636906  0.275049  1
  O  O48  1  0.063344  0.342598  0.462111  1
  O  O49  1  0.063509  0.657149  0.462110  1
  O  O50  1  0.180139  0.499847  0.466480  1
  O  O51  1  0.436861  0.499833  0.337178  1
  O  O52  1  0.174191  0.845588  0.423474  1
  O  O53  1  0.234624  0.689261  0.457314  1
  O  O54  1  0.266293  0.810423  0.299394  1
  O  O55  1  0.373919  0.788565  0.444590  1
  O  O56  1  0.127002  0.711175  0.312125  1
  O  O57  1  0.286193  0.862786  0.481667  1
  O  O58  1  0.437423  0.842559  0.294611  1
  O  O59  1  0.063888  0.000000  0.419556  1
  O  O60  1  0.013899  0.832137  0.438806  1
  O  O61  1  0.487025  0.667532  0.317903  1
  O  O62  1  0.320653  0.000000  0.290250  1
  O  O63  1  0.000000  0.859236  0.378360  1
  O  O64  1  0.000000  0.776560  0.260454  1
  O  O65  1  0.826614  0.154166  0.333268  1
  O  O66  1  0.734484  0.189320  0.457333  1
  O  O67  1  0.766153  0.310476  0.299413  1
  O  O68  1  0.873747  0.288580  0.444591  1
  O  O69  1  0.626884  0.211178  0.312151  1
  O  O70  1  0.714623  0.136947  0.275071  1
  O  O71  1  0.563386  0.157166  0.462134  1
  O  O72  1  0.513762  0.332192  0.438840  1
  O  O73  1  0.986860  0.167580  0.317915  1
  O  O74  1  0.500335  0.276562  0.260484  1
  O  O75  1  0.673995  0.345567  0.423472  1
  O  O76  1  0.674180  0.654193  0.423474  1
  O  O77  1  0.786015  0.362838  0.481671  1
  O  O78  1  0.786221  0.636924  0.481657  1
  O  O79  1  0.937250  0.342578  0.294610  1
  O  O80  1  0.937417  0.657138  0.294609  1
  O  O81  1  0.820625  0.499885  0.290243  1
  O  O82  1  0.563863  0.499901  0.419554  1
  O  O83  1  0.500478  0.640498  0.378354  1
  O  O84  1  0.500229  0.359236  0.378381  1
  O  O85  1  0.826754  0.845509  0.333250  1
  O  O86  1  0.766271  0.689293  0.299376  1
  O  O87  1  0.734647  0.810489  0.457332  1
  O  O88  1  0.627004  0.788498  0.312127  1
  O  O89  1  0.873916  0.711231  0.444587  1
  O  O90  1  0.714715  0.862850  0.275059  1
  O  O91  1  0.563516  0.842621  0.462112  1
  O  O92  1  0.500469  0.723173  0.260449  1
  O  O93  1  0.987050  0.832149  0.317913  1
  O  O94  1  0.513874  0.667648  0.438796  1
  O  O95  1  0.936884  0.000000  0.337181  1
  O  O96  1  0.680170  0.000000  0.466487  1
  O  O97  1  0.266128  0.189235  0.535206  1
  O  O98  1  0.126831  0.288479  0.547940  1
  O  O99  1  0.437291  0.157124  0.530444  1
  O  O100  1  0.486910  0.332097  0.553759  1
  O  O101  1  0.000000  0.223171  0.496262  1
  O  O102  1  0.000000  0.140497  0.614182  1
  O  O103  1  0.326557  0.345531  0.569061  1
  O  O104  1  0.326745  0.654176  0.569062  1
  O  O105  1  0.214533  0.362799  0.510875  1
  O  O106  1  0.214739  0.636906  0.510861  1
  O  O107  1  0.436861  0.499833  0.572990  1
  O  O108  1  0.266293  0.810423  0.535206  1
  O  O109  1  0.127002  0.711175  0.547937  1
  O  O110  1  0.437423  0.842559  0.530423  1
  O  O111  1  0.487025  0.667532  0.553715  1
  O  O112  1  0.320653  0.000000  0.526061  1
  O  O113  1  0.000000  0.859236  0.614172  1
  O  O114  1  0.000000  0.776560  0.496266  1
  O  O115  1  0.826614  0.154166  0.569079  1
  O  O116  1  0.766153  0.310476  0.535225  1
  O  O117  1  0.626884  0.211178  0.547963  1
  O  O118  1  0.714623  0.136947  0.510883  1
  O  O119  1  0.986860  0.167580  0.553727  1
  O  O120  1  0.500335  0.276562  0.496295  1
  O  O121  1  0.937250  0.342578  0.530421  1
  O  O122  1  0.937417  0.657138  0.530420  1
  O  O123  1  0.820625  0.499885  0.526054  1
  O  O124  1  0.500478  0.640498  0.614166  1
  O  O125  1  0.500229  0.359236  0.614193  1
  O  O126  1  0.826754  0.845509  0.569062  1
  O  O127  1  0.766271  0.689293  0.535188  1
  O  O128  1  0.627004  0.788498  0.547939  1
  O  O129  1  0.714715  0.862850  0.510870  1
  O  O130  1  0.500469  0.723173  0.496261  1
  O  O131  1  0.987050  0.832149  0.553725  1
  O  O132  1  0.936884  0.000000  0.572992  1
  Si  Si133  1  0.062765  0.116616  0.178591  1
  Si  Si134  1  0.485957  0.245346  0.223662  1
  Si  Si135  1  0.267485  0.201348  0.213683  1
  Si  Si136  1  0.173393  0.383087  0.237345  1
  Si  Si137  1  0.173542  0.616631  0.237331  1
  Si  Si138  1  0.062891  0.883145  0.178578  1
  Si  Si139  1  0.486079  0.754450  0.223632  1
  Si  Si140  1  0.267599  0.798377  0.213661  1
  Si  Si141  1  0.673432  0.116673  0.237353  1
  Si  Si142  1  0.985898  0.254431  0.223633  1
  Si  Si143  1  0.767433  0.298423  0.213665  1
  Si  Si144  1  0.562883  0.616630  0.178576  1
  Si  Si145  1  0.562709  0.383158  0.178591  1
  Si  Si146  1  0.986081  0.745324  0.223633  1
  Si  Si147  1  0.767601  0.701384  0.213661  1
  Si  Si148  1  0.673553  0.883131  0.237340  1
  Si  Si149  1  0.327257  0.116602  0.283585  1
  Si  Si150  1  0.062765  0.116616  0.414402  1
  Si  Si151  1  0.485957  0.245346  0.459474  1
  Si  Si152  1  0.014667  0.254391  0.297273  1
  Si  Si153  1  0.233148  0.298334  0.307247  1
  Si  Si154  1  0.267485  0.201348  0.449494  1
  Si  Si155  1  0.438027  0.616576  0.342329  1
  Si  Si156  1  0.173393  0.383087  0.473157  1
  Si  Si157  1  0.173542  0.616631  0.473143  1
  Si  Si158  1  0.437851  0.383104  0.342345  1
  Si  Si159  1  0.062891  0.883145  0.414390  1
  Si  Si160  1  0.327380  0.883062  0.283573  1
  Si  Si161  1  0.014851  0.745318  0.297273  1
  Si  Si162  1  0.486079  0.754450  0.459443  1
  Si  Si163  1  0.267599  0.798377  0.449472  1
  Si  Si164  1  0.233319  0.701324  0.307243  1
  Si  Si165  1  0.733200  0.201362  0.307265  1
  Si  Si166  1  0.937906  0.116588  0.342344  1
  Si  Si167  1  0.673432  0.116673  0.473165  1
  Si  Si168  1  0.514725  0.245298  0.297302  1
  Si  Si169  1  0.985898  0.254431  0.459444  1
  Si  Si170  1  0.767433  0.298423  0.449477  1
  Si  Si171  1  0.562883  0.616630  0.414388  1
  Si  Si172  1  0.827219  0.383103  0.283578  1
  Si  Si173  1  0.827370  0.616643  0.283564  1
  Si  Si174  1  0.562709  0.383158  0.414403  1
  Si  Si175  1  0.938034  0.883116  0.342331  1
  Si  Si176  1  0.986081  0.745324  0.459445  1
  Si  Si177  1  0.514849  0.754376  0.297272  1
  Si  Si178  1  0.733317  0.798381  0.307242  1
  Si  Si179  1  0.767601  0.701384  0.449473  1
  Si  Si180  1  0.673553  0.883131  0.473152  1
  Si  Si181  1  0.327257  0.116602  0.519397  1
  Si  Si182  1  0.014667  0.254391  0.533084  1
  Si  Si183  1  0.233148  0.298334  0.543058  1
  Si  Si184  1  0.438027  0.616576  0.578141  1
  Si  Si185  1  0.437851  0.383104  0.578156  1
  Si  Si186  1  0.327380  0.883062  0.519385  1
  Si  Si187  1  0.014851  0.745318  0.533085  1
  Si  Si188  1  0.233319  0.701324  0.543054  1
  Si  Si189  1  0.733200  0.201362  0.543076  1
  Si  Si190  1  0.937906  0.116588  0.578156  1
  Si  Si191  1  0.514725  0.245298  0.533114  1
  Si  Si192  1  0.827219  0.383103  0.519390  1
  Si  Si193  1  0.827370  0.616643  0.519376  1
  Si  Si194  1  0.938034  0.883116  0.578143  1
  Si  Si195  1  0.514849  0.754376  0.533084  1
  Si  Si196  1  0.733317  0.798381  0.543054  1
  H  H197  1  0.000000  0.140497  0.121648  1
  H  H198  1  0.000000  0.859236  0.121638  1
  H  H199  1  0.500478  0.640498  0.121632  1
  H  H200  1  0.500229  0.359236  0.121659  1
  H  H201  1  0.000000  0.140497  0.635092  1
  H  H202  1  0.000000  0.859236  0.635082  1
  H  H203  1  0.500478  0.640498  0.635076  1
  H  H204  1  0.500229  0.359236  0.635103  1
