# generated using pymatgen
data_Si5H2O11
_symmetry_space_group_name_H-M   'P 1'
_cell_length_a   18.83497301
_cell_length_b   18.78156900
_cell_length_c   50.94655848
_cell_angle_alpha   134.97773495
_cell_angle_beta   134.81563567
_cell_angle_gamma   60.11935797
_symmetry_Int_Tables_number   1
_chemical_formula_structural   Si5H2O11
_chemical_formula_sum   'Si40 H16 O88'
_cell_volume   9043.64278245
_cell_formula_units_Z   8
loop_
 _symmetry_equiv_pos_site_id
 _symmetry_equiv_pos_as_xyz
  1  'x, y, z'
loop_
 _atom_site_type_symbol
 _atom_site_label
 _atom_site_symmetry_multiplicity
 _atom_site_fract_x
 _atom_site_fract_y
 _atom_site_fract_z
 _atom_site_occupancy
  O  O1  1  0.499559  0.125271  0.325842  1
  O  O2  1  0.366658  0.133946  0.328434  1
  O  O3  1  0.183347  0.195577  0.213016  1
  O  O4  1  0.181617  0.304181  0.281964  1
  O  O5  1  0.317621  0.329096  0.289531  1
  O  O6  1  0.316375  0.304575  0.187247  1
  O  O7  1  0.316880  0.171365  0.276517  1
  O  O8  1  0.499557  0.625272  0.325841  1
  O  O9  1  0.132807  0.491162  0.327712  1
  O  O10  1  0.366656  0.633946  0.328433  1
  O  O11  1  0.366398  0.366556  0.263252  1
  O  O12  1  0.366013  0.491485  0.258523  1
  O  O13  1  0.499249  0.357819  0.260523  1
  O  O14  1  0.132807  0.991163  0.327712  1
  O  O15  1  0.366402  0.866555  0.263253  1
  O  O16  1  0.183348  0.695583  0.213016  1
  O  O17  1  0.181615  0.804183  0.281963  1
  O  O18  1  0.317625  0.829097  0.289533  1
  O  O19  1  0.316375  0.804575  0.187248  1
  O  O20  1  0.316878  0.671367  0.276517  1
  O  O21  1  0.366016  0.991484  0.258524  1
  O  O22  1  0.499251  0.857818  0.260523  1
  O  O23  1  0.866662  0.133935  0.328433  1
  O  O24  1  0.683346  0.195589  0.213019  1
  O  O25  1  0.681619  0.304190  0.281967  1
  O  O26  1  0.817631  0.329087  0.289534  1
  O  O27  1  0.816375  0.304572  0.187246  1
  O  O28  1  0.816871  0.171357  0.276515  1
  O  O29  1  -0.000000  0.125264  0.325840  1
  O  O30  1  0.632808  0.491175  0.327714  1
  O  O31  1  0.866663  0.633936  0.328434  1
  O  O32  1  0.866396  0.366544  0.263249  1
  O  O33  1  0.866018  0.491476  0.258524  1
  O  O34  1  -0.000000  0.625264  0.325840  1
  O  O35  1  -0.000000  0.357806  0.260522  1
  O  O36  1  0.632811  0.991175  0.327715  1
  O  O37  1  0.866399  0.866545  0.263251  1
  O  O38  1  0.866016  0.991477  0.258523  1
  O  O39  1  0.683345  0.695589  0.213018  1
  O  O40  1  0.681620  0.804188  0.281967  1
  O  O41  1  0.817635  0.829085  0.289535  1
  O  O42  1  0.816375  0.804571  0.187246  1
  O  O43  1  0.816872  0.671356  0.276515  1
  O  O44  1  -0.000000  0.857807  0.260522  1
  O  O45  1  0.133697  0.008673  0.402313  1
  O  O46  1  0.133321  0.133600  0.397587  1
  O  O47  1  0.366916  0.008994  0.333127  1
  O  O48  1  0.183347  0.195577  0.473591  1
  O  O49  1  0.182841  0.328789  0.384321  1
  O  O50  1  0.182099  0.171060  0.371307  1
  O  O51  1  0.318105  0.195973  0.378875  1
  O  O52  1  0.316375  0.304575  0.447822  1
  O  O53  1  -0.000000  0.142347  0.400317  1
  O  O54  1  0.133708  0.508672  0.402315  1
  O  O55  1  0.133323  0.633601  0.397587  1
  O  O56  1  -0.000000  0.374887  0.334998  1
  O  O57  1  0.133061  0.366211  0.332404  1
  O  O58  1  0.366912  0.508994  0.333126  1
  O  O59  1  -0.000000  0.642340  0.400316  1
  O  O60  1  0.133064  0.866208  0.332404  1
  O  O61  1  -0.000000  0.874898  0.335001  1
  O  O62  1  0.183348  0.695583  0.473591  1
  O  O63  1  0.182840  0.828789  0.384321  1
  O  O64  1  0.182099  0.671059  0.371307  1
  O  O65  1  0.318102  0.695975  0.378874  1
  O  O66  1  0.316375  0.804575  0.447823  1
  O  O67  1  0.633324  0.133616  0.397590  1
  O  O68  1  0.633706  0.008684  0.402316  1
  O  O69  1  0.866906  0.008987  0.333124  1
  O  O70  1  0.683346  0.195589  0.473594  1
  O  O71  1  0.682848  0.328805  0.384324  1
  O  O72  1  0.682088  0.171074  0.371305  1
  O  O73  1  0.818099  0.195972  0.378872  1
  O  O74  1  0.816375  0.304572  0.447821  1
  O  O75  1  0.500472  0.142352  0.400318  1
  O  O76  1  0.633702  0.508686  0.402316  1
  O  O77  1  0.633322  0.633617  0.397592  1
  O  O78  1  0.633058  0.366225  0.332406  1
  O  O79  1  0.500160  0.374896  0.334999  1
  O  O80  1  0.866913  0.508984  0.333125  1
  O  O81  1  0.500480  0.642354  0.400320  1
  O  O82  1  0.633061  0.866225  0.332407  1
  O  O83  1  0.500165  0.874894  0.335000  1
  O  O84  1  0.683345  0.695589  0.473593  1
  O  O85  1  0.682853  0.828803  0.384325  1
  O  O86  1  0.682090  0.671074  0.371305  1
  O  O87  1  0.818105  0.695970  0.378874  1
  O  O88  1  0.816375  0.804571  0.447821  1
  Si  Si89  1  0.249870  0.250089  0.265265  1
  Si  Si90  1  0.384404  0.108256  0.296515  1
  Si  Si91  1  0.384402  0.608257  0.296514  1
  Si  Si92  1  0.384906  0.392170  0.304567  1
  Si  Si93  1  0.384124  0.377080  0.240136  1
  Si  Si94  1  0.114537  0.376811  0.299894  1
  Si  Si95  1  0.114536  0.876812  0.299894  1
  Si  Si96  1  0.384910  0.892169  0.304568  1
  Si  Si97  1  0.384126  0.877079  0.240137  1
  Si  Si98  1  0.249870  0.750092  0.265266  1
  Si  Si99  1  0.749870  0.250088  0.265267  1
  Si  Si100  1  0.884404  0.108248  0.296514  1
  Si  Si101  1  0.884404  0.608248  0.296514  1
  Si  Si102  1  0.614536  0.376825  0.299896  1
  Si  Si103  1  0.884908  0.392160  0.304566  1
  Si  Si104  1  0.884125  0.377070  0.240135  1
  Si  Si105  1  0.884123  0.877071  0.240135  1
  Si  Si106  1  0.749872  0.750087  0.265267  1
  Si  Si107  1  0.614539  0.876824  0.299897  1
  Si  Si108  1  0.884910  0.892164  0.304568  1
  Si  Si109  1  0.249851  0.250065  0.395573  1
  Si  Si110  1  0.115593  0.123077  0.420702  1
  Si  Si111  1  0.114813  0.107988  0.356272  1
  Si  Si112  1  0.385185  0.123345  0.360944  1
  Si  Si113  1  0.385180  0.623345  0.360943  1
  Si  Si114  1  0.115599  0.623077  0.420703  1
  Si  Si115  1  0.115318  0.391900  0.364324  1
  Si  Si116  1  0.114813  0.607987  0.356271  1
  Si  Si117  1  0.115319  0.891899  0.364324  1
  Si  Si118  1  0.249851  0.750066  0.395574  1
  Si  Si119  1  0.615597  0.123089  0.420705  1
  Si  Si120  1  0.614814  0.107999  0.356274  1
  Si  Si121  1  0.885182  0.123338  0.360943  1
  Si  Si122  1  0.749849  0.250074  0.395572  1
  Si  Si123  1  0.615593  0.623092  0.420703  1
  Si  Si124  1  0.615315  0.391914  0.364326  1
  Si  Si125  1  0.614812  0.608000  0.356272  1
  Si  Si126  1  0.885186  0.623335  0.360943  1
  Si  Si127  1  0.749852  0.750072  0.395573  1
  Si  Si128  1  0.615320  0.891911  0.364326  1
  H  H129  1  0.183347  0.195577  0.195350  1
  H  H130  1  0.316375  0.304575  0.169582  1
  H  H131  1  0.183348  0.695583  0.195351  1
  H  H132  1  0.316375  0.804575  0.169582  1
  H  H133  1  0.683346  0.195589  0.195353  1
  H  H134  1  0.816375  0.304572  0.169580  1
  H  H135  1  0.683345  0.695589  0.195352  1
  H  H136  1  0.816375  0.804571  0.169580  1
  H  H137  1  0.183347  0.195577  0.491256  1
  H  H138  1  0.316375  0.304575  0.465488  1
  H  H139  1  0.183348  0.695583  0.491257  1
  H  H140  1  0.316375  0.804575  0.465489  1
  H  H141  1  0.683346  0.195589  0.491259  1
  H  H142  1  0.816375  0.304572  0.465487  1
  H  H143  1  0.683345  0.695589  0.491259  1
  H  H144  1  0.816375  0.804571  0.465487  1
