# generated using pymatgen
data_Si40H2O81
_symmetry_space_group_name_H-M   'P 1'
_cell_length_a   9.70747760
_cell_length_b   8.31165552
_cell_length_c   72.32719149
_cell_angle_alpha   90.00000000
_cell_angle_beta   90.00000000
_cell_angle_gamma   90.00000000
_symmetry_Int_Tables_number   1
_chemical_formula_structural   Si40H2O81
_chemical_formula_sum   'Si80 H4 O162'
_cell_volume   5835.73461817
_cell_formula_units_Z   2
loop_
 _symmetry_equiv_pos_site_id
 _symmetry_equiv_pos_as_xyz
  1  'x, y, z'
loop_
 _atom_site_type_symbol
 _atom_site_label
 _atom_site_symmetry_multiplicity
 _atom_site_fract_x
 _atom_site_fract_y
 _atom_site_fract_z
 _atom_site_occupancy
  O  O1  1  0.500080  0.011496  0.081574  1
  O  O2  1  0.500098  0.488255  0.081575  1
  O  O3  1  0.801020  0.749883  0.306707  1
  O  O4  1  0.301044  0.749859  0.132062  1
  O  O5  1  0.198783  0.749884  0.306734  1
  O  O6  1  0.698803  0.749860  0.132084  1
  O  O7  1  0.803433  0.249859  0.207120  1
  O  O8  1  0.303407  0.249885  0.381760  1
  O  O9  1  0.195976  0.249858  0.207374  1
  O  O10  1  0.695956  0.249884  0.382029  1
  O  O11  1  0.635969  0.991952  0.305608  1
  O  O12  1  0.135996  0.991925  0.130961  1
  O  O13  1  0.363844  0.991927  0.305621  1
  O  O14  1  0.863869  0.991897  0.130973  1
  O  O15  1  0.636021  0.490799  0.207363  1
  O  O16  1  0.136017  0.490845  0.382012  1
  O  O17  1  0.363916  0.490420  0.207389  1
  O  O18  1  0.863914  0.490433  0.382035  1
  O  O19  1  0.363924  0.009301  0.207386  1
  O  O20  1  0.863916  0.009336  0.382035  1
  O  O21  1  0.636027  0.008910  0.207362  1
  O  O22  1  0.136017  0.008926  0.382009  1
  O  O23  1  0.363835  0.507833  0.305622  1
  O  O24  1  0.863873  0.507820  0.130976  1
  O  O25  1  0.635957  0.507825  0.305611  1
  O  O26  1  0.135995  0.507787  0.130962  1
  O  O27  1  0.870329  0.011720  0.321997  1
  O  O28  1  0.370357  0.011706  0.147350  1
  O  O29  1  0.129438  0.011772  0.322010  1
  O  O30  1  0.629467  0.011735  0.147362  1
  O  O31  1  0.870448  0.509623  0.191019  1
  O  O32  1  0.370445  0.509688  0.365669  1
  O  O33  1  0.129651  0.508748  0.191021  1
  O  O34  1  0.629646  0.508736  0.365667  1
  O  O35  1  0.129653  0.990972  0.191018  1
  O  O36  1  0.629649  0.991032  0.365666  1
  O  O37  1  0.870454  0.990093  0.191018  1
  O  O38  1  0.370449  0.990093  0.365666  1
  O  O39  1  0.129430  0.488001  0.322010  1
  O  O40  1  0.629466  0.487989  0.147364  1
  O  O41  1  0.870322  0.488053  0.321999  1
  O  O42  1  0.370356  0.488009  0.147350  1
  O  O43  1  0.870619  0.995188  0.287433  1
  O  O44  1  0.370642  0.995158  0.112786  1
  O  O45  1  0.129238  0.995140  0.287447  1
  O  O46  1  0.629260  0.995135  0.112799  1
  O  O47  1  0.870369  0.502368  0.225403  1
  O  O48  1  0.370370  0.502324  0.400054  1
  O  O49  1  0.129446  0.503820  0.225403  1
  O  O50  1  0.629447  0.503900  0.400048  1
  O  O51  1  0.129457  0.995884  0.225401  1
  O  O52  1  0.629444  0.995858  0.400048  1
  O  O53  1  0.870380  0.997356  0.225403  1
  O  O54  1  0.370368  0.997424  0.400051  1
  O  O55  1  0.129223  0.504621  0.287447  1
  O  O56  1  0.629265  0.504575  0.112801  1
  O  O57  1  0.870605  0.504553  0.287435  1
  O  O58  1  0.370646  0.504561  0.112786  1
  O  O59  1  0.500080  0.011496  0.430869  1
  O  O60  1  -0.000000  0.011495  0.256220  1
  O  O61  1  0.500098  0.488255  0.430870  1
  O  O62  1  -0.000000  0.488249  0.256223  1
  O  O63  1  0.498638  0.749879  0.412101  1
  O  O64  1  0.998724  0.749863  0.237454  1
  O  O65  1  0.499991  0.249864  0.104122  1
  O  O66  1  0.000000  0.249873  0.278770  1
  O  O67  1  0.500700  0.749886  0.351831  1
  O  O68  1  -0.000000  0.749858  0.177183  1
  O  O69  1  0.499850  0.249856  0.161756  1
  O  O70  1  -0.000000  0.249884  0.336403  1
  O  O71  1  0.499963  0.022351  0.334980  1
  O  O72  1  0.000000  0.022326  0.160333  1
  O  O73  1  0.499812  0.524528  0.178077  1
  O  O74  1  0.000000  0.524553  0.352725  1
  O  O75  1  0.499830  0.975177  0.178076  1
  O  O76  1  -0.000000  0.975207  0.352723  1
  O  O77  1  0.499942  0.477408  0.334982  1
  O  O78  1  -0.000000  0.477376  0.160334  1
  O  O79  1  -0.000000  0.749885  0.376406  1
  O  O80  1  0.499656  0.749858  0.201759  1
  O  O81  1  -0.000000  0.249856  0.136960  1
  O  O82  1  0.499900  0.249886  0.311609  1
  O  O83  1  0.801020  0.749883  0.656002  1
  O  O84  1  0.301044  0.749859  0.481358  1
  O  O85  1  0.198783  0.749884  0.656030  1
  O  O86  1  0.698803  0.749860  0.481379  1
  O  O87  1  0.803433  0.249859  0.556416  1
  O  O88  1  0.303407  0.249885  0.731056  1
  O  O89  1  0.195976  0.249858  0.556669  1
  O  O90  1  0.695956  0.249884  0.731325  1
  O  O91  1  0.635969  0.991952  0.654903  1
  O  O92  1  0.135996  0.991925  0.480257  1
  O  O93  1  0.363844  0.991927  0.654917  1
  O  O94  1  0.863869  0.991897  0.480268  1
  O  O95  1  0.636021  0.490799  0.556658  1
  O  O96  1  0.136017  0.490845  0.731307  1
  O  O97  1  0.363916  0.490420  0.556684  1
  O  O98  1  0.863914  0.490433  0.731331  1
  O  O99  1  0.363924  0.009301  0.556682  1
  O  O100  1  0.863916  0.009336  0.731330  1
  O  O101  1  0.636027  0.008910  0.556658  1
  O  O102  1  0.136017  0.008926  0.731304  1
  O  O103  1  0.363835  0.507833  0.654917  1
  O  O104  1  0.863873  0.507820  0.480271  1
  O  O105  1  0.635957  0.507825  0.654906  1
  O  O106  1  0.135995  0.507787  0.480257  1
  O  O107  1  0.870329  0.011720  0.671292  1
  O  O108  1  0.370357  0.011706  0.496645  1
  O  O109  1  0.129438  0.011772  0.671305  1
  O  O110  1  0.629467  0.011735  0.496657  1
  O  O111  1  0.870448  0.509623  0.540314  1
  O  O112  1  0.370445  0.509688  0.714964  1
  O  O113  1  0.129651  0.508748  0.540316  1
  O  O114  1  0.629646  0.508736  0.714962  1
  O  O115  1  0.129653  0.990972  0.540314  1
  O  O116  1  0.629649  0.991032  0.714961  1
  O  O117  1  0.870454  0.990093  0.540314  1
  O  O118  1  0.370449  0.990093  0.714962  1
  O  O119  1  0.129430  0.488001  0.671306  1
  O  O120  1  0.629466  0.487989  0.496660  1
  O  O121  1  0.870322  0.488053  0.671295  1
  O  O122  1  0.370356  0.488009  0.496645  1
  O  O123  1  0.870619  0.995188  0.636728  1
  O  O124  1  0.370642  0.995158  0.462082  1
  O  O125  1  0.129238  0.995140  0.636742  1
  O  O126  1  0.629260  0.995135  0.462094  1
  O  O127  1  0.870369  0.502368  0.574699  1
  O  O128  1  0.370370  0.502324  0.749349  1
  O  O129  1  0.129446  0.503820  0.574698  1
  O  O130  1  0.629447  0.503900  0.749344  1
  O  O131  1  0.129457  0.995884  0.574696  1
  O  O132  1  0.629444  0.995858  0.749343  1
  O  O133  1  0.870380  0.997356  0.574699  1
  O  O134  1  0.370368  0.997424  0.749347  1
  O  O135  1  0.129223  0.504621  0.636743  1
  O  O136  1  0.629265  0.504575  0.462096  1
  O  O137  1  0.870605  0.504553  0.636731  1
  O  O138  1  0.370646  0.504561  0.462082  1
  O  O139  1  0.500080  0.011496  0.780165  1
  O  O140  1  -0.000000  0.011495  0.605515  1
  O  O141  1  0.500098  0.488255  0.780166  1
  O  O142  1  0.000000  0.488249  0.605518  1
  O  O143  1  0.498638  0.749879  0.761397  1
  O  O144  1  0.998724  0.749863  0.586750  1
  O  O145  1  0.499991  0.249864  0.453418  1
  O  O146  1  0.000000  0.249873  0.628066  1
  O  O147  1  0.500700  0.749886  0.701127  1
  O  O148  1  0.000000  0.749858  0.526478  1
  O  O149  1  0.499850  0.249856  0.511051  1
  O  O150  1  -0.000000  0.249884  0.685698  1
  O  O151  1  0.499963  0.022351  0.684276  1
  O  O152  1  -0.000000  0.022326  0.509628  1
  O  O153  1  0.499812  0.524528  0.527373  1
  O  O154  1  0.000000  0.524553  0.702021  1
  O  O155  1  0.499830  0.975177  0.527371  1
  O  O156  1  -0.000000  0.975207  0.702019  1
  O  O157  1  0.499942  0.477408  0.684277  1
  O  O158  1  0.000000  0.477376  0.509629  1
  O  O159  1  -0.000000  0.749885  0.725701  1
  O  O160  1  0.499656  0.749858  0.551054  1
  O  O161  1  0.000000  0.249856  0.486256  1
  O  O162  1  0.499900  0.249886  0.660904  1
  Si  Si163  1  0.790434  0.936733  0.305122  1
  Si  Si164  1  0.290459  0.936708  0.130475  1
  Si  Si165  1  0.209376  0.936730  0.305141  1
  Si  Si166  1  0.709401  0.936706  0.130492  1
  Si  Si167  1  0.790776  0.436937  0.208028  1
  Si  Si168  1  0.290770  0.436961  0.382676  1
  Si  Si169  1  0.209068  0.436957  0.208100  1
  Si  Si170  1  0.709062  0.436983  0.382748  1
  Si  Si171  1  0.209076  0.062758  0.208098  1
  Si  Si172  1  0.709064  0.062783  0.382748  1
  Si  Si173  1  0.790780  0.062780  0.208028  1
  Si  Si174  1  0.290770  0.062806  0.382674  1
  Si  Si175  1  0.209367  0.563036  0.305141  1
  Si  Si176  1  0.709402  0.563010  0.130494  1
  Si  Si177  1  0.790426  0.563031  0.305124  1
  Si  Si178  1  0.290461  0.563006  0.130476  1
  Si  Si179  1  0.499651  0.937086  0.411149  1
  Si  Si180  1  -0.000000  0.937076  0.236502  1
  Si  Si181  1  0.499994  0.436662  0.102223  1
  Si  Si182  1  -0.000000  0.436676  0.276871  1
  Si  Si183  1  0.499986  0.063063  0.102221  1
  Si  Si184  1  0.000000  0.063078  0.276870  1
  Si  Si185  1  0.499656  0.562664  0.411151  1
  Si  Si186  1  -0.000000  0.562651  0.236503  1
  Si  Si187  1  0.500193  0.937029  0.354196  1
  Si  Si188  1  0.000000  0.937001  0.179548  1
  Si  Si189  1  0.499870  0.436717  0.158983  1
  Si  Si190  1  -0.000000  0.436745  0.333630  1
  Si  Si191  1  0.499875  0.062997  0.158982  1
  Si  Si192  1  0.000000  0.063024  0.333629  1
  Si  Si193  1  0.500186  0.562740  0.354197  1
  Si  Si194  1  0.000000  0.562712  0.179549  1
  Si  Si195  1  0.000000  0.936195  0.373870  1
  Si  Si196  1  0.499865  0.936166  0.199222  1
  Si  Si197  1  0.000000  0.436215  0.139262  1
  Si  Si198  1  0.499911  0.436242  0.313910  1
  Si  Si199  1  -0.000000  0.063497  0.139261  1
  Si  Si200  1  0.499922  0.063524  0.313909  1
  Si  Si201  1  -0.000000  0.563573  0.373871  1
  Si  Si202  1  0.499857  0.563544  0.199224  1
  Si  Si203  1  0.790434  0.936733  0.654417  1
  Si  Si204  1  0.290459  0.936708  0.479771  1
  Si  Si205  1  0.209376  0.936730  0.654436  1
  Si  Si206  1  0.709401  0.936706  0.479787  1
  Si  Si207  1  0.790776  0.436937  0.557324  1
  Si  Si208  1  0.290770  0.436961  0.731972  1
  Si  Si209  1  0.209068  0.436957  0.557396  1
  Si  Si210  1  0.709062  0.436983  0.732044  1
  Si  Si211  1  0.209076  0.062758  0.557394  1
  Si  Si212  1  0.709064  0.062783  0.732044  1
  Si  Si213  1  0.790780  0.062780  0.557324  1
  Si  Si214  1  0.290770  0.062806  0.731970  1
  Si  Si215  1  0.209367  0.563036  0.654436  1
  Si  Si216  1  0.709402  0.563010  0.479789  1
  Si  Si217  1  0.790426  0.563031  0.654419  1
  Si  Si218  1  0.290461  0.563006  0.479772  1
  Si  Si219  1  0.499651  0.937086  0.760444  1
  Si  Si220  1  -0.000000  0.937076  0.585798  1
  Si  Si221  1  0.499994  0.436662  0.451518  1
  Si  Si222  1  0.000000  0.436676  0.626167  1
  Si  Si223  1  0.499986  0.063063  0.451517  1
  Si  Si224  1  0.000000  0.063078  0.626165  1
  Si  Si225  1  0.499656  0.562664  0.760446  1
  Si  Si226  1  -0.000000  0.562651  0.585798  1
  Si  Si227  1  0.500193  0.937029  0.703491  1
  Si  Si228  1  0.000000  0.937001  0.528843  1
  Si  Si229  1  0.499870  0.436717  0.508278  1
  Si  Si230  1  -0.000000  0.436745  0.682926  1
  Si  Si231  1  0.499875  0.062997  0.508277  1
  Si  Si232  1  0.000000  0.063024  0.682924  1
  Si  Si233  1  0.500186  0.562740  0.703493  1
  Si  Si234  1  0.000000  0.562712  0.528844  1
  Si  Si235  1  -0.000000  0.936195  0.723165  1
  Si  Si236  1  0.499865  0.936166  0.548518  1
  Si  Si237  1  0.000000  0.436215  0.488558  1
  Si  Si238  1  0.499911  0.436242  0.663205  1
  Si  Si239  1  0.000000  0.063497  0.488556  1
  Si  Si240  1  0.499922  0.063524  0.663204  1
  Si  Si241  1  -0.000000  0.563573  0.723167  1
  Si  Si242  1  0.499857  0.563544  0.548519  1
  H  H243  1  0.500080  0.011496  0.069130  1
  H  H244  1  0.500098  0.488255  0.069131  1
  H  H245  1  0.500080  0.011496  0.792608  1
  H  H246  1  0.500098  0.488255  0.792609  1
