# generated using pymatgen
data_Si14H2O29
_symmetry_space_group_name_H-M   'P 1'
_cell_length_a   13.14623884
_cell_length_b   5.11803959
_cell_length_c   47.74121147
_cell_angle_alpha   90.00000000
_cell_angle_beta   90.00000000
_cell_angle_gamma   90.00000000
_symmetry_Int_Tables_number   1
_chemical_formula_structural   Si14H2O29
_chemical_formula_sum   'Si28 H4 O58'
_cell_volume   3212.1705393
_cell_formula_units_Z   2
loop_
 _symmetry_equiv_pos_site_id
 _symmetry_equiv_pos_as_xyz
  1  'x, y, z'
loop_
 _atom_site_type_symbol
 _atom_site_label
 _atom_site_symmetry_multiplicity
 _atom_site_fract_x
 _atom_site_fract_y
 _atom_site_fract_z
 _atom_site_occupancy
  O  O1  1  0.322965  0.249970  0.348631  1
  O  O2  1  0.822959  0.249758  0.123584  1
  O  O3  1  0.676944  0.249949  0.348632  1
  O  O4  1  0.176937  0.249718  0.123583  1
  O  O5  1  0.822963  0.749790  0.216856  1
  O  O6  1  0.176944  0.749769  0.216855  1
  O  O7  1  0.360976  0.500498  0.395235  1
  O  O8  1  0.860969  0.499667  0.170225  1
  O  O9  1  0.638927  0.500504  0.395235  1
  O  O10  1  0.138932  0.499689  0.170222  1
  O  O11  1  0.860974  0.000000  0.170213  1
  O  O12  1  0.138926  -0.000000  0.170215  1
  O  O13  1  0.499955  0.250203  0.370655  1
  O  O14  1  0.000000  0.249731  0.145606  1
  O  O15  1  -0.000000  0.749711  0.194833  1
  O  O16  1  0.637392  0.998908  0.303901  1
  O  O17  1  0.362516  0.998903  0.303902  1
  O  O18  1  0.137353  0.499181  0.261607  1
  O  O19  1  0.862524  0.498904  0.261591  1
  O  O20  1  0.862545  0.000000  0.261597  1
  O  O21  1  0.137406  0.000000  0.261580  1
  O  O22  1  0.362549  0.500611  0.303882  1
  O  O23  1  0.637364  0.500605  0.303885  1
  O  O24  1  0.803267  0.249809  0.304604  1
  O  O25  1  0.196646  0.249857  0.304604  1
  O  O26  1  0.303267  0.749891  0.260882  1
  O  O27  1  0.696644  0.749831  0.260883  1
  O  O28  1  0.499956  0.749890  0.277228  1
  O  O29  1  0.000000  0.249818  0.288258  1
  O  O30  1  0.822959  0.249758  0.573683  1
  O  O31  1  0.176937  0.249718  0.573681  1
  O  O32  1  0.322959  0.749906  0.441902  1
  O  O33  1  0.822963  0.749790  0.666954  1
  O  O34  1  0.676939  0.749922  0.441904  1
  O  O35  1  0.176944  0.749769  0.666954  1
  O  O36  1  0.860969  0.499667  0.620324  1
  O  O37  1  0.138932  0.499689  0.620320  1
  O  O38  1  0.360968  0.000000  0.395300  1
  O  O39  1  0.860974  0.000000  0.620312  1
  O  O40  1  0.638933  0.000000  0.395302  1
  O  O41  1  0.138926  0.000000  0.620314  1
  O  O42  1  0.000000  0.249731  0.595704  1
  O  O43  1  0.499952  0.750224  0.419881  1
  O  O44  1  0.000000  0.749711  0.644931  1
  O  O45  1  0.137404  0.998596  0.528955  1
  O  O46  1  0.862537  0.998969  0.528938  1
  O  O47  1  0.637373  0.498900  0.486638  1
  O  O48  1  0.362466  0.498452  0.486614  1
  O  O49  1  0.362584  0.000000  0.486671  1
  O  O50  1  0.637367  0.000000  0.486650  1
  O  O51  1  0.862517  0.500679  0.528946  1
  O  O52  1  0.137332  0.500301  0.528926  1
  O  O53  1  0.303262  0.249637  0.529652  1
  O  O54  1  0.696632  0.249803  0.529653  1
  O  O55  1  0.803262  0.749780  0.485933  1
  O  O56  1  0.196633  0.749608  0.485931  1
  O  O57  1  0.000000  0.749721  0.502278  1
  O  O58  1  0.499947  0.249789  0.513307  1
  Si  Si59  1  0.382655  0.250293  0.377232  1
  Si  Si60  1  0.882652  0.249708  0.152184  1
  Si  Si61  1  0.617258  0.250294  0.377234  1
  Si  Si62  1  0.117248  0.249712  0.152183  1
  Si  Si63  1  0.882650  0.749708  0.188254  1
  Si  Si64  1  0.117254  0.749711  0.188252  1
  Si  Si65  1  0.690136  0.249811  0.315892  1
  Si  Si66  1  0.309778  0.249824  0.315890  1
  Si  Si67  1  0.190135  0.749937  0.249595  1
  Si  Si68  1  0.809777  0.749783  0.249597  1
  Si  Si69  1  0.383357  0.749827  0.285602  1
  Si  Si70  1  0.616557  0.749813  0.285604  1
  Si  Si71  1  0.883355  0.249781  0.279885  1
  Si  Si72  1  0.116555  0.249933  0.279885  1
  Si  Si73  1  0.882652  0.249708  0.602282  1
  Si  Si74  1  0.117248  0.249712  0.602282  1
  Si  Si75  1  0.382655  0.750292  0.413303  1
  Si  Si76  1  0.882650  0.749708  0.638352  1
  Si  Si77  1  0.617253  0.750295  0.413303  1
  Si  Si78  1  0.117254  0.749711  0.638351  1
  Si  Si79  1  0.190130  0.249558  0.540939  1
  Si  Si80  1  0.809764  0.249796  0.540939  1
  Si  Si81  1  0.690129  0.749786  0.474647  1
  Si  Si82  1  0.309768  0.749515  0.474646  1
  Si  Si83  1  0.883343  0.749793  0.510651  1
  Si  Si84  1  0.116552  0.749557  0.510651  1
  Si  Si85  1  0.383345  0.249519  0.504935  1
  Si  Si86  1  0.616551  0.249787  0.504935  1
  H  H87  1  0.822959  0.249758  0.104733  1
  H  H88  1  0.176937  0.249718  0.104731  1
  H  H89  1  0.822963  0.749790  0.685806  1
  H  H90  1  0.176944  0.749769  0.685805  1
