# generated using pymatgen
data_Si8H2O17
_symmetry_space_group_name_H-M   'P 1'
_cell_length_a   12.71631753
_cell_length_b   12.70113620
_cell_length_c   30.33305393
_cell_angle_alpha   90.00000000
_cell_angle_beta   90.00000000
_cell_angle_gamma   120.00000000
_symmetry_Int_Tables_number   1
_chemical_formula_structural   Si8H2O17
_chemical_formula_sum   'Si16 H4 O34'
_cell_volume   4242.78188512
_cell_formula_units_Z   2
loop_
 _symmetry_equiv_pos_site_id
 _symmetry_equiv_pos_as_xyz
  1  'x, y, z'
loop_
 _atom_site_type_symbol
 _atom_site_label
 _atom_site_symmetry_multiplicity
 _atom_site_fract_x
 _atom_site_fract_y
 _atom_site_fract_z
 _atom_site_occupancy
  O  O1  1  0.335933  0.664677  0.194507  1
  O  O2  1  0.332823  0.779608  0.265102  1
  O  O3  1  0.226350  0.547481  0.265273  1
  O  O4  1  0.458248  0.673045  0.264849  1
  O  O5  1  0.785091  0.326305  0.265185  1
  O  O6  1  0.553254  0.220131  0.264843  1
  O  O7  1  0.678629  0.452067  0.265282  1
  O  O8  1  0.678034  0.219982  0.405295  1
  O  O9  1  0.785066  0.452042  0.404956  1
  O  O10  1  0.553277  0.327000  0.405327  1
  O  O11  1  0.226268  0.672791  0.405101  1
  O  O12  1  0.457998  0.779515  0.405364  1
  O  O13  1  0.333112  0.547629  0.405025  1
  O  O14  1  0.378804  0.000000  0.295955  1
  O  O15  1  0.005721  0.372731  0.295956  1
  O  O16  1  0.632469  0.626771  0.295843  1
  O  O17  1  0.631945  -0.000000  0.374332  1
  O  O18  1  0.005640  0.626335  0.374371  1
  O  O19  1  0.379347  0.373389  0.374332  1
  O  O20  1  0.219156  0.786090  0.335201  1
  O  O21  1  0.219555  0.427230  0.335137  1
  O  O22  1  0.578072  0.786223  0.335084  1
  O  O23  1  0.791810  0.213274  0.335182  1
  O  O24  1  0.433302  0.213901  0.335042  1
  O  O25  1  0.792205  0.572527  0.335043  1
  O  O26  1  0.438293  0.865823  0.335228  1
  O  O27  1  0.139387  0.566499  0.335195  1
  O  O28  1  0.438742  0.566830  0.334844  1
  O  O29  1  0.871998  0.432800  0.335024  1
  O  O30  1  0.572614  0.133944  0.335016  1
  O  O31  1  0.573083  0.433401  0.335355  1
  O  O32  1  0.674790  0.336238  0.194535  1
  O  O33  1  0.335933  0.664677  0.475792  1
  O  O34  1  0.674790  0.336238  0.475819  1
  Si  Si35  1  0.336238  0.861010  0.305159  1
  Si  Si36  1  0.144520  0.469300  0.305140  1
  Si  Si37  1  0.536095  0.669328  0.304911  1
  Si  Si38  1  0.866889  0.330241  0.305106  1
  Si  Si39  1  0.475360  0.138908  0.304985  1
  Si  Si40  1  0.674955  0.530346  0.305133  1
  Si  Si41  1  0.674519  0.138680  0.365161  1
  Si  Si42  1  0.866875  0.530025  0.365064  1
  Si  Si43  1  0.475638  0.330810  0.365235  1
  Si  Si44  1  0.144442  0.668887  0.365207  1
  Si  Si45  1  0.535612  0.860813  0.365198  1
  Si  Si46  1  0.336860  0.469757  0.365041  1
  Si  Si47  1  0.672695  0.333226  0.245929  1
  Si  Si48  1  0.338827  0.666549  0.245903  1
  Si  Si49  1  0.338828  0.666386  0.424398  1
  Si  Si50  1  0.672447  0.333325  0.424428  1
  H  H51  1  0.335933  0.664677  0.164837  1
  H  H52  1  0.674790  0.336238  0.164864  1
  H  H53  1  0.335933  0.664677  0.505462  1
  H  H54  1  0.674790  0.336238  0.505490  1
