# generated using pymatgen
data_Si24H2O49
_symmetry_space_group_name_H-M   'P 1'
_cell_length_a   12.95735766
_cell_length_b   5.13138262
_cell_length_c   60.68346664
_cell_angle_alpha   90.00000000
_cell_angle_beta   90.00000000
_cell_angle_gamma   90.00000000
_symmetry_Int_Tables_number   1
_chemical_formula_structural   Si24H2O49
_chemical_formula_sum   'Si48 H4 O98'
_cell_volume   4034.7927166
_cell_formula_units_Z   2
loop_
 _symmetry_equiv_pos_site_id
 _symmetry_equiv_pos_as_xyz
  1  'x, y, z'
loop_
 _atom_site_type_symbol
 _atom_site_label
 _atom_site_symmetry_multiplicity
 _atom_site_fract_x
 _atom_site_fract_y
 _atom_site_fract_z
 _atom_site_occupancy
  O  O1  1  0.734243  0.499832  0.097226  1
  O  O2  1  0.265539  0.499886  0.097230  1
  O  O3  1  0.150057  0.750097  0.171944  1
  O  O4  1  0.650093  0.249586  0.278747  1
  O  O5  1  0.349698  0.749820  0.278741  1
  O  O6  1  0.849715  0.249939  0.171950  1
  O  O7  1  0.849660  0.749581  0.236084  1
  O  O8  1  0.349751  0.250096  0.129308  1
  O  O9  1  0.650095  0.749941  0.129296  1
  O  O10  1  0.150056  0.249819  0.236096  1
  O  O11  1  0.150062  0.749817  0.236093  1
  O  O12  1  0.650076  0.249951  0.129302  1
  O  O13  1  0.349694  0.750093  0.129295  1
  O  O14  1  0.849732  0.249577  0.236100  1
  O  O15  1  0.849730  0.749934  0.171945  1
  O  O16  1  0.349695  0.249825  0.278744  1
  O  O17  1  0.650025  0.749588  0.278732  1
  O  O18  1  0.150113  0.250091  0.171956  1
  O  O19  1  0.234243  -0.000000  0.204023  1
  O  O20  1  0.734243  0.499832  0.310811  1
  O  O21  1  0.499878  -0.000000  0.260770  1
  O  O22  1  -0.000000  0.499905  0.153977  1
  O  O23  1  0.765538  0.000000  0.204019  1
  O  O24  1  0.265539  0.499886  0.310815  1
  O  O25  1  0.499906  -0.000000  0.147272  1
  O  O26  1  0.000000  0.499819  0.254064  1
  O  O27  1  0.315031  -0.000000  0.164532  1
  O  O28  1  0.814999  0.499704  0.271321  1
  O  O29  1  0.315000  -0.000000  0.243513  1
  O  O30  1  0.815031  0.499905  0.136717  1
  O  O31  1  0.684748  -0.000000  0.243509  1
  O  O32  1  0.184781  0.499996  0.136720  1
  O  O33  1  0.684782  0.000000  0.164529  1
  O  O34  1  0.184749  0.499836  0.271325  1
  O  O35  1  0.150057  0.750097  0.385529  1
  O  O36  1  0.650093  0.249586  0.492332  1
  O  O37  1  0.349698  0.749820  0.492326  1
  O  O38  1  0.849715  0.249939  0.385535  1
  O  O39  1  0.849660  0.749581  0.449669  1
  O  O40  1  0.349751  0.250096  0.342893  1
  O  O41  1  0.650095  0.749941  0.342881  1
  O  O42  1  0.150056  0.249819  0.449681  1
  O  O43  1  0.150062  0.749817  0.449678  1
  O  O44  1  0.650076  0.249951  0.342887  1
  O  O45  1  0.349694  0.750093  0.342880  1
  O  O46  1  0.849732  0.249577  0.449685  1
  O  O47  1  0.849730  0.749934  0.385530  1
  O  O48  1  0.349695  0.249825  0.492328  1
  O  O49  1  0.650025  0.749588  0.492317  1
  O  O50  1  0.150113  0.250091  0.385541  1
  O  O51  1  0.234243  -0.000000  0.417608  1
  O  O52  1  0.734243  0.499832  0.524396  1
  O  O53  1  0.499878  -0.000000  0.474355  1
  O  O54  1  -0.000000  0.499905  0.367562  1
  O  O55  1  0.765538  -0.000000  0.417604  1
  O  O56  1  0.265539  0.499886  0.524400  1
  O  O57  1  0.499906  -0.000000  0.360857  1
  O  O58  1  0.000000  0.499819  0.467649  1
  O  O59  1  0.315031  0.000000  0.378117  1
  O  O60  1  0.814999  0.499704  0.484906  1
  O  O61  1  0.315000  -0.000000  0.457098  1
  O  O62  1  0.815031  0.499905  0.350302  1
  O  O63  1  0.684748  -0.000000  0.457094  1
  O  O64  1  0.184781  0.499996  0.350305  1
  O  O65  1  0.684782  -0.000000  0.378114  1
  O  O66  1  0.184749  0.499836  0.484910  1
  O  O67  1  0.150057  0.750097  0.599113  1
  O  O68  1  0.650093  0.249586  0.705917  1
  O  O69  1  0.349698  0.749820  0.705911  1
  O  O70  1  0.849715  0.249939  0.599120  1
  O  O71  1  0.849660  0.749581  0.663254  1
  O  O72  1  0.349751  0.250096  0.556478  1
  O  O73  1  0.650095  0.749941  0.556466  1
  O  O74  1  0.150056  0.249819  0.663266  1
  O  O75  1  0.150062  0.749817  0.663263  1
  O  O76  1  0.650076  0.249951  0.556472  1
  O  O77  1  0.349694  0.750093  0.556465  1
  O  O78  1  0.849732  0.249577  0.663270  1
  O  O79  1  0.849730  0.749934  0.599115  1
  O  O80  1  0.349695  0.249825  0.705913  1
  O  O81  1  0.650025  0.749588  0.705902  1
  O  O82  1  0.150113  0.250091  0.599126  1
  O  O83  1  0.234243  -0.000000  0.631193  1
  O  O84  1  0.734243  0.499832  0.737981  1
  O  O85  1  0.499878  0.000000  0.687940  1
  O  O86  1  0.000000  0.499905  0.581147  1
  O  O87  1  0.765538  -0.000000  0.631189  1
  O  O88  1  0.265539  0.499886  0.737985  1
  O  O89  1  0.499906  0.000000  0.574442  1
  O  O90  1  -0.000000  0.499819  0.681234  1
  O  O91  1  0.315031  -0.000000  0.591702  1
  O  O92  1  0.814999  0.499704  0.698491  1
  O  O93  1  0.315000  -0.000000  0.670683  1
  O  O94  1  0.815031  0.499905  0.563887  1
  O  O95  1  0.684748  0.000000  0.670679  1
  O  O96  1  0.184781  0.499996  0.563890  1
  O  O97  1  0.684782  0.000000  0.591699  1
  O  O98  1  0.184749  0.499836  0.698495  1
  Si  Si99  1  0.212746  -0.000000  0.178560  1
  Si  Si100  1  0.712719  0.499668  0.285350  1
  Si  Si101  1  0.380656  0.000000  0.265361  1
  Si  Si102  1  0.880686  0.499915  0.158566  1
  Si  Si103  1  0.787035  0.000000  0.229482  1
  Si  Si104  1  0.287062  0.500026  0.122692  1
  Si  Si105  1  0.619123  -0.000000  0.142681  1
  Si  Si106  1  0.119097  0.499830  0.249476  1
  Si  Si107  1  0.212719  -0.000000  0.229484  1
  Si  Si108  1  0.712747  0.499917  0.122690  1
  Si  Si109  1  0.380686  -0.000000  0.142683  1
  Si  Si110  1  0.880658  0.499665  0.249473  1
  Si  Si111  1  0.787063  0.000000  0.178557  1
  Si  Si112  1  0.287034  0.499833  0.285353  1
  Si  Si113  1  0.619097  -0.000000  0.265359  1
  Si  Si114  1  0.119124  0.500027  0.158568  1
  Si  Si115  1  0.212746  0.000000  0.392145  1
  Si  Si116  1  0.712719  0.499668  0.498935  1
  Si  Si117  1  0.380656  0.000000  0.478946  1
  Si  Si118  1  0.880686  0.499915  0.372151  1
  Si  Si119  1  0.787035  -0.000000  0.443067  1
  Si  Si120  1  0.287062  0.500026  0.336277  1
  Si  Si121  1  0.619123  -0.000000  0.356266  1
  Si  Si122  1  0.119097  0.499830  0.463060  1
  Si  Si123  1  0.212719  0.000000  0.443069  1
  Si  Si124  1  0.712747  0.499917  0.336275  1
  Si  Si125  1  0.380686  -0.000000  0.356268  1
  Si  Si126  1  0.880658  0.499665  0.463058  1
  Si  Si127  1  0.787063  -0.000000  0.392142  1
  Si  Si128  1  0.287034  0.499833  0.498938  1
  Si  Si129  1  0.619097  0.000000  0.478944  1
  Si  Si130  1  0.119124  0.500027  0.372153  1
  Si  Si131  1  0.212746  -0.000000  0.605730  1
  Si  Si132  1  0.712719  0.499668  0.712520  1
  Si  Si133  1  0.380656  0.000000  0.692531  1
  Si  Si134  1  0.880686  0.499915  0.585736  1
  Si  Si135  1  0.787035  0.000000  0.656652  1
  Si  Si136  1  0.287062  0.500026  0.549862  1
  Si  Si137  1  0.619123  -0.000000  0.569851  1
  Si  Si138  1  0.119097  0.499830  0.676645  1
  Si  Si139  1  0.212719  -0.000000  0.656654  1
  Si  Si140  1  0.712747  0.499917  0.549860  1
  Si  Si141  1  0.380686  0.000000  0.569853  1
  Si  Si142  1  0.880658  0.499665  0.676643  1
  Si  Si143  1  0.787063  0.000000  0.605727  1
  Si  Si144  1  0.287034  0.499833  0.712523  1
  Si  Si145  1  0.619097  -0.000000  0.692528  1
  Si  Si146  1  0.119124  0.500027  0.585738  1
  H  H147  1  0.734243  0.499832  0.082395  1
  H  H148  1  0.265539  0.499886  0.082399  1
  H  H149  1  0.734243  0.499832  0.752812  1
  H  H150  1  0.265539  0.499886  0.752816  1
