# generated using pymatgen
data_Si12H2O25
_symmetry_space_group_name_H-M   'P 1'
_cell_length_a   8.33899979
_cell_length_b   28.28807734
_cell_length_c   60.03809995
_cell_angle_alpha   134.91593616
_cell_angle_beta   90.00000000
_cell_angle_gamma   90.00000000
_symmetry_Int_Tables_number   1
_chemical_formula_structural   Si12H2O25
_chemical_formula_sum   'Si96 H16 O200'
_cell_volume   10029.1838852
_cell_formula_units_Z   8
loop_
 _symmetry_equiv_pos_site_id
 _symmetry_equiv_pos_as_xyz
  1  'x, y, z'
loop_
 _atom_site_type_symbol
 _atom_site_label
 _atom_site_symmetry_multiplicity
 _atom_site_fract_x
 _atom_site_fract_y
 _atom_site_fract_z
 _atom_site_occupancy
  O  O1  1  0.771940  0.500467  0.215720  1
  O  O2  1  0.272534  -0.000000  0.215749  1
  O  O3  1  0.227849  0.500454  0.215708  1
  O  O4  1  0.727258  0.000000  0.215762  1
  O  O5  1  0.772744  0.250334  0.298987  1
  O  O6  1  0.772744  0.750334  0.132649  1
  O  O7  1  0.271726  0.250265  0.132594  1
  O  O8  1  0.271726  0.750265  0.298933  1
  O  O9  1  0.227048  0.250320  0.298987  1
  O  O10  1  0.227048  0.750320  0.132648  1
  O  O11  1  0.728067  0.250278  0.132595  1
  O  O12  1  0.728067  0.750278  0.298933  1
  O  O13  1  -0.000000  0.056563  0.379453  1
  O  O14  1  0.000000  0.556563  0.213114  1
  O  O15  1  0.499901  0.058251  0.214001  1
  O  O16  1  0.499901  0.558251  0.380339  1
  O  O17  1  0.000000  0.306673  0.338965  1
  O  O18  1  -0.000000  0.806674  0.172627  1
  O  O19  1  0.499894  0.308765  0.172296  1
  O  O20  1  0.499894  0.808765  0.338635  1
  O  O21  1  -0.000000  0.442779  0.217072  1
  O  O22  1  0.499892  0.941160  0.216354  1
  O  O23  1  0.000000  0.193016  0.258748  1
  O  O24  1  0.499896  0.691221  0.258931  1
  O  O25  1  0.752626  0.625345  0.244922  1
  O  O26  1  0.249499  0.125409  0.245132  1
  O  O27  1  0.247173  0.625336  0.244918  1
  O  O28  1  0.750284  0.125420  0.245137  1
  O  O29  1  0.752606  0.375362  0.352845  1
  O  O30  1  0.752606  0.875362  0.186506  1
  O  O31  1  0.249205  0.375389  0.186620  1
  O  O32  1  0.249205  0.875389  0.352958  1
  O  O33  1  0.247195  0.375351  0.352840  1
  O  O34  1  0.247195  0.875350  0.186501  1
  O  O35  1  0.750575  0.375402  0.186626  1
  O  O36  1  0.750575  0.875402  0.352965  1
  O  O37  1  0.738884  0.036608  0.352095  1
  O  O38  1  0.738884  0.536608  0.185757  1
  O  O39  1  0.239761  0.037106  0.186070  1
  O  O40  1  0.239761  0.537106  0.352409  1
  O  O41  1  0.260875  0.036609  0.352090  1
  O  O42  1  0.260875  0.536609  0.185751  1
  O  O43  1  0.760066  0.037104  0.186076  1
  O  O44  1  0.760066  0.537105  0.352415  1
  O  O45  1  0.738917  0.286635  0.353000  1
  O  O46  1  0.738917  0.786635  0.186661  1
  O  O47  1  0.247091  0.286407  0.186809  1
  O  O48  1  0.247091  0.786407  0.353147  1
  O  O49  1  0.260864  0.286636  0.353003  1
  O  O50  1  0.260864  0.786636  0.186664  1
  O  O51  1  0.752716  0.286403  0.186804  1
  O  O52  1  0.752716  0.786403  0.353143  1
  O  O53  1  0.254112  0.464577  0.245988  1
  O  O54  1  0.754117  0.964137  0.245759  1
  O  O55  1  0.745712  0.464573  0.245994  1
  O  O56  1  0.245645  0.964139  0.245753  1
  O  O57  1  0.260794  0.213858  0.244954  1
  O  O58  1  0.754127  0.714156  0.244781  1
  O  O59  1  0.739009  0.213855  0.244950  1
  O  O60  1  0.245657  0.714158  0.244785  1
  O  O61  1  0.499895  0.047895  0.329634  1
  O  O62  1  0.499895  0.547895  0.163296  1
  O  O63  1  -0.000000  0.052941  0.165429  1
  O  O64  1  -0.000000  0.552942  0.331768  1
  O  O65  1  0.499897  0.797888  0.216617  1
  O  O66  1  -0.000000  0.306679  0.216858  1
  O  O67  1  0.499895  0.443577  0.262570  1
  O  O68  1  0.000000  0.939003  0.260811  1
  O  O69  1  0.499893  0.197481  0.213482  1
  O  O70  1  0.499893  0.697480  0.379821  1
  O  O71  1  -0.000000  0.189014  0.379340  1
  O  O72  1  0.000000  0.689013  0.213001  1
  O  O73  1  0.740977  0.125530  0.352059  1
  O  O74  1  0.740977  0.625530  0.185720  1
  O  O75  1  0.249234  0.125641  0.185963  1
  O  O76  1  0.249234  0.625641  0.352302  1
  O  O77  1  0.258840  0.125546  0.352063  1
  O  O78  1  0.258840  0.625545  0.185724  1
  O  O79  1  0.750522  0.125620  0.185958  1
  O  O80  1  0.750522  0.625620  0.352297  1
  O  O81  1  0.740967  0.875525  0.245860  1
  O  O82  1  0.249062  0.375644  0.246069  1
  O  O83  1  0.258849  0.875540  0.245863  1
  O  O84  1  0.750696  0.375622  0.246063  1
  O  O85  1  0.764154  -0.000000  0.299232  1
  O  O86  1  0.764154  0.500817  0.132893  1
  O  O87  1  0.258600  0.001151  0.133181  1
  O  O88  1  0.258600  0.501151  0.299520  1
  O  O89  1  0.235640  -0.000000  0.299230  1
  O  O90  1  0.235640  0.500839  0.132892  1
  O  O91  1  0.741194  0.001120  0.133182  1
  O  O92  1  0.741194  0.501120  0.299520  1
  O  O93  1  0.764175  0.750828  0.215712  1
  O  O94  1  0.241712  0.250348  0.216243  1
  O  O95  1  0.235614  0.750849  0.215724  1
  O  O96  1  0.758092  0.250318  0.216227  1
  O  O97  1  0.771940  0.000000  0.382058  1
  O  O98  1  0.771940  0.500467  0.548397  1
  O  O99  1  0.272534  0.000000  0.548427  1
  O  O100  1  0.272534  0.500444  0.382088  1
  O  O101  1  0.227849  0.000000  0.382047  1
  O  O102  1  0.227849  0.500454  0.548385  1
  O  O103  1  0.727258  -0.000000  0.548439  1
  O  O104  1  0.727258  0.500458  0.382100  1
  O  O105  1  0.772744  0.250334  0.631665  1
  O  O106  1  0.772744  0.750334  0.465326  1
  O  O107  1  0.271726  0.250265  0.465272  1
  O  O108  1  0.271726  0.750265  0.631611  1
  O  O109  1  0.227048  0.250319  0.631664  1
  O  O110  1  0.227048  0.750320  0.465325  1
  O  O111  1  0.728067  0.250279  0.465272  1
  O  O112  1  0.728067  0.750278  0.631611  1
  O  O113  1  -0.000000  0.556563  0.545791  1
  O  O114  1  0.499901  0.058251  0.546678  1
  O  O115  1  -0.000000  0.806674  0.505304  1
  O  O116  1  0.499894  0.308765  0.504974  1
  O  O117  1  -0.000000  0.442779  0.549750  1
  O  O118  1  -0.000000  0.942779  0.383411  1
  O  O119  1  0.499892  0.441160  0.382693  1
  O  O120  1  0.499892  0.941160  0.549032  1
  O  O121  1  -0.000000  0.193015  0.591425  1
  O  O122  1  0.000000  0.693016  0.425086  1
  O  O123  1  0.499896  0.191221  0.425270  1
  O  O124  1  0.499896  0.691221  0.591609  1
  O  O125  1  0.752626  0.125345  0.411261  1
  O  O126  1  0.752626  0.625345  0.577600  1
  O  O127  1  0.249499  0.125409  0.577809  1
  O  O128  1  0.249499  0.625409  0.411470  1
  O  O129  1  0.247173  0.125336  0.411256  1
  O  O130  1  0.247173  0.625336  0.577595  1
  O  O131  1  0.750284  0.125420  0.577815  1
  O  O132  1  0.750284  0.625420  0.411476  1
  O  O133  1  0.752606  0.875362  0.519184  1
  O  O134  1  0.249205  0.375389  0.519297  1
  O  O135  1  0.247195  0.875351  0.519178  1
  O  O136  1  0.750575  0.375402  0.519304  1
  O  O137  1  0.738884  0.536608  0.518434  1
  O  O138  1  0.239761  0.037106  0.518748  1
  O  O139  1  0.260875  0.536609  0.518429  1
  O  O140  1  0.760066  0.037105  0.518754  1
  O  O141  1  0.738917  0.786635  0.519338  1
  O  O142  1  0.247091  0.286407  0.519486  1
  O  O143  1  0.260864  0.786636  0.519341  1
  O  O144  1  0.752716  0.286403  0.519482  1
  O  O145  1  0.254112  0.464577  0.578666  1
  O  O146  1  0.254112  0.964576  0.412327  1
  O  O147  1  0.754117  0.464137  0.412098  1
  O  O148  1  0.754117  0.964137  0.578436  1
  O  O149  1  0.745712  0.464573  0.578671  1
  O  O150  1  0.745712  0.964572  0.412332  1
  O  O151  1  0.245645  0.464139  0.412092  1
  O  O152  1  0.245645  0.964139  0.578431  1
  O  O153  1  0.260794  0.213858  0.577632  1
  O  O154  1  0.260794  0.713858  0.411293  1
  O  O155  1  0.754127  0.214156  0.411120  1
  O  O156  1  0.754127  0.714156  0.577459  1
  O  O157  1  0.739009  0.213855  0.577628  1
  O  O158  1  0.739009  0.713855  0.411289  1
  O  O159  1  0.245657  0.214159  0.411123  1
  O  O160  1  0.245657  0.714158  0.577462  1
  O  O161  1  0.499895  0.547895  0.495973  1
  O  O162  1  -0.000000  0.052941  0.498107  1
  O  O163  1  0.499897  0.297888  0.382955  1
  O  O164  1  0.499897  0.797888  0.549294  1
  O  O165  1  0.000000  0.306679  0.549535  1
  O  O166  1  -0.000000  0.806679  0.383196  1
  O  O167  1  0.499895  0.443577  0.595248  1
  O  O168  1  0.499895  0.943577  0.428909  1
  O  O169  1  -0.000000  0.439004  0.427150  1
  O  O170  1  -0.000000  0.939003  0.593488  1
  O  O171  1  0.499893  0.197481  0.546160  1
  O  O172  1  0.000000  0.689013  0.545679  1
  O  O173  1  0.740977  0.625530  0.518398  1
  O  O174  1  0.249234  0.125640  0.518640  1
  O  O175  1  0.258840  0.625545  0.518402  1
  O  O176  1  0.750522  0.125620  0.518635  1
  O  O177  1  0.740967  0.375525  0.412199  1
  O  O178  1  0.740967  0.875525  0.578537  1
  O  O179  1  0.249062  0.375644  0.578746  1
  O  O180  1  0.249062  0.875644  0.412407  1
  O  O181  1  0.258849  0.375540  0.412202  1
  O  O182  1  0.258849  0.875540  0.578541  1
  O  O183  1  0.750696  0.375622  0.578741  1
  O  O184  1  0.750696  0.875622  0.412402  1
  O  O185  1  0.764154  0.000000  0.631909  1
  O  O186  1  0.764154  0.500817  0.465570  1
  O  O187  1  0.258600  0.001151  0.465859  1
  O  O188  1  0.258600  0.501151  0.632197  1
  O  O189  1  0.235640  -0.000000  0.631908  1
  O  O190  1  0.235640  0.500839  0.465569  1
  O  O191  1  0.741194  0.001120  0.465859  1
  O  O192  1  0.741194  0.501120  0.632198  1
  O  O193  1  0.764175  0.250828  0.382050  1
  O  O194  1  0.764175  0.750828  0.548389  1
  O  O195  1  0.241712  0.250348  0.548920  1
  O  O196  1  0.241712  0.750348  0.382582  1
  O  O197  1  0.235614  0.250850  0.382062  1
  O  O198  1  0.235614  0.750850  0.548401  1
  O  O199  1  0.758092  0.250317  0.548904  1
  O  O200  1  0.758092  0.750318  0.382565  1
  Si  Si201  1  0.813447  0.053287  0.381084  1
  Si  Si202  1  0.813447  0.553287  0.214745  1
  Si  Si203  1  0.313381  0.053768  0.215116  1
  Si  Si204  1  0.313381  0.553767  0.381455  1
  Si  Si205  1  0.186333  0.053283  0.381078  1
  Si  Si206  1  0.186333  0.553283  0.214739  1
  Si  Si207  1  0.686419  0.053773  0.215123  1
  Si  Si208  1  0.686419  0.553773  0.381461  1
  Si  Si209  1  0.813528  0.303308  0.335105  1
  Si  Si210  1  0.813528  0.803308  0.168767  1
  Si  Si211  1  0.313512  0.303690  0.168691  1
  Si  Si212  1  0.313512  0.803689  0.335030  1
  Si  Si213  1  0.186263  0.303300  0.335105  1
  Si  Si214  1  0.186263  0.803300  0.168766  1
  Si  Si215  1  0.686288  0.303694  0.168691  1
  Si  Si216  1  0.686288  0.803694  0.335029  1
  Si  Si217  1  0.186231  0.447311  0.216453  1
  Si  Si218  1  0.686334  0.946841  0.216191  1
  Si  Si219  1  0.813565  0.447316  0.216459  1
  Si  Si220  1  0.313451  0.946836  0.216185  1
  Si  Si221  1  0.186351  0.197194  0.262867  1
  Si  Si222  1  0.686412  0.696827  0.262829  1
  Si  Si223  1  0.813441  0.197202  0.262868  1
  Si  Si224  1  0.313379  0.696821  0.262828  1
  Si  Si225  1  0.685958  0.051840  0.332534  1
  Si  Si226  1  0.685958  0.551841  0.166195  1
  Si  Si227  1  0.186203  0.053250  0.166916  1
  Si  Si228  1  0.186203  0.553250  0.333254  1
  Si  Si229  1  0.313833  0.051851  0.332533  1
  Si  Si230  1  0.313833  0.551851  0.166194  1
  Si  Si231  1  0.813589  0.053236  0.166916  1
  Si  Si232  1  0.813589  0.553236  0.333254  1
  Si  Si233  1  0.685964  0.801835  0.216348  1
  Si  Si234  1  0.185891  0.303391  0.216596  1
  Si  Si235  1  0.313831  0.801845  0.216353  1
  Si  Si236  1  0.813898  0.303377  0.216590  1
  Si  Si237  1  0.313937  0.447617  0.264555  1
  Si  Si238  1  0.813996  0.946159  0.263919  1
  Si  Si239  1  0.685855  0.447603  0.264555  1
  Si  Si240  1  0.185796  0.946169  0.263919  1
  Si  Si241  1  0.313603  0.197800  0.215045  1
  Si  Si242  1  0.313603  0.697801  0.381384  1
  Si  Si243  1  0.814000  0.196165  0.380993  1
  Si  Si244  1  0.814000  0.696165  0.214655  1
  Si  Si245  1  0.686184  0.197786  0.215039  1
  Si  Si246  1  0.686184  0.697786  0.381378  1
  Si  Si247  1  0.185797  0.196176  0.380999  1
  Si  Si248  1  0.185797  0.696176  0.214660  1
  Si  Si249  1  0.813447  0.553288  0.547423  1
  Si  Si250  1  0.313381  0.053767  0.547793  1
  Si  Si251  1  0.186333  0.553283  0.547417  1
  Si  Si252  1  0.686419  0.053774  0.547800  1
  Si  Si253  1  0.813528  0.803308  0.501444  1
  Si  Si254  1  0.313512  0.303689  0.501369  1
  Si  Si255  1  0.186263  0.803301  0.501443  1
  Si  Si256  1  0.686288  0.303694  0.501368  1
  Si  Si257  1  0.186231  0.447311  0.549130  1
  Si  Si258  1  0.186231  0.947311  0.382791  1
  Si  Si259  1  0.686334  0.446841  0.382530  1
  Si  Si260  1  0.686334  0.946841  0.548869  1
  Si  Si261  1  0.813565  0.447316  0.549137  1
  Si  Si262  1  0.813565  0.947316  0.382798  1
  Si  Si263  1  0.313451  0.446835  0.382523  1
  Si  Si264  1  0.313451  0.946835  0.548862  1
  Si  Si265  1  0.186351  0.197194  0.595544  1
  Si  Si266  1  0.186351  0.697194  0.429206  1
  Si  Si267  1  0.686412  0.196827  0.429167  1
  Si  Si268  1  0.686412  0.696827  0.595506  1
  Si  Si269  1  0.813441  0.197201  0.595545  1
  Si  Si270  1  0.813441  0.697202  0.429206  1
  Si  Si271  1  0.313379  0.196821  0.429167  1
  Si  Si272  1  0.313379  0.696821  0.595506  1
  Si  Si273  1  0.685958  0.551841  0.498872  1
  Si  Si274  1  0.186203  0.053250  0.499593  1
  Si  Si275  1  0.313833  0.551851  0.498872  1
  Si  Si276  1  0.813589  0.053237  0.499593  1
  Si  Si277  1  0.685964  0.301835  0.382687  1
  Si  Si278  1  0.685964  0.801835  0.549025  1
  Si  Si279  1  0.185891  0.303391  0.549274  1
  Si  Si280  1  0.185891  0.803392  0.382935  1
  Si  Si281  1  0.313831  0.301845  0.382692  1
  Si  Si282  1  0.313831  0.801845  0.549031  1
  Si  Si283  1  0.813898  0.303377  0.549268  1
  Si  Si284  1  0.813898  0.803377  0.382929  1
  Si  Si285  1  0.313937  0.447617  0.597232  1
  Si  Si286  1  0.313937  0.947617  0.430894  1
  Si  Si287  1  0.813996  0.446159  0.430258  1
  Si  Si288  1  0.813996  0.946159  0.596597  1
  Si  Si289  1  0.685855  0.447603  0.597232  1
  Si  Si290  1  0.685855  0.947603  0.430894  1
  Si  Si291  1  0.185796  0.446169  0.430257  1
  Si  Si292  1  0.185796  0.946169  0.596596  1
  Si  Si293  1  0.313603  0.197800  0.547723  1
  Si  Si294  1  0.814000  0.696165  0.547332  1
  Si  Si295  1  0.686184  0.197787  0.547716  1
  Si  Si296  1  0.185797  0.696176  0.547337  1
  H  H297  1  0.772744  0.750334  0.117658  1
  H  H298  1  0.271726  0.250265  0.117604  1
  H  H299  1  0.227048  0.750320  0.117657  1
  H  H300  1  0.728067  0.250278  0.117604  1
  H  H301  1  0.764154  0.500817  0.117902  1
  H  H302  1  0.258600  0.001151  0.118191  1
  H  H303  1  0.235640  0.500839  0.117901  1
  H  H304  1  0.741194  0.001120  0.118191  1
  H  H305  1  0.772744  0.250334  0.646655  1
  H  H306  1  0.271726  0.750265  0.646601  1
  H  H307  1  0.227048  0.250320  0.646654  1
  H  H308  1  0.728067  0.750278  0.646601  1
  H  H309  1  0.764154  -0.000000  0.646899  1
  H  H310  1  0.258600  0.501151  0.647188  1
  H  H311  1  0.235640  -0.000000  0.646898  1
  H  H312  1  0.741194  0.501120  0.647188  1
