# generated using pymatgen
data_Si16H2O33
_symmetry_space_group_name_H-M   'P 1'
_cell_length_a   12.71631753
_cell_length_b   12.70113620
_cell_length_c   38.86527170
_cell_angle_alpha   90.00000000
_cell_angle_beta   90.00000000
_cell_angle_gamma   120.00000000
_symmetry_Int_Tables_number   1
_chemical_formula_structural   Si16H2O33
_chemical_formula_sum   'Si32 H4 O66'
_cell_volume   5436.21064706
_cell_formula_units_Z   2
loop_
 _symmetry_equiv_pos_site_id
 _symmetry_equiv_pos_as_xyz
  1  'x, y, z'
loop_
 _atom_site_type_symbol
 _atom_site_label
 _atom_site_symmetry_multiplicity
 _atom_site_fract_x
 _atom_site_fract_y
 _atom_site_fract_z
 _atom_site_occupancy
  O  O1  1  0.335933  0.664677  0.151806  1
  O  O2  1  0.332823  0.779608  0.206903  1
  O  O3  1  0.226350  0.547481  0.207037  1
  O  O4  1  0.458248  0.673045  0.206706  1
  O  O5  1  0.785091  0.326305  0.206968  1
  O  O6  1  0.553254  0.220131  0.206701  1
  O  O7  1  0.678629  0.452067  0.207043  1
  O  O8  1  0.678034  0.219982  0.316319  1
  O  O9  1  0.785066  0.452042  0.316054  1
  O  O10  1  0.553277  0.327000  0.316344  1
  O  O11  1  0.226268  0.672791  0.316168  1
  O  O12  1  0.457998  0.779515  0.316373  1
  O  O13  1  0.333112  0.547629  0.316109  1
  O  O14  1  0.378804  -0.000000  0.230983  1
  O  O15  1  0.005721  0.372731  0.230984  1
  O  O16  1  0.632469  0.626771  0.230896  1
  O  O17  1  0.631945  -0.000000  0.292154  1
  O  O18  1  0.005640  0.626335  0.292184  1
  O  O19  1  0.379347  0.373389  0.292154  1
  O  O20  1  0.219156  0.786090  0.261613  1
  O  O21  1  0.219555  0.427230  0.261563  1
  O  O22  1  0.578072  0.786223  0.261522  1
  O  O23  1  0.791810  0.213274  0.261599  1
  O  O24  1  0.433302  0.213901  0.261489  1
  O  O25  1  0.792205  0.572527  0.261490  1
  O  O26  1  0.438293  0.865823  0.261635  1
  O  O27  1  0.139387  0.566499  0.261609  1
  O  O28  1  0.438742  0.566830  0.261334  1
  O  O29  1  0.871998  0.432800  0.261475  1
  O  O30  1  0.572614  0.133944  0.261469  1
  O  O31  1  0.573083  0.433401  0.261734  1
  O  O32  1  0.674790  0.336238  0.151828  1
  O  O33  1  0.335933  0.664677  0.371340  1
  O  O34  1  0.332823  0.779608  0.426436  1
  O  O35  1  0.226350  0.547481  0.426570  1
  O  O36  1  0.458248  0.673045  0.426239  1
  O  O37  1  0.785091  0.326305  0.426501  1
  O  O38  1  0.553254  0.220131  0.426234  1
  O  O39  1  0.678629  0.452067  0.426577  1
  O  O40  1  0.678034  0.219982  0.535853  1
  O  O41  1  0.785066  0.452042  0.535588  1
  O  O42  1  0.553277  0.327000  0.535877  1
  O  O43  1  0.226268  0.672791  0.535701  1
  O  O44  1  0.457998  0.779515  0.535907  1
  O  O45  1  0.333112  0.547629  0.535642  1
  O  O46  1  0.378804  -0.000000  0.450517  1
  O  O47  1  0.005721  0.372731  0.450517  1
  O  O48  1  0.632469  0.626771  0.450429  1
  O  O49  1  0.631945  -0.000000  0.511687  1
  O  O50  1  0.005640  0.626335  0.511717  1
  O  O51  1  0.379347  0.373389  0.511687  1
  O  O52  1  0.219156  0.786090  0.481146  1
  O  O53  1  0.219555  0.427230  0.481096  1
  O  O54  1  0.578072  0.786223  0.481055  1
  O  O55  1  0.791810  0.213274  0.481132  1
  O  O56  1  0.433302  0.213901  0.481022  1
  O  O57  1  0.792205  0.572527  0.481023  1
  O  O58  1  0.438293  0.865823  0.481168  1
  O  O59  1  0.139387  0.566499  0.481142  1
  O  O60  1  0.438742  0.566830  0.480868  1
  O  O61  1  0.871998  0.432800  0.481009  1
  O  O62  1  0.572614  0.133944  0.481002  1
  O  O63  1  0.573083  0.433401  0.481267  1
  O  O64  1  0.674790  0.336238  0.371361  1
  O  O65  1  0.335933  0.664677  0.590873  1
  O  O66  1  0.674790  0.336238  0.590894  1
  Si  Si67  1  0.336238  0.861010  0.238166  1
  Si  Si68  1  0.144520  0.469300  0.238152  1
  Si  Si69  1  0.536095  0.669328  0.237973  1
  Si  Si70  1  0.866889  0.330241  0.238125  1
  Si  Si71  1  0.475360  0.138908  0.238030  1
  Si  Si72  1  0.674955  0.530346  0.238146  1
  Si  Si73  1  0.674519  0.138680  0.284996  1
  Si  Si74  1  0.866875  0.530025  0.284920  1
  Si  Si75  1  0.475638  0.330810  0.285054  1
  Si  Si76  1  0.144442  0.668887  0.285032  1
  Si  Si77  1  0.535612  0.860813  0.285025  1
  Si  Si78  1  0.336860  0.469757  0.284902  1
  Si  Si79  1  0.672695  0.333226  0.191940  1
  Si  Si80  1  0.338827  0.666549  0.191919  1
  Si  Si81  1  0.338828  0.666386  0.331228  1
  Si  Si82  1  0.672447  0.333325  0.331252  1
  Si  Si83  1  0.336238  0.861010  0.457699  1
  Si  Si84  1  0.144520  0.469300  0.457685  1
  Si  Si85  1  0.536095  0.669328  0.457506  1
  Si  Si86  1  0.866889  0.330241  0.457658  1
  Si  Si87  1  0.475360  0.138908  0.457564  1
  Si  Si88  1  0.674955  0.530346  0.457679  1
  Si  Si89  1  0.674519  0.138680  0.504529  1
  Si  Si90  1  0.866875  0.530025  0.504453  1
  Si  Si91  1  0.475638  0.330810  0.504587  1
  Si  Si92  1  0.144442  0.668887  0.504565  1
  Si  Si93  1  0.535612  0.860813  0.504558  1
  Si  Si94  1  0.336860  0.469757  0.504436  1
  Si  Si95  1  0.672695  0.333226  0.411473  1
  Si  Si96  1  0.338827  0.666549  0.411452  1
  Si  Si97  1  0.338828  0.666386  0.550762  1
  Si  Si98  1  0.672447  0.333325  0.550785  1
  H  H99  1  0.335933  0.664677  0.128650  1
  H  H100  1  0.674790  0.336238  0.128671  1
  H  H101  1  0.335933  0.664677  0.614030  1
  H  H102  1  0.674790  0.336238  0.614051  1
