# generated using pymatgen
data_Si6H2O13
_symmetry_space_group_name_H-M   'P 1'
_cell_length_a   5.00751566
_cell_length_b   35.73547428
_cell_length_c   62.45033230
_cell_angle_alpha   149.99913445
_cell_angle_beta   90.00000000
_cell_angle_gamma   90.00000000
_symmetry_Int_Tables_number   1
_chemical_formula_structural   Si6H2O13
_chemical_formula_sum   'Si36 H12 O78'
_cell_volume   5587.76313204
_cell_formula_units_Z   6
loop_
 _symmetry_equiv_pos_site_id
 _symmetry_equiv_pos_as_xyz
  1  'x, y, z'
loop_
 _atom_site_type_symbol
 _atom_site_label
 _atom_site_symmetry_multiplicity
 _atom_site_fract_x
 _atom_site_fract_y
 _atom_site_fract_z
 _atom_site_occupancy
  O  O1  1  0.878784  0.549191  0.174535  1
  O  O2  1  0.545929  0.216386  0.174840  1
  O  O3  1  0.212540  0.882983  0.174812  1
  O  O4  1  0.120282  0.450337  0.174548  1
  O  O5  1  0.787193  0.117493  0.174824  1
  O  O6  1  0.454101  0.784199  0.174855  1
  O  O7  1  0.165891  0.871878  0.242549  1
  O  O8  1  0.833561  0.538341  0.242387  1
  O  O9  1  0.500082  0.205526  0.242605  1
  O  O10  1  0.165977  0.461857  0.369668  1
  O  O11  1  0.833650  0.128321  0.369629  1
  O  O12  1  0.499454  0.794673  0.369374  1
  O  O13  1  0.165915  0.666491  0.242330  1
  O  O14  1  0.833631  0.333704  0.242600  1
  O  O15  1  0.499776  -0.000000  0.242569  1
  O  O16  1  0.167413  0.666970  0.437404  1
  O  O17  1  0.832117  0.333227  0.437201  1
  O  O18  1  0.499769  -0.000000  0.437403  1
  O  O19  1  0.166911  0.871925  0.310347  1
  O  O20  1  0.833051  0.538862  0.310408  1
  O  O21  1  0.498700  0.204886  0.310083  1
  O  O22  1  0.166490  0.461331  0.437171  1
  O  O23  1  0.832635  0.128268  0.437377  1
  O  O24  1  0.500840  0.795307  0.437483  1
  O  O25  1  -0.000000  0.000000  0.313144  1
  O  O26  1  0.666547  0.666530  0.312866  1
  O  O27  1  0.332989  0.333669  0.313100  1
  O  O28  1  -0.000000  0.419037  0.313160  1
  O  O29  1  0.666626  0.085283  0.313056  1
  O  O30  1  0.332771  0.751736  0.312840  1
  O  O31  1  -0.000000  0.581163  0.228319  1
  O  O32  1  0.666770  0.248463  0.228627  1
  O  O33  1  0.332918  0.914917  0.228632  1
  O  O34  1  0.000000  0.581818  0.366943  1
  O  O35  1  0.665741  0.247899  0.366647  1
  O  O36  1  0.333366  0.914769  0.366850  1
  O  O37  1  -0.000000  0.000000  0.366916  1
  O  O38  1  0.666661  0.667042  0.366895  1
  O  O39  1  0.332881  0.333151  0.366618  1
  O  O40  1  -0.000000  0.418375  0.451131  1
  O  O41  1  0.666174  0.085423  0.451417  1
  O  O42  1  0.333795  0.752293  0.451415  1
  O  O43  1  0.879063  0.901217  0.291014  1
  O  O44  1  0.545840  0.567914  0.290908  1
  O  O45  1  0.212182  0.234534  0.290843  1
  O  O46  1  0.879260  0.549861  0.389050  1
  O  O47  1  0.545442  0.215999  0.388833  1
  O  O48  1  0.212350  0.882705  0.388840  1
  O  O49  1  0.878784  0.549191  0.504899  1
  O  O50  1  0.545929  0.216386  0.505204  1
  O  O51  1  0.212540  0.882983  0.505176  1
  O  O52  1  0.120479  0.098979  0.389014  1
  O  O53  1  0.787357  0.765662  0.388860  1
  O  O54  1  0.453699  0.432282  0.388879  1
  O  O55  1  0.120752  0.451003  0.291059  1
  O  O56  1  0.786998  0.117211  0.290882  1
  O  O57  1  0.453609  0.783807  0.290841  1
  O  O58  1  0.120282  0.450337  0.504912  1
  O  O59  1  0.787193  0.117493  0.505188  1
  O  O60  1  0.454101  0.784199  0.505219  1
  O  O61  1  0.665844  0.898036  0.251279  1
  O  O62  1  0.333571  0.564223  0.250870  1
  O  O63  1  -0.000000  0.231461  0.251137  1
  O  O64  1  0.665966  0.435976  0.352500  1
  O  O65  1  0.333697  0.102162  0.352433  1
  O  O66  1  -0.000000  0.768739  0.352201  1
  O  O67  1  0.665920  0.666383  0.250868  1
  O  O68  1  0.333626  0.333816  0.251248  1
  O  O69  1  0.000000  -0.000000  0.251150  1
  O  O70  1  0.667446  0.667204  0.428934  1
  O  O71  1  0.332083  0.332989  0.428497  1
  O  O72  1  -0.000000  -0.000000  0.428801  1
  O  O73  1  0.666943  0.897788  0.327509  1
  O  O74  1  0.333066  0.564940  0.327596  1
  O  O75  1  0.998634  0.231068  0.327283  1
  O  O76  1  0.666475  0.435253  0.428512  1
  O  O77  1  0.332604  0.102405  0.428906  1
  O  O78  1  -0.000000  0.769125  0.428733  1
  Si  Si79  1  0.919751  0.916009  0.273789  1
  Si  Si80  1  0.586927  0.582425  0.273535  1
  Si  Si81  1  0.253503  0.249547  0.273745  1
  Si  Si82  1  0.919809  0.468127  0.357158  1
  Si  Si83  1  0.586964  0.134395  0.357068  1
  Si  Si84  1  0.253159  0.800919  0.356872  1
  Si  Si85  1  0.919662  0.616132  0.223644  1
  Si  Si86  1  0.587072  0.283459  0.223963  1
  Si  Si87  1  0.253364  0.949823  0.223908  1
  Si  Si88  1  0.920686  0.616792  0.406287  1
  Si  Si89  1  0.585980  0.282830  0.405970  1
  Si  Si90  1  0.253368  0.949790  0.406200  1
  Si  Si91  1  0.920258  0.915981  0.322881  1
  Si  Si92  1  0.586771  0.582943  0.322897  1
  Si  Si93  1  0.252632  0.249087  0.322622  1
  Si  Si94  1  0.919899  0.467495  0.455798  1
  Si  Si95  1  0.586437  0.134581  0.456114  1
  Si  Si96  1  0.254091  0.801386  0.456064  1
  Si  Si97  1  0.079285  0.084212  0.406247  1
  Si  Si98  1  0.746908  0.751107  0.406214  1
  Si  Si99  1  0.412769  0.417250  0.405971  1
  Si  Si100  1  0.079640  0.532699  0.322927  1
  Si  Si101  1  0.745448  0.198808  0.322640  1
  Si  Si102  1  0.413106  0.865613  0.322827  1
  Si  Si103  1  0.078849  0.383403  0.455814  1
  Si  Si104  1  0.746173  0.050405  0.456060  1
  Si  Si105  1  0.413555  0.717365  0.456121  1
  Si  Si106  1  0.079880  0.384065  0.273826  1
  Si  Si107  1  0.746182  0.050374  0.273736  1
  Si  Si108  1  0.412470  0.716738  0.273491  1
  Si  Si109  1  0.079790  0.084190  0.357130  1
  Si  Si110  1  0.746035  0.750652  0.356884  1
  Si  Si111  1  0.412611  0.417774  0.357125  1
  Si  Si112  1  0.079730  0.532071  0.223663  1
  Si  Si113  1  0.746380  0.199279  0.223914  1
  Si  Si114  1  0.412578  0.865803  0.223968  1
  H  H115  1  0.878784  0.549191  0.160123  1
  H  H116  1  0.545929  0.216386  0.160429  1
  H  H117  1  0.212540  0.882983  0.160400  1
  H  H118  1  0.120282  0.450337  0.160137  1
  H  H119  1  0.787193  0.117493  0.160412  1
  H  H120  1  0.454101  0.784199  0.160444  1
  H  H121  1  0.878784  0.549191  0.519310  1
  H  H122  1  0.545929  0.216386  0.519616  1
  H  H123  1  0.212540  0.882983  0.519587  1
  H  H124  1  0.120282  0.450337  0.519324  1
  H  H125  1  0.787193  0.117493  0.519599  1
  H  H126  1  0.454101  0.784199  0.519631  1
