# generated using pymatgen
data_Si6H2O13
_symmetry_space_group_name_H-M   'P 1'
_cell_length_a   13.66911044
_cell_length_b   8.35476497
_cell_length_c   38.56072992
_cell_angle_alpha   90.00000000
_cell_angle_beta   120.00000000
_cell_angle_gamma   90.00000000
_symmetry_Int_Tables_number   1
_chemical_formula_structural   Si6H2O13
_chemical_formula_sum   'Si24 H8 O52'
_cell_volume   3813.73372597
_cell_formula_units_Z   4
loop_
 _symmetry_equiv_pos_site_id
 _symmetry_equiv_pos_as_xyz
  1  'x, y, z'
loop_
 _atom_site_type_symbol
 _atom_site_label
 _atom_site_symmetry_multiplicity
 _atom_site_fract_x
 _atom_site_fract_y
 _atom_site_fract_z
 _atom_site_occupancy
  O  O1  1  0.630137  0.252393  0.173087  1
  O  O2  1  0.369065  0.248262  0.173065  1
  O  O3  1  0.369060  0.751896  0.173080  1
  O  O4  1  0.630132  0.747856  0.173103  1
  O  O5  1  0.336864  0.000000  0.336369  1
  O  O6  1  0.122721  0.000000  0.408320  1
  O  O7  1  0.541704  0.000000  0.485434  1
  O  O8  1  0.662304  0.000000  0.365346  1
  O  O9  1  0.878720  0.000000  0.293023  1
  O  O10  1  0.458911  0.000000  0.217294  1
  O  O11  1  0.540854  0.500109  0.408992  1
  O  O12  1  0.337987  0.500103  0.485084  1
  O  O13  1  0.121416  0.500093  0.335881  1
  O  O14  1  0.458547  0.500091  0.293444  1
  O  O15  1  0.663370  0.500102  0.217194  1
  O  O16  1  0.878568  0.500110  0.365120  1
  O  O17  1  0.369501  0.248336  0.304102  1
  O  O18  1  0.000000  0.249402  0.396581  1
  O  O19  1  0.630137  0.252393  0.527469  1
  O  O20  1  0.630615  0.251808  0.396610  1
  O  O21  1  -0.000000  0.250245  0.304021  1
  O  O22  1  0.369065  0.248262  0.527447  1
  O  O23  1  0.630605  0.748447  0.396625  1
  O  O24  1  0.369060  0.751896  0.527463  1
  O  O25  1  0.000000  0.749949  0.304035  1
  O  O26  1  0.369492  0.751811  0.304118  1
  O  O27  1  0.630132  0.747856  0.527485  1
  O  O28  1  0.000000  0.750808  0.396594  1
  O  O29  1  0.215169  0.250643  0.325679  1
  O  O30  1  0.214859  0.251263  0.451218  1
  O  O31  1  0.569520  0.247505  0.451230  1
  O  O32  1  0.784748  0.249706  0.375030  1
  O  O33  1  0.784424  0.248928  0.249361  1
  O  O34  1  0.430160  0.252667  0.249352  1
  O  O35  1  0.569514  0.752665  0.451246  1
  O  O36  1  0.214855  0.748952  0.451233  1
  O  O37  1  0.215158  0.749578  0.325693  1
  O  O38  1  0.430152  0.747569  0.249368  1
  O  O39  1  0.784420  0.751264  0.249376  1
  O  O40  1  0.784736  0.750476  0.375043  1
  O  O41  1  0.425769  0.250921  0.376680  1
  O  O42  1  0.148258  0.249881  0.376618  1
  O  O43  1  0.425442  0.250263  0.474862  1
  O  O44  1  0.574239  0.249562  0.324052  1
  O  O45  1  0.851358  0.250692  0.324026  1
  O  O46  1  0.573890  0.249346  0.225738  1
  O  O47  1  0.425762  0.749303  0.376695  1
  O  O48  1  0.425435  0.749977  0.474877  1
  O  O49  1  0.148250  0.750265  0.376632  1
  O  O50  1  0.574231  0.750617  0.324067  1
  O  O51  1  0.573883  0.750822  0.225754  1
  O  O52  1  0.851350  0.749567  0.324040  1
  Si  Si53  1  0.333424  0.186590  0.334650  1
  Si  Si54  1  0.121811  0.186649  0.409393  1
  Si  Si55  1  0.544520  0.186621  0.484486  1
  Si  Si56  1  0.666517  0.186670  0.366286  1
  Si  Si57  1  0.878023  0.186609  0.291367  1
  Si  Si58  1  0.454950  0.186652  0.216439  1
  Si  Si59  1  0.544740  0.686671  0.409548  1
  Si  Si60  1  0.333293  0.686652  0.484429  1
  Si  Si61  1  0.121675  0.686598  0.334506  1
  Si  Si62  1  0.455270  0.686595  0.291495  1
  Si  Si63  1  0.666299  0.686597  0.216482  1
  Si  Si64  1  0.878044  0.686676  0.366246  1
  Si  Si65  1  0.666509  0.813535  0.366297  1
  Si  Si66  1  0.878018  0.813604  0.291378  1
  Si  Si67  1  0.454944  0.813534  0.216452  1
  Si  Si68  1  0.333416  0.813606  0.334661  1
  Si  Si69  1  0.121806  0.813543  0.409404  1
  Si  Si70  1  0.544514  0.813598  0.484498  1
  Si  Si71  1  0.455277  0.313592  0.291482  1
  Si  Si72  1  0.666303  0.313605  0.216470  1
  Si  Si73  1  0.878052  0.313539  0.366235  1
  Si  Si74  1  0.544745  0.313545  0.409535  1
  Si  Si75  1  0.333297  0.313550  0.484417  1
  Si  Si76  1  0.121683  0.313589  0.334495  1
  H  H77  1  0.630137  0.252393  0.149747  1
  H  H78  1  0.369065  0.248262  0.149725  1
  H  H79  1  0.369060  0.751896  0.149741  1
  H  H80  1  0.630132  0.747856  0.149763  1
  H  H81  1  0.630137  0.252393  0.550809  1
  H  H82  1  0.369065  0.248262  0.550787  1
  H  H83  1  0.369060  0.751896  0.550803  1
  H  H84  1  0.630132  0.747856  0.550825  1
