# generated using pymatgen
data_Si12H2O25
_symmetry_space_group_name_H-M   'P 1'
_cell_length_a   9.64820297
_cell_length_b   7.59048876
_cell_length_c   40.53351557
_cell_angle_alpha   90.00000000
_cell_angle_beta   90.00000000
_cell_angle_gamma   90.00000000
_symmetry_Int_Tables_number   1
_chemical_formula_structural   Si12H2O25
_chemical_formula_sum   'Si24 H4 O50'
_cell_volume   2968.45483437
_cell_formula_units_Z   2
loop_
 _symmetry_equiv_pos_site_id
 _symmetry_equiv_pos_as_xyz
  1  'x, y, z'
loop_
 _atom_site_type_symbol
 _atom_site_label
 _atom_site_symmetry_multiplicity
 _atom_site_fract_x
 _atom_site_fract_y
 _atom_site_fract_z
 _atom_site_occupancy
  O  O1  1  0.009188  0.499873  0.145559  1
  O  O2  1  0.061957  0.332700  0.200144  1
  O  O3  1  0.439984  0.332591  0.202431  1
  O  O4  1  0.061944  0.667108  0.200141  1
  O  O5  1  0.439996  0.667202  0.202430  1
  O  O6  1  0.939989  0.667208  0.321666  1
  O  O7  1  0.561946  0.667090  0.323953  1
  O  O8  1  0.939994  0.332594  0.321664  1
  O  O9  1  0.561953  0.332690  0.323953  1
  O  O10  1  0.247048  0.223934  0.239049  1
  O  O11  1  0.247033  0.775863  0.239051  1
  O  O12  1  0.747038  0.775866  0.285043  1
  O  O13  1  0.747039  0.223927  0.285043  1
  O  O14  1  0.068551  0.000000  0.221036  1
  O  O15  1  0.429029  0.000000  0.223190  1
  O  O16  1  0.929018  -0.000000  0.300904  1
  O  O17  1  0.568542  0.000000  0.303060  1
  O  O18  1  0.995629  0.245664  0.260669  1
  O  O19  1  0.495630  0.245658  0.263424  1
  O  O20  1  0.995624  0.754148  0.260670  1
  O  O21  1  0.495621  0.754131  0.263426  1
  O  O22  1  0.009188  0.499873  0.374753  1
  O  O23  1  0.509187  0.499921  0.149343  1
  O  O24  1  0.254539  0.499907  0.171264  1
  O  O25  1  0.754541  0.499900  0.352829  1
  O  O26  1  0.061957  0.332700  0.429339  1
  O  O27  1  0.439984  0.332591  0.431625  1
  O  O28  1  0.061944  0.667108  0.429336  1
  O  O29  1  0.439996  0.667202  0.431624  1
  O  O30  1  0.939989  0.667208  0.550861  1
  O  O31  1  0.561946  0.667090  0.553148  1
  O  O32  1  0.939994  0.332594  0.550858  1
  O  O33  1  0.561953  0.332690  0.553147  1
  O  O34  1  0.247048  0.223934  0.468244  1
  O  O35  1  0.247033  0.775863  0.468246  1
  O  O36  1  0.747038  0.775866  0.514237  1
  O  O37  1  0.747039  0.223927  0.514238  1
  O  O38  1  0.068551  0.000000  0.450231  1
  O  O39  1  0.429029  -0.000000  0.452385  1
  O  O40  1  0.929018  0.000000  0.530098  1
  O  O41  1  0.568542  0.000000  0.532255  1
  O  O42  1  0.995629  0.245664  0.489864  1
  O  O43  1  0.495630  0.245658  0.492619  1
  O  O44  1  0.995624  0.754148  0.489865  1
  O  O45  1  0.495621  0.754131  0.492621  1
  O  O46  1  0.009188  0.499873  0.603948  1
  O  O47  1  0.509187  0.499921  0.378537  1
  O  O48  1  0.254539  0.499907  0.400459  1
  O  O49  1  0.754541  0.499900  0.582024  1
  O  O50  1  0.509187  0.499921  0.607732  1
  Si  Si51  1  0.088926  0.202036  0.229759  1
  Si  Si52  1  0.407048  0.202030  0.231700  1
  Si  Si53  1  0.088884  0.797759  0.229757  1
  Si  Si54  1  0.407024  0.797789  0.231698  1
  Si  Si55  1  0.907055  0.797781  0.292396  1
  Si  Si56  1  0.588928  0.797764  0.294338  1
  Si  Si57  1  0.907036  0.202009  0.292396  1
  Si  Si58  1  0.588909  0.202050  0.294336  1
  Si  Si59  1  0.093994  0.499908  0.178269  1
  Si  Si60  1  0.413274  0.499874  0.180233  1
  Si  Si61  1  0.913281  0.499918  0.343857  1
  Si  Si62  1  0.593984  0.499881  0.345829  1
  Si  Si63  1  0.088926  0.202036  0.458954  1
  Si  Si64  1  0.407048  0.202030  0.460894  1
  Si  Si65  1  0.088884  0.797759  0.458951  1
  Si  Si66  1  0.407024  0.797789  0.460893  1
  Si  Si67  1  0.907055  0.797781  0.521591  1
  Si  Si68  1  0.588928  0.797764  0.523532  1
  Si  Si69  1  0.907036  0.202009  0.521591  1
  Si  Si70  1  0.588909  0.202050  0.523530  1
  Si  Si71  1  0.093994  0.499908  0.407464  1
  Si  Si72  1  0.413274  0.499874  0.409428  1
  Si  Si73  1  0.913281  0.499918  0.573051  1
  Si  Si74  1  0.593984  0.499881  0.575024  1
  H  H75  1  0.009188  0.499873  0.123355  1
  H  H76  1  0.509187  0.499921  0.127139  1
  H  H77  1  0.009188  0.499873  0.626152  1
  H  H78  1  0.509187  0.499921  0.629936  1
