# generated using pymatgen
data_Si4H2O9
_symmetry_space_group_name_H-M   'P 1'
_cell_length_a   5.14486249
_cell_length_b   12.83257430
_cell_length_c   37.28837361
_cell_angle_alpha   48.15432052
_cell_angle_beta   90.00000000
_cell_angle_gamma   90.00000000
_symmetry_Int_Tables_number   1
_chemical_formula_structural   Si4H2O9
_chemical_formula_sum   'Si8 H4 O18'
_cell_volume   1833.93880336
_cell_formula_units_Z   2
loop_
 _symmetry_equiv_pos_site_id
 _symmetry_equiv_pos_as_xyz
  1  'x, y, z'
loop_
 _atom_site_type_symbol
 _atom_site_label
 _atom_site_symmetry_multiplicity
 _atom_site_fract_x
 _atom_site_fract_y
 _atom_site_fract_z
 _atom_site_occupancy
  O  O1  1  0.249592  0.511841  0.285511  1
  O  O2  1  0.749599  0.988275  0.290919  1
  O  O3  1  0.007250  0.689158  0.282136  1
  O  O4  1  0.492176  0.189153  0.271024  1
  O  O5  1  0.507326  0.689816  0.279883  1
  O  O6  1  0.992099  0.189821  0.272994  1
  O  O7  1  0.243572  0.771336  0.206276  1
  O  O8  1  0.755986  0.228761  0.204136  1
  O  O9  1  0.255981  0.271330  0.309161  1
  O  O10  1  0.749897  0.488264  0.354490  1
  O  O11  1  0.249895  0.011838  0.349078  1
  O  O12  1  0.992177  0.310960  0.357853  1
  O  O13  1  0.507233  0.810966  0.368961  1
  O  O14  1  0.492097  0.310289  0.360129  1
  O  O15  1  0.007316  0.810300  0.367013  1
  O  O16  1  0.243572  0.771336  0.435864  1
  O  O17  1  0.755986  0.228761  0.433724  1
  O  O18  1  0.743590  0.728762  0.330847  1
  Si  Si19  1  0.252250  0.668555  0.262382  1
  Si  Si20  1  0.747206  0.151597  0.258701  1
  Si  Si21  1  0.752272  0.651588  0.311716  1
  Si  Si22  1  0.247226  0.168552  0.300248  1
  Si  Si23  1  0.247202  0.348514  0.328286  1
  Si  Si24  1  0.752248  0.831559  0.339749  1
  Si  Si25  1  0.747222  0.331549  0.377619  1
  Si  Si26  1  0.252266  0.848514  0.381297  1
  H  H27  1  0.243572  0.771336  0.182140  1
  H  H28  1  0.755986  0.228761  0.180000  1
  H  H29  1  0.243572  0.771336  0.460000  1
  H  H30  1  0.755986  0.228761  0.457860  1
