# generated using pymatgen
data_Si4H2O9
_symmetry_space_group_name_H-M   'P 1'
_cell_length_a   8.33899979
_cell_length_b   28.28807734
_cell_length_c   40.06477792
_cell_angle_alpha   134.91593616
_cell_angle_beta   90.00000000
_cell_angle_gamma   90.00000000
_symmetry_Int_Tables_number   1
_chemical_formula_structural   Si4H2O9
_chemical_formula_sum   'Si32 H16 O72'
_cell_volume   6692.70055856
_cell_formula_units_Z   8
loop_
 _symmetry_equiv_pos_site_id
 _symmetry_equiv_pos_as_xyz
  1  'x, y, z'
loop_
 _atom_site_type_symbol
 _atom_site_label
 _atom_site_symmetry_multiplicity
 _atom_site_fract_x
 _atom_site_fract_y
 _atom_site_fract_z
 _atom_site_occupancy
  O  O1  1  0.771940  0.500467  0.323261  1
  O  O2  1  0.272534  -0.000000  0.323306  1
  O  O3  1  0.227849  0.500454  0.323244  1
  O  O4  1  0.727258  -0.000000  0.323325  1
  O  O5  1  0.772744  0.250334  0.448040  1
  O  O6  1  0.772744  0.750334  0.198777  1
  O  O7  1  0.271726  0.250265  0.198696  1
  O  O8  1  0.271726  0.750265  0.447959  1
  O  O9  1  0.227048  0.250320  0.448039  1
  O  O10  1  0.227048  0.750319  0.198776  1
  O  O11  1  0.728067  0.250279  0.198696  1
  O  O12  1  0.728067  0.750278  0.447959  1
  O  O13  1  0.000000  0.556563  0.319357  1
  O  O14  1  0.499901  0.058251  0.320685  1
  O  O15  1  0.000000  0.806674  0.258685  1
  O  O16  1  0.499894  0.308765  0.258190  1
  O  O17  1  0.000000  0.442779  0.325288  1
  O  O18  1  0.499892  0.941160  0.324212  1
  O  O19  1  -0.000000  0.193015  0.387740  1
  O  O20  1  0.499896  0.691221  0.388015  1
  O  O21  1  0.752626  0.625345  0.367023  1
  O  O22  1  0.249499  0.125409  0.367336  1
  O  O23  1  0.247173  0.625336  0.367015  1
  O  O24  1  0.750284  0.125420  0.367344  1
  O  O25  1  0.752606  0.875362  0.279484  1
  O  O26  1  0.249205  0.375389  0.279654  1
  O  O27  1  0.247195  0.875350  0.279476  1
  O  O28  1  0.750575  0.375402  0.279664  1
  O  O29  1  0.738884  0.536608  0.278361  1
  O  O30  1  0.239761  0.037106  0.278831  1
  O  O31  1  0.260875  0.536609  0.278353  1
  O  O32  1  0.760066  0.037104  0.278840  1
  O  O33  1  0.738917  0.786635  0.279716  1
  O  O34  1  0.247091  0.286407  0.279938  1
  O  O35  1  0.260864  0.786636  0.279721  1
  O  O36  1  0.752716  0.286403  0.279931  1
  O  O37  1  0.254112  0.464577  0.368620  1
  O  O38  1  0.754117  0.964137  0.368276  1
  O  O39  1  0.745712  0.464573  0.368628  1
  O  O40  1  0.245645  0.964139  0.368267  1
  O  O41  1  0.260794  0.213858  0.367070  1
  O  O42  1  0.754127  0.714156  0.366811  1
  O  O43  1  0.739009  0.213855  0.367064  1
  O  O44  1  0.245657  0.714158  0.366816  1
  O  O45  1  0.499895  0.547895  0.244703  1
  O  O46  1  -0.000000  0.052941  0.247900  1
  O  O47  1  0.499897  0.797888  0.324606  1
  O  O48  1  0.000000  0.306679  0.324967  1
  O  O49  1  0.499895  0.443577  0.393468  1
  O  O50  1  0.000000  0.939003  0.390832  1
  O  O51  1  0.499893  0.197481  0.319909  1
  O  O52  1  0.000000  0.689013  0.319188  1
  O  O53  1  0.740977  0.625530  0.278307  1
  O  O54  1  0.249234  0.125640  0.278670  1
  O  O55  1  0.258840  0.625545  0.278313  1
  O  O56  1  0.750522  0.125620  0.278663  1
  O  O57  1  0.740967  0.875525  0.368427  1
  O  O58  1  0.249062  0.375644  0.368740  1
  O  O59  1  0.258849  0.875540  0.368432  1
  O  O60  1  0.750696  0.375622  0.368732  1
  O  O61  1  0.764154  -0.000000  0.448406  1
  O  O62  1  0.764154  0.500817  0.199143  1
  O  O63  1  0.258600  0.001151  0.199576  1
  O  O64  1  0.258600  0.501151  0.448838  1
  O  O65  1  0.235640  0.000000  0.448404  1
  O  O66  1  0.235640  0.500839  0.199142  1
  O  O67  1  0.741194  0.001120  0.199576  1
  O  O68  1  0.741194  0.501120  0.448839  1
  O  O69  1  0.764175  0.750828  0.323249  1
  O  O70  1  0.241712  0.250348  0.324045  1
  O  O71  1  0.235614  0.750850  0.323267  1
  O  O72  1  0.758092  0.250318  0.324021  1
  Si  Si73  1  0.813447  0.553287  0.321801  1
  Si  Si74  1  0.313381  0.053767  0.322357  1
  Si  Si75  1  0.186333  0.553283  0.321793  1
  Si  Si76  1  0.686419  0.053773  0.322367  1
  Si  Si77  1  0.813528  0.803308  0.252901  1
  Si  Si78  1  0.313512  0.303689  0.252788  1
  Si  Si79  1  0.186263  0.803300  0.252900  1
  Si  Si80  1  0.686288  0.303694  0.252787  1
  Si  Si81  1  0.186231  0.447311  0.324360  1
  Si  Si82  1  0.686334  0.946841  0.323968  1
  Si  Si83  1  0.813565  0.447316  0.324369  1
  Si  Si84  1  0.313451  0.946835  0.323958  1
  Si  Si85  1  0.186351  0.197194  0.393913  1
  Si  Si86  1  0.686412  0.696827  0.393855  1
  Si  Si87  1  0.813441  0.197202  0.393914  1
  Si  Si88  1  0.313379  0.696821  0.393855  1
  Si  Si89  1  0.685958  0.551840  0.249047  1
  Si  Si90  1  0.186203  0.053250  0.250127  1
  Si  Si91  1  0.313833  0.551851  0.249046  1
  Si  Si92  1  0.813589  0.053237  0.250127  1
  Si  Si93  1  0.685964  0.801835  0.324203  1
  Si  Si94  1  0.185891  0.303391  0.324575  1
  Si  Si95  1  0.313831  0.801845  0.324211  1
  Si  Si96  1  0.813898  0.303377  0.324566  1
  Si  Si97  1  0.313937  0.447617  0.396442  1
  Si  Si98  1  0.813996  0.946159  0.395490  1
  Si  Si99  1  0.685855  0.447603  0.396442  1
  Si  Si100  1  0.185796  0.946169  0.395489  1
  Si  Si101  1  0.313603  0.197800  0.322251  1
  Si  Si102  1  0.814000  0.696165  0.321665  1
  Si  Si103  1  0.686184  0.197786  0.322242  1
  Si  Si104  1  0.185797  0.696176  0.321673  1
  H  H105  1  0.772744  0.250334  0.470504  1
  H  H106  1  0.772744  0.750334  0.176314  1
  H  H107  1  0.271726  0.250265  0.176233  1
  H  H108  1  0.271726  0.750265  0.470423  1
  H  H109  1  0.227048  0.250320  0.470503  1
  H  H110  1  0.227048  0.750320  0.176313  1
  H  H111  1  0.728067  0.250279  0.176233  1
  H  H112  1  0.728067  0.750278  0.470423  1
  H  H113  1  0.764154  -0.000000  0.470870  1
  H  H114  1  0.764154  0.500817  0.176680  1
  H  H115  1  0.258600  0.001151  0.177112  1
  H  H116  1  0.258600  0.501151  0.471302  1
  H  H117  1  0.235640  -0.000000  0.470868  1
  H  H118  1  0.235640  0.500839  0.176678  1
  H  H119  1  0.741194  0.001120  0.177112  1
  H  H120  1  0.741194  0.501120  0.471302  1
