# generated using pymatgen
data_Si20H2O41
_symmetry_space_group_name_H-M   'P 1'
_cell_length_a   8.49308350
_cell_length_b   14.48572599
_cell_length_c   59.45312604
_cell_angle_alpha   90.00000000
_cell_angle_beta   90.00000000
_cell_angle_gamma   90.00000000
_symmetry_Int_Tables_number   1
_chemical_formula_structural   Si20H2O41
_chemical_formula_sum   'Si80 H8 O164'
_cell_volume   7314.42775121
_cell_formula_units_Z   4
loop_
 _symmetry_equiv_pos_site_id
 _symmetry_equiv_pos_as_xyz
  1  'x, y, z'
loop_
 _atom_site_type_symbol
 _atom_site_label
 _atom_site_symmetry_multiplicity
 _atom_site_fract_x
 _atom_site_fract_y
 _atom_site_fract_z
 _atom_site_occupancy
  Si  Si1  1  0.428265  0.105954  0.178914  1
  Si  Si2  1  0.252226  0.105950  0.224526  1
  Si  Si3  1  0.571513  0.105950  0.249675  1
  Si  Si4  1  0.747553  0.105953  0.204063  1
  Si  Si5  1  0.428264  0.605952  0.249674  1
  Si  Si6  1  0.252224  0.605950  0.204061  1
  Si  Si7  1  0.571511  0.605951  0.178913  1
  Si  Si8  1  0.747552  0.605954  0.224525  1
  Si  Si9  1  0.571516  0.894017  0.249673  1
  Si  Si10  1  0.747555  0.894021  0.204061  1
  Si  Si11  1  0.428268  0.894021  0.178912  1
  Si  Si12  1  0.252228  0.894018  0.224525  1
  Si  Si13  1  0.571517  0.394018  0.178914  1
  Si  Si14  1  0.747557  0.394021  0.224526  1
  Si  Si15  1  0.428269  0.394020  0.249675  1
  Si  Si16  1  0.252230  0.394017  0.204062  1
  Si  Si17  1  0.499893  0.249985  0.142866  1
  Si  Si18  1  0.999892  0.249985  0.214295  1
  Si  Si19  1  0.999890  0.749985  0.214293  1
  Si  Si20  1  0.428265  0.105954  0.321771  1
  Si  Si21  1  0.252226  0.105950  0.367383  1
  Si  Si22  1  0.571513  0.105950  0.392532  1
  Si  Si23  1  0.747553  0.105953  0.346920  1
  Si  Si24  1  0.428264  0.605952  0.392531  1
  Si  Si25  1  0.252224  0.605950  0.346918  1
  Si  Si26  1  0.571511  0.605951  0.321770  1
  Si  Si27  1  0.747552  0.605954  0.367382  1
  Si  Si28  1  0.571516  0.894017  0.392531  1
  Si  Si29  1  0.747555  0.894021  0.346918  1
  Si  Si30  1  0.428268  0.894021  0.321770  1
  Si  Si31  1  0.252228  0.894018  0.367382  1
  Si  Si32  1  0.571517  0.394018  0.321771  1
  Si  Si33  1  0.747557  0.394021  0.367383  1
  Si  Si34  1  0.428269  0.394020  0.392532  1
  Si  Si35  1  0.252230  0.394017  0.346920  1
  Si  Si36  1  0.499893  0.249985  0.285723  1
  Si  Si37  1  0.999892  0.249985  0.357152  1
  Si  Si38  1  0.499890  0.749985  0.285722  1
  Si  Si39  1  0.999890  0.749985  0.357150  1
  O  O40  1  0.409899  0.319706  0.126447  1
  O  O41  1  0.589885  0.180264  0.126447  1
  O  O42  1  0.589889  0.319704  0.159284  1
  O  O43  1  0.114822  0.319703  0.201438  1
  O  O44  1  0.409899  0.319706  0.269304  1
  O  O45  1  0.884964  0.319707  0.227151  1
  O  O46  1  0.589887  0.819703  0.269303  1
  O  O47  1  0.114820  0.819703  0.227149  1
  O  O48  1  0.409897  0.819707  0.159283  1
  O  O49  1  0.884963  0.819706  0.201436  1
  O  O50  1  0.409893  0.680267  0.269303  1
  O  O51  1  0.884959  0.680268  0.227149  1
  O  O52  1  0.589883  0.680265  0.159283  1
  O  O53  1  0.114816  0.680264  0.201436  1
  O  O54  1  0.409896  0.180268  0.159284  1
  O  O55  1  0.884960  0.180267  0.201438  1
  O  O56  1  0.589885  0.180264  0.269305  1
  O  O57  1  0.114819  0.180264  0.227151  1
  O  O58  1  0.416842  0.999987  0.172107  1
  O  O59  1  0.204586  0.999984  0.226158  1
  O  O60  1  0.582939  0.999982  0.256480  1
  O  O61  1  0.795196  0.999988  0.202430  1
  O  O62  1  0.416842  0.499987  0.256480  1
  O  O63  1  0.204586  0.499982  0.202430  1
  O  O64  1  0.582939  0.499984  0.172107  1
  O  O65  1  0.795195  0.499987  0.226158  1
  O  O66  1  0.317576  0.119939  0.199846  1
  O  O67  1  0.398749  0.119937  0.240339  1
  O  O68  1  0.682202  0.119939  0.228743  1
  O  O69  1  0.601030  0.119941  0.188250  1
  O  O70  1  0.317576  0.619939  0.228742  1
  O  O71  1  0.398749  0.619937  0.188248  1
  O  O72  1  0.682199  0.619940  0.199845  1
  O  O73  1  0.601026  0.619941  0.240338  1
  O  O74  1  0.682204  0.880031  0.228741  1
  O  O75  1  0.601031  0.880034  0.188248  1
  O  O76  1  0.317580  0.880032  0.199845  1
  O  O77  1  0.398754  0.880029  0.240338  1
  O  O78  1  0.682207  0.380032  0.199846  1
  O  O79  1  0.601034  0.380034  0.240339  1
  O  O80  1  0.317581  0.380031  0.228743  1
  O  O81  1  0.398753  0.380030  0.188250  1
  O  O82  1  0.589889  0.319704  0.302141  1
  O  O83  1  0.114822  0.319703  0.344295  1
  O  O84  1  0.409899  0.319706  0.412162  1
  O  O85  1  0.884964  0.319707  0.370008  1
  O  O86  1  0.589887  0.819703  0.412160  1
  O  O87  1  0.114820  0.819703  0.370006  1
  O  O88  1  0.409897  0.819707  0.302140  1
  O  O89  1  0.884963  0.819706  0.344293  1
  O  O90  1  0.409893  0.680267  0.412161  1
  O  O91  1  0.884959  0.680268  0.370006  1
  O  O92  1  0.589883  0.680265  0.302140  1
  O  O93  1  0.114816  0.680264  0.344294  1
  O  O94  1  0.409896  0.180268  0.302142  1
  O  O95  1  0.884960  0.180267  0.344295  1
  O  O96  1  0.589885  0.180264  0.412162  1
  O  O97  1  0.114819  0.180264  0.370008  1
  O  O98  1  0.416842  0.999987  0.314964  1
  O  O99  1  0.204586  0.999984  0.369015  1
  O  O100  1  0.582939  0.999982  0.399337  1
  O  O101  1  0.795196  0.999988  0.345287  1
  O  O102  1  0.416842  0.499987  0.399337  1
  O  O103  1  0.204586  0.499982  0.345287  1
  O  O104  1  0.582939  0.499984  0.314964  1
  O  O105  1  0.795195  0.499987  0.369015  1
  O  O106  1  0.317576  0.119939  0.342703  1
  O  O107  1  0.398749  0.119937  0.383196  1
  O  O108  1  0.682202  0.119939  0.371600  1
  O  O109  1  0.601030  0.119941  0.331107  1
  O  O110  1  0.317576  0.619939  0.371599  1
  O  O111  1  0.398749  0.619937  0.331106  1
  O  O112  1  0.682199  0.619940  0.342702  1
  O  O113  1  0.601026  0.619941  0.383195  1
  O  O114  1  0.682204  0.880031  0.371598  1
  O  O115  1  0.601031  0.880034  0.331105  1
  O  O116  1  0.317580  0.880032  0.342702  1
  O  O117  1  0.398754  0.880029  0.383195  1
  O  O118  1  0.682207  0.380032  0.342703  1
  O  O119  1  0.601034  0.380034  0.383196  1
  O  O120  1  0.317581  0.380031  0.371600  1
  O  O121  1  0.398753  0.380030  0.331107  1
  H  H122  1  0.409899  0.319706  0.111309  1
  H  H123  1  0.589885  0.180264  0.111309  1
  H  H124  1  0.409897  0.819707  0.144145  1
  H  H125  1  0.589883  0.680265  0.144145  1
  O  O126  1  0.589889  0.319704  0.444998  1
  O  O127  1  0.114822  0.319703  0.487153  1
  O  O128  1  0.409899  0.319706  0.555019  1
  O  O129  1  0.884964  0.319707  0.512865  1
  O  O130  1  0.589887  0.819703  0.555017  1
  O  O131  1  0.114820  0.819703  0.512863  1
  O  O132  1  0.409897  0.819707  0.444997  1
  O  O133  1  0.884963  0.819706  0.487151  1
  O  O134  1  0.409893  0.680267  0.555018  1
  O  O135  1  0.884959  0.680268  0.512863  1
  O  O136  1  0.589883  0.680265  0.444997  1
  O  O137  1  0.114816  0.680264  0.487151  1
  O  O138  1  0.409896  0.180268  0.444999  1
  O  O139  1  0.884960  0.180267  0.487153  1
  O  O140  1  0.589885  0.180264  0.555019  1
  O  O141  1  0.114819  0.180264  0.512866  1
  O  O142  1  0.416842  0.999987  0.457822  1
  O  O143  1  0.204586  0.999984  0.511872  1
  O  O144  1  0.582939  0.999982  0.542194  1
  O  O145  1  0.795196  0.999988  0.488144  1
  O  O146  1  0.416842  0.499987  0.542194  1
  O  O147  1  0.204586  0.499982  0.488144  1
  O  O148  1  0.582939  0.499984  0.457822  1
  O  O149  1  0.795195  0.499987  0.511872  1
  O  O150  1  0.317576  0.119939  0.485561  1
  O  O151  1  0.398749  0.119937  0.526054  1
  O  O152  1  0.682202  0.119939  0.514457  1
  O  O153  1  0.601030  0.119941  0.473964  1
  O  O154  1  0.317576  0.619939  0.514456  1
  O  O155  1  0.398749  0.619937  0.473963  1
  O  O156  1  0.682199  0.619940  0.485559  1
  O  O157  1  0.601026  0.619941  0.526052  1
  O  O158  1  0.682204  0.880031  0.514456  1
  O  O159  1  0.601031  0.880034  0.473962  1
  O  O160  1  0.317580  0.880032  0.485559  1
  O  O161  1  0.398754  0.880029  0.526052  1
  O  O162  1  0.682207  0.380032  0.485560  1
  O  O163  1  0.601034  0.380034  0.526053  1
  O  O164  1  0.317581  0.380031  0.514457  1
  O  O165  1  0.398753  0.380030  0.473964  1
  Si  Si166  1  0.428265  0.105954  0.464628  1
  Si  Si167  1  0.252226  0.105950  0.510241  1
  Si  Si168  1  0.571513  0.105950  0.535389  1
  Si  Si169  1  0.747553  0.105953  0.489777  1
  Si  Si170  1  0.428264  0.605952  0.535388  1
  Si  Si171  1  0.252224  0.605950  0.489775  1
  Si  Si172  1  0.571511  0.605951  0.464627  1
  Si  Si173  1  0.747552  0.605954  0.510239  1
  Si  Si174  1  0.571516  0.894017  0.535388  1
  Si  Si175  1  0.747555  0.894021  0.489775  1
  Si  Si176  1  0.428268  0.894021  0.464627  1
  Si  Si177  1  0.252228  0.894018  0.510239  1
  Si  Si178  1  0.571517  0.394018  0.464628  1
  Si  Si179  1  0.747557  0.394021  0.510241  1
  Si  Si180  1  0.428269  0.394020  0.535389  1
  Si  Si181  1  0.252230  0.394017  0.489777  1
  Si  Si182  1  0.499893  0.249985  0.428580  1
  Si  Si183  1  0.999892  0.249985  0.500009  1
  Si  Si184  1  0.499890  0.749985  0.428579  1
  Si  Si185  1  0.999890  0.749985  0.500007  1
  Si  Si186  1  0.428265  0.105954  0.607485  1
  Si  Si187  1  0.252226  0.105950  0.653098  1
  Si  Si188  1  0.571513  0.105950  0.678247  1
  Si  Si189  1  0.747553  0.105953  0.632634  1
  Si  Si190  1  0.428264  0.605952  0.678245  1
  Si  Si191  1  0.252224  0.605950  0.632632  1
  Si  Si192  1  0.571511  0.605951  0.607484  1
  Si  Si193  1  0.747552  0.605954  0.653097  1
  Si  Si194  1  0.571516  0.894017  0.678245  1
  Si  Si195  1  0.747555  0.894021  0.632632  1
  Si  Si196  1  0.428268  0.894021  0.607484  1
  Si  Si197  1  0.252228  0.894018  0.653096  1
  Si  Si198  1  0.571517  0.394018  0.607485  1
  Si  Si199  1  0.747557  0.394021  0.653098  1
  Si  Si200  1  0.428269  0.394020  0.678247  1
  Si  Si201  1  0.252230  0.394017  0.632634  1
  Si  Si202  1  0.499893  0.249985  0.571437  1
  Si  Si203  1  0.999892  0.249985  0.642866  1
  Si  Si204  1  0.499890  0.749985  0.571436  1
  Si  Si205  1  0.999890  0.749985  0.642864  1
  Si  Si206  1  0.499890  0.749985  0.714293  1
  O  O207  1  0.589889  0.319704  0.587856  1
  O  O208  1  0.114822  0.319703  0.630010  1
  O  O209  1  0.409899  0.319706  0.697876  1
  O  O210  1  0.884964  0.319707  0.655723  1
  O  O211  1  0.589887  0.819703  0.697874  1
  O  O212  1  0.114820  0.819703  0.655720  1
  O  O213  1  0.409897  0.819707  0.587854  1
  O  O214  1  0.884963  0.819706  0.630008  1
  O  O215  1  0.409893  0.680267  0.697875  1
  O  O216  1  0.884959  0.680268  0.655720  1
  O  O217  1  0.589883  0.680265  0.587854  1
  O  O218  1  0.114816  0.680264  0.630008  1
  O  O219  1  0.409896  0.180268  0.587856  1
  O  O220  1  0.884960  0.180267  0.630010  1
  O  O221  1  0.589885  0.180264  0.697876  1
  O  O222  1  0.114819  0.180264  0.655723  1
  O  O223  1  0.416842  0.999987  0.600679  1
  O  O224  1  0.204586  0.999984  0.654729  1
  O  O225  1  0.582939  0.999982  0.685051  1
  O  O226  1  0.795196  0.999988  0.631001  1
  O  O227  1  0.416842  0.499987  0.685051  1
  O  O228  1  0.204586  0.499982  0.631001  1
  O  O229  1  0.582939  0.499984  0.600679  1
  O  O230  1  0.795195  0.499987  0.654729  1
  O  O231  1  0.317576  0.119939  0.628418  1
  O  O232  1  0.398749  0.119937  0.668911  1
  O  O233  1  0.682202  0.119939  0.657314  1
  O  O234  1  0.601030  0.119941  0.616822  1
  O  O235  1  0.317576  0.619939  0.657313  1
  O  O236  1  0.398749  0.619937  0.616820  1
  O  O237  1  0.682199  0.619940  0.628416  1
  O  O238  1  0.601026  0.619941  0.668909  1
  O  O239  1  0.682204  0.880031  0.657313  1
  O  O240  1  0.601031  0.880034  0.616819  1
  O  O241  1  0.317580  0.880032  0.628416  1
  O  O242  1  0.398754  0.880029  0.668909  1
  O  O243  1  0.682207  0.380032  0.628417  1
  O  O244  1  0.601034  0.380034  0.668911  1
  O  O245  1  0.317581  0.380031  0.657314  1
  O  O246  1  0.398753  0.380030  0.616821  1
  O  O247  1  0.409897  0.819707  0.730711  1
  O  O248  1  0.589883  0.680265  0.730712  1
  H  H249  1  0.409899  0.319706  0.713014  1
  H  H250  1  0.589885  0.180264  0.713014  1
  H  H251  1  0.409897  0.819707  0.745849  1
  H  H252  1  0.589883  0.680265  0.745850  1
