# generated using pymatgen
data_Si2H2O5
_symmetry_space_group_name_H-M   'P 1'
_cell_length_a   21.53046891
_cell_length_b   20.31202810
_cell_length_c   32.80694158
_cell_angle_alpha   59.95796653
_cell_angle_beta   90.00000000
_cell_angle_gamma   69.29978325
_symmetry_Int_Tables_number   1
_chemical_formula_structural   Si2H2O5
_chemical_formula_sum   'Si32 H32 O80'
_cell_volume   11337.3102239
_cell_formula_units_Z   16
loop_
 _symmetry_equiv_pos_site_id
 _symmetry_equiv_pos_as_xyz
  1  'x, y, z'
loop_
 _atom_site_type_symbol
 _atom_site_label
 _atom_site_symmetry_multiplicity
 _atom_site_fract_x
 _atom_site_fract_y
 _atom_site_fract_z
 _atom_site_occupancy
  O  O1  1  0.499453  0.139861  0.276240  1
  O  O2  1  0.499453  0.639860  0.431221  1
  O  O3  1  0.001109  0.138863  0.276327  1
  O  O4  1  0.001109  0.638863  0.431308  1
  O  O5  1  0.501138  0.859403  0.362945  1
  O  O6  1  0.501138  0.359402  0.207964  1
  O  O7  1  0.000000  0.860488  0.362834  1
  O  O8  1  -0.000000  0.360488  0.207853  1
  O  O9  1  -0.000000  0.389401  0.353868  1
  O  O10  1  0.498700  0.390046  0.353450  1
  O  O11  1  0.998686  0.610645  0.285068  1
  O  O12  1  0.500434  0.609926  0.285521  1
  O  O13  1  0.465420  0.642219  0.352967  1
  O  O14  1  0.965364  0.641881  0.353021  1
  O  O15  1  0.465409  0.892285  0.275399  1
  O  O16  1  0.465409  0.392285  0.430380  1
  O  O17  1  0.965345  0.891939  0.275454  1
  O  O18  1  0.965345  0.391939  0.430435  1
  O  O19  1  0.034396  0.357751  0.286149  1
  O  O20  1  0.534454  0.357316  0.286243  1
  O  O21  1  0.034407  0.107814  0.363574  1
  O  O22  1  0.034407  0.607814  0.208593  1
  O  O23  1  0.534463  0.107374  0.363663  1
  O  O24  1  0.534463  0.607374  0.208682  1
  O  O25  1  0.369969  0.714224  0.381436  1
  O  O26  1  0.871266  0.712337  0.382827  1
  O  O27  1  0.371519  0.915910  0.320071  1
  O  O28  1  0.870263  0.915460  0.319281  1
  O  O29  1  0.129861  0.334292  0.344207  1
  O  O30  1  0.628545  0.333689  0.345211  1
  O  O31  1  0.128301  0.537527  0.282371  1
  O  O32  1  0.629507  0.535818  0.282000  1
  O  O33  1  0.630147  0.285497  0.257557  1
  O  O34  1  0.128749  0.287375  0.256225  1
  O  O35  1  0.629225  0.083448  0.319674  1
  O  O36  1  0.130331  0.083982  0.320440  1
  O  O37  1  0.869680  0.665753  0.294672  1
  O  O38  1  0.371055  0.666206  0.293796  1
  O  O39  1  0.870631  0.462781  0.357035  1
  O  O40  1  0.369480  0.464396  0.357510  1
  O  O41  1  0.455881  0.771989  0.348408  1
  O  O42  1  0.956049  0.771557  0.348588  1
  O  O43  1  0.043941  0.477979  0.284550  1
  O  O44  1  0.543739  0.477692  0.284693  1
  O  O45  1  0.544561  0.227296  0.290847  1
  O  O46  1  0.044278  0.227809  0.290654  1
  O  O47  1  0.955276  0.521954  0.354495  1
  O  O48  1  0.455532  0.522160  0.354406  1
  O  O49  1  0.277533  0.740069  0.321132  1
  O  O50  1  0.777595  0.730451  0.327057  1
  O  O51  1  0.277525  0.989883  0.247186  1
  O  O52  1  0.277525  0.489882  0.402167  1
  O  O53  1  0.777431  0.988158  0.245773  1
  O  O54  1  0.777431  0.488157  0.400755  1
  O  O55  1  0.222285  0.267695  0.312563  1
  O  O56  1  0.722225  0.258122  0.318480  1
  O  O57  1  0.222292  0.017511  0.393601  1
  O  O58  1  0.222292  0.517511  0.238620  1
  O  O59  1  0.722386  0.015779  0.392281  1
  O  O60  1  0.722386  0.515778  0.237299  1
  O  O61  1  0.251411  0.248568  0.395399  1
  O  O62  1  0.251411  0.748567  0.240418  1
  O  O63  1  0.749077  0.754539  0.242443  1
  O  O64  1  0.749077  0.254538  0.397424  1
  O  O65  1  0.247579  0.500815  0.321954  1
  O  O66  1  0.750678  0.494032  0.321736  1
  O  O67  1  0.248403  0.250065  0.239958  1
  O  O68  1  0.248403  0.750065  0.394940  1
  O  O69  1  0.750756  0.753661  0.397698  1
  O  O70  1  0.750756  0.253661  0.242716  1
  O  O71  1  0.252233  0.998494  0.322678  1
  O  O72  1  0.749055  0.994929  0.321352  1
  O  O73  1  0.279810  0.611752  0.322170  1
  O  O74  1  0.778651  0.609508  0.319924  1
  O  O75  1  0.219997  0.141666  0.312893  1
  O  O76  1  0.721179  0.138210  0.311041  1
  O  O77  1  0.718342  0.389511  0.314128  1
  O  O78  1  0.219779  0.391768  0.316500  1
  O  O79  1  0.781444  0.857951  0.323929  1
  O  O80  1  0.280049  0.861627  0.325849  1
  Si  Si81  1  0.448192  0.688038  0.381046  1
  Si  Si82  1  0.949137  0.687122  0.381431  1
  Si  Si83  1  0.449184  0.863216  0.326832  1
  Si  Si84  1  0.948335  0.863275  0.326657  1
  Si  Si85  1  0.051639  0.386331  0.319569  1
  Si  Si86  1  0.550673  0.386335  0.319681  1
  Si  Si87  1  0.050635  0.562511  0.265056  1
  Si  Si88  1  0.551446  0.561701  0.265157  1
  Si  Si89  1  0.552081  0.311362  0.258243  1
  Si  Si90  1  0.051014  0.312353  0.257829  1
  Si  Si91  1  0.551334  0.136063  0.312420  1
  Si  Si92  1  0.052048  0.136094  0.312563  1
  Si  Si93  1  0.947746  0.613548  0.319558  1
  Si  Si94  1  0.448786  0.613447  0.319498  1
  Si  Si95  1  0.948518  0.437482  0.373964  1
  Si  Si96  1  0.447764  0.438216  0.373902  1
  Si  Si97  1  0.292750  0.693160  0.293571  1
  Si  Si98  1  0.791625  0.691162  0.295246  1
  Si  Si99  1  0.291727  0.517565  0.350227  1
  Si  Si100  1  0.792354  0.514655  0.349075  1
  Si  Si101  1  0.207059  0.236014  0.280279  1
  Si  Si102  1  0.708195  0.232839  0.282333  1
  Si  Si103  1  0.208093  0.059386  0.337258  1
  Si  Si104  1  0.707501  0.057045  0.335964  1
  Si  Si105  1  0.706686  0.307447  0.344651  1
  Si  Si106  1  0.207722  0.309579  0.342943  1
  Si  Si107  1  0.707410  0.483135  0.289343  1
  Si  Si108  1  0.206699  0.486186  0.290431  1
  Si  Si109  1  0.793119  0.764225  0.358057  1
  Si  Si110  1  0.292115  0.767380  0.356026  1
  Si  Si111  1  0.792362  0.940660  0.302461  1
  Si  Si112  1  0.293127  0.942964  0.303828  1
  H  H113  1  0.499453  0.139861  0.248806  1
  H  H114  1  0.499453  0.639861  0.458654  1
  H  H115  1  0.001109  0.138863  0.248893  1
  H  H116  1  0.001109  0.638863  0.458741  1
  H  H117  1  0.501138  0.859402  0.390378  1
  H  H118  1  0.501138  0.359402  0.180530  1
  H  H119  1  -0.000000  0.860488  0.390267  1
  H  H120  1  0.000000  0.360488  0.180420  1
  H  H121  1  0.465409  0.892285  0.247966  1
  H  H122  1  0.465409  0.392285  0.457813  1
  H  H123  1  0.965345  0.891939  0.248021  1
  H  H124  1  0.965345  0.391939  0.457868  1
  H  H125  1  0.034407  0.107814  0.391007  1
  H  H126  1  0.034407  0.607814  0.181160  1
  H  H127  1  0.534463  0.107374  0.391096  1
  H  H128  1  0.534463  0.607373  0.181249  1
  H  H129  1  0.277525  0.989883  0.219752  1
  H  H130  1  0.277525  0.489882  0.429600  1
  H  H131  1  0.777431  0.988158  0.218340  1
  H  H132  1  0.777431  0.488157  0.428188  1
  H  H133  1  0.222292  0.017511  0.421035  1
  H  H134  1  0.222292  0.517511  0.211187  1
  H  H135  1  0.722386  0.015779  0.419714  1
  H  H136  1  0.722386  0.515778  0.209866  1
  H  H137  1  0.251411  0.248568  0.422833  1
  H  H138  1  0.251411  0.748567  0.212985  1
  H  H139  1  0.749077  0.754539  0.215009  1
  H  H140  1  0.749077  0.254538  0.424857  1
  H  H141  1  0.248403  0.250065  0.212525  1
  H  H142  1  0.248403  0.750065  0.422373  1
  H  H143  1  0.750756  0.753661  0.425131  1
  H  H144  1  0.750756  0.253661  0.215283  1
