# generated using pymatgen
data_Si29(HO15)4
_symmetry_space_group_name_H-M   'P 1'
_cell_length_a   8.49308350
_cell_length_b   14.48572599
_cell_length_c   45.32775078
_cell_angle_alpha   90.00000000
_cell_angle_beta   90.00000000
_cell_angle_gamma   90.00000000
_symmetry_Int_Tables_number   1
_chemical_formula_structural   Si29(HO15)4
_chemical_formula_sum   'Si58 H8 O120'
_cell_volume   5576.604298
_cell_formula_units_Z   2
loop_
 _symmetry_equiv_pos_site_id
 _symmetry_equiv_pos_as_xyz
  1  'x, y, z'
loop_
 _atom_site_type_symbol
 _atom_site_label
 _atom_site_symmetry_multiplicity
 _atom_site_fract_x
 _atom_site_fract_y
 _atom_site_fract_z
 _atom_site_occupancy
  O  O1  1  0.589889  0.319704  0.130165  1
  O  O2  1  0.114822  0.319703  0.185455  1
  O  O3  1  0.409899  0.319706  0.274471  1
  O  O4  1  0.884964  0.319707  0.219181  1
  O  O5  1  0.589887  0.819703  0.274469  1
  O  O6  1  0.114820  0.819703  0.219178  1
  O  O7  1  0.409897  0.819707  0.130163  1
  O  O8  1  0.884963  0.819706  0.185453  1
  O  O9  1  0.409893  0.680267  0.274469  1
  O  O10  1  0.884959  0.680268  0.219178  1
  O  O11  1  0.589883  0.680265  0.130163  1
  O  O12  1  0.114816  0.680264  0.185453  1
  O  O13  1  0.409896  0.180268  0.130165  1
  O  O14  1  0.884960  0.180267  0.185455  1
  O  O15  1  0.589885  0.180264  0.274471  1
  O  O16  1  0.114819  0.180264  0.219181  1
  O  O17  1  0.416842  -0.000000  0.146984  1
  O  O18  1  0.204586  0.000000  0.217878  1
  O  O19  1  0.582939  0.000000  0.257650  1
  O  O20  1  0.795196  0.000000  0.186756  1
  O  O21  1  0.416842  0.499987  0.257650  1
  O  O22  1  0.204586  0.499982  0.186756  1
  O  O23  1  0.582939  0.499984  0.146984  1
  O  O24  1  0.795195  0.499987  0.217878  1
  O  O25  1  0.317576  0.119939  0.183367  1
  O  O26  1  0.398749  0.119937  0.236479  1
  O  O27  1  0.682202  0.119939  0.221269  1
  O  O28  1  0.601030  0.119941  0.168157  1
  O  O29  1  0.317576  0.619939  0.221267  1
  O  O30  1  0.398749  0.619937  0.168155  1
  O  O31  1  0.682199  0.619940  0.183365  1
  O  O32  1  0.601026  0.619941  0.236477  1
  O  O33  1  0.682204  0.880031  0.221267  1
  O  O34  1  0.601031  0.880034  0.168155  1
  O  O35  1  0.317580  0.880032  0.183365  1
  O  O36  1  0.398754  0.880029  0.236477  1
  O  O37  1  0.682207  0.380032  0.183367  1
  O  O38  1  0.601034  0.380034  0.236479  1
  O  O39  1  0.317581  0.380031  0.221269  1
  O  O40  1  0.398753  0.380030  0.168157  1
  O  O41  1  0.589889  0.319704  0.317540  1
  O  O42  1  0.114822  0.319703  0.372831  1
  O  O43  1  0.409899  0.319706  0.461846  1
  O  O44  1  0.884964  0.319707  0.406556  1
  O  O45  1  0.589887  0.819703  0.461844  1
  O  O46  1  0.114820  0.819703  0.406554  1
  O  O47  1  0.409897  0.819707  0.317538  1
  O  O48  1  0.884963  0.819706  0.372828  1
  O  O49  1  0.409893  0.680267  0.461844  1
  O  O50  1  0.884959  0.680268  0.406554  1
  O  O51  1  0.589883  0.680265  0.317539  1
  O  O52  1  0.114816  0.680264  0.372828  1
  O  O53  1  0.409896  0.180268  0.317540  1
  O  O54  1  0.884960  0.180267  0.372831  1
  O  O55  1  0.589885  0.180264  0.461846  1
  O  O56  1  0.114819  0.180264  0.406557  1
  O  O57  1  0.416842  -0.000000  0.334359  1
  O  O58  1  0.204586  0.000000  0.405253  1
  O  O59  1  0.582939  -0.000000  0.445025  1
  O  O60  1  0.795196  0.000000  0.374131  1
  O  O61  1  0.416842  0.499987  0.445025  1
  O  O62  1  0.204586  0.499982  0.374131  1
  O  O63  1  0.582939  0.499984  0.334360  1
  O  O64  1  0.795195  0.499987  0.405253  1
  O  O65  1  0.317576  0.119939  0.370743  1
  O  O66  1  0.398749  0.119937  0.423854  1
  O  O67  1  0.682202  0.119939  0.408644  1
  O  O68  1  0.601030  0.119941  0.355533  1
  O  O69  1  0.317576  0.619939  0.408643  1
  O  O70  1  0.398749  0.619937  0.355530  1
  O  O71  1  0.682199  0.619940  0.370740  1
  O  O72  1  0.601026  0.619941  0.423852  1
  O  O73  1  0.682204  0.880031  0.408642  1
  O  O74  1  0.601031  0.880034  0.355530  1
  O  O75  1  0.317580  0.880032  0.370740  1
  O  O76  1  0.398754  0.880029  0.423852  1
  O  O77  1  0.682207  0.380032  0.370742  1
  O  O78  1  0.601034  0.380034  0.423854  1
  O  O79  1  0.317581  0.380031  0.408644  1
  O  O80  1  0.398753  0.380030  0.355532  1
  O  O81  1  0.589889  0.319704  0.504915  1
  O  O82  1  0.114822  0.319703  0.560206  1
  O  O83  1  0.409899  0.319706  0.649221  1
  O  O84  1  0.884964  0.319707  0.593932  1
  O  O85  1  0.589887  0.819703  0.649219  1
  O  O86  1  0.114820  0.819703  0.593929  1
  O  O87  1  0.409897  0.819707  0.504914  1
  O  O88  1  0.884963  0.819706  0.560203  1
  O  O89  1  0.409893  0.680267  0.649220  1
  O  O90  1  0.884959  0.680268  0.593929  1
  O  O91  1  0.589883  0.680265  0.504914  1
  O  O92  1  0.114816  0.680264  0.560204  1
  O  O93  1  0.409896  0.180268  0.504916  1
  O  O94  1  0.884960  0.180267  0.560206  1
  O  O95  1  0.589885  0.180264  0.649222  1
  O  O96  1  0.114819  0.180264  0.593932  1
  O  O97  1  0.416842  0.000000  0.521735  1
  O  O98  1  0.204586  0.000000  0.592629  1
  O  O99  1  0.582939  0.000000  0.632400  1
  O  O100  1  0.795196  -0.000000  0.561506  1
  O  O101  1  0.416842  0.499987  0.632400  1
  O  O102  1  0.204586  0.499982  0.561506  1
  O  O103  1  0.582939  0.499984  0.521735  1
  O  O104  1  0.795195  0.499987  0.592629  1
  O  O105  1  0.317576  0.119939  0.558118  1
  O  O106  1  0.398749  0.119937  0.611230  1
  O  O107  1  0.682202  0.119939  0.596019  1
  O  O108  1  0.601030  0.119941  0.542908  1
  O  O109  1  0.317576  0.619939  0.596018  1
  O  O110  1  0.398749  0.619937  0.542906  1
  O  O111  1  0.682199  0.619940  0.558116  1
  O  O112  1  0.601026  0.619941  0.611228  1
  O  O113  1  0.682204  0.880031  0.596018  1
  O  O114  1  0.601031  0.880034  0.542905  1
  O  O115  1  0.317580  0.880032  0.558115  1
  O  O116  1  0.398754  0.880029  0.611227  1
  O  O117  1  0.682207  0.380032  0.558118  1
  O  O118  1  0.601034  0.380034  0.611229  1
  O  O119  1  0.317581  0.380031  0.596019  1
  O  O120  1  0.398753  0.380030  0.542908  1
  Si  Si121  1  0.428265  0.105954  0.155912  1
  Si  Si122  1  0.252226  0.105950  0.215738  1
  Si  Si123  1  0.571513  0.105950  0.248724  1
  Si  Si124  1  0.747553  0.105953  0.188897  1
  Si  Si125  1  0.428264  0.605952  0.248722  1
  Si  Si126  1  0.252224  0.605950  0.188896  1
  Si  Si127  1  0.571511  0.605951  0.155910  1
  Si  Si128  1  0.747552  0.605954  0.215737  1
  Si  Si129  1  0.571516  0.894017  0.248722  1
  Si  Si130  1  0.747555  0.894021  0.188895  1
  Si  Si131  1  0.428268  0.894021  0.155910  1
  Si  Si132  1  0.252228  0.894018  0.215736  1
  Si  Si133  1  0.571517  0.394018  0.155911  1
  Si  Si134  1  0.747557  0.394021  0.215738  1
  Si  Si135  1  0.428269  0.394020  0.248724  1
  Si  Si136  1  0.252230  0.394017  0.188897  1
  Si  Si137  1  0.000000  0.249985  0.202319  1
  Si  Si138  1  0.000000  0.749985  0.202315  1
  Si  Si139  1  0.428265  0.105954  0.343287  1
  Si  Si140  1  0.252226  0.105950  0.403114  1
  Si  Si141  1  0.571513  0.105950  0.436099  1
  Si  Si142  1  0.747553  0.105953  0.376273  1
  Si  Si143  1  0.428264  0.605952  0.436098  1
  Si  Si144  1  0.252224  0.605950  0.376271  1
  Si  Si145  1  0.571511  0.605951  0.343285  1
  Si  Si146  1  0.747552  0.605954  0.403112  1
  Si  Si147  1  0.571516  0.894017  0.436097  1
  Si  Si148  1  0.747555  0.894021  0.376271  1
  Si  Si149  1  0.428268  0.894021  0.343285  1
  Si  Si150  1  0.252228  0.894018  0.403112  1
  Si  Si151  1  0.571517  0.394018  0.343287  1
  Si  Si152  1  0.747557  0.394021  0.403114  1
  Si  Si153  1  0.428269  0.394020  0.436099  1
  Si  Si154  1  0.252230  0.394017  0.376272  1
  Si  Si155  1  0.499893  0.249985  0.296005  1
  Si  Si156  1  -0.000000  0.249985  0.389694  1
  Si  Si157  1  0.499890  0.749985  0.296004  1
  Si  Si158  1  0.000000  0.749985  0.389691  1
  Si  Si159  1  0.428265  0.105954  0.530662  1
  Si  Si160  1  0.252226  0.105950  0.590489  1
  Si  Si161  1  0.571513  0.105950  0.623475  1
  Si  Si162  1  0.747553  0.105953  0.563648  1
  Si  Si163  1  0.428264  0.605952  0.623473  1
  Si  Si164  1  0.252224  0.605950  0.563646  1
  Si  Si165  1  0.571511  0.605951  0.530661  1
  Si  Si166  1  0.747552  0.605954  0.590487  1
  Si  Si167  1  0.571516  0.894017  0.623473  1
  Si  Si168  1  0.747555  0.894021  0.563646  1
  Si  Si169  1  0.428268  0.894021  0.530660  1
  Si  Si170  1  0.252228  0.894018  0.590487  1
  Si  Si171  1  0.571517  0.394018  0.530662  1
  Si  Si172  1  0.747557  0.394021  0.590489  1
  Si  Si173  1  0.428269  0.394020  0.623475  1
  Si  Si174  1  0.252230  0.394017  0.563648  1
  Si  Si175  1  0.499893  0.249985  0.483381  1
  Si  Si176  1  0.000000  0.249985  0.577069  1
  Si  Si177  1  0.499890  0.749985  0.483380  1
  Si  Si178  1  -0.000000  0.749985  0.577066  1
  H  H179  1  0.589889  0.319704  0.110309  1
  H  H180  1  0.409897  0.819707  0.110308  1
  H  H181  1  0.589883  0.680265  0.110308  1
  H  H182  1  0.409896  0.180268  0.110310  1
  H  H183  1  0.409899  0.319706  0.669077  1
  H  H184  1  0.589887  0.819703  0.669075  1
  H  H185  1  0.409893  0.680267  0.669075  1
  H  H186  1  0.589885  0.180264  0.669077  1
