# generated using pymatgen
data_Si22H2O45
_symmetry_space_group_name_H-M   'P 1'
_cell_length_a   13.14623884
_cell_length_b   5.11803959
_cell_length_c   60.32365354
_cell_angle_alpha   90.00000000
_cell_angle_beta   90.00000000
_cell_angle_gamma   90.00000000
_symmetry_Int_Tables_number   1
_chemical_formula_structural   Si22H2O45
_chemical_formula_sum   'Si44 H4 O90'
_cell_volume   4058.75462226
_cell_formula_units_Z   2
loop_
 _symmetry_equiv_pos_site_id
 _symmetry_equiv_pos_as_xyz
  1  'x, y, z'
loop_
 _atom_site_type_symbol
 _atom_site_label
 _atom_site_symmetry_multiplicity
 _atom_site_fract_x
 _atom_site_fract_y
 _atom_site_fract_z
 _atom_site_occupancy
  O  O1  1  0.322965  0.249970  0.380205  1
  O  O2  1  0.822959  0.249758  0.202099  1
  O  O3  1  0.676944  0.249949  0.380206  1
  O  O4  1  0.176937  0.249718  0.202098  1
  O  O5  1  0.322959  0.749906  0.097806  1
  O  O6  1  0.822963  0.749790  0.275916  1
  O  O7  1  0.676939  0.749922  0.097807  1
  O  O8  1  0.176944  0.749769  0.275915  1
  O  O9  1  0.360976  0.500498  0.417088  1
  O  O10  1  0.860969  0.499667  0.239012  1
  O  O11  1  0.638927  0.500504  0.417088  1
  O  O12  1  0.138932  0.499689  0.239009  1
  O  O13  1  0.860974  0.000000  0.239002  1
  O  O14  1  0.138926  0.000000  0.239004  1
  O  O15  1  0.499955  0.250203  0.397635  1
  O  O16  1  0.000000  0.249731  0.219527  1
  O  O17  1  0.000000  0.749711  0.258486  1
  O  O18  1  0.637392  0.998908  0.344805  1
  O  O19  1  0.137404  0.998596  0.166700  1
  O  O20  1  0.362516  0.998903  0.344806  1
  O  O21  1  0.862537  0.998969  0.166687  1
  O  O22  1  0.637373  0.498900  0.133210  1
  O  O23  1  0.137353  0.499181  0.311332  1
  O  O24  1  0.362466  0.498452  0.133191  1
  O  O25  1  0.862524  0.498904  0.311320  1
  O  O26  1  0.362584  0.000000  0.133236  1
  O  O27  1  0.862545  0.000000  0.311324  1
  O  O28  1  0.637367  0.000000  0.133220  1
  O  O29  1  0.137406  0.000000  0.311311  1
  O  O30  1  0.362549  0.500611  0.344790  1
  O  O31  1  0.862517  0.500679  0.166693  1
  O  O32  1  0.637364  0.500605  0.344792  1
  O  O33  1  0.137332  0.500301  0.166678  1
  O  O34  1  0.803267  0.249809  0.345362  1
  O  O35  1  0.303262  0.249637  0.167252  1
  O  O36  1  0.196646  0.249857  0.345361  1
  O  O37  1  0.696632  0.249803  0.167253  1
  O  O38  1  0.803262  0.749780  0.132653  1
  O  O39  1  0.303267  0.749891  0.310759  1
  O  O40  1  0.196633  0.749608  0.132651  1
  O  O41  1  0.696644  0.749831  0.310759  1
  O  O42  1  0.499956  0.749890  0.323695  1
  O  O43  1  0.000000  0.749721  0.145588  1
  O  O44  1  0.499947  0.249789  0.154317  1
  O  O45  1  0.000000  0.249818  0.332425  1
  O  O46  1  0.322965  0.249970  0.736421  1
  O  O47  1  0.822959  0.249758  0.558315  1
  O  O48  1  0.676944  0.249949  0.736422  1
  O  O49  1  0.176937  0.249718  0.558314  1
  O  O50  1  0.322959  0.749906  0.454022  1
  O  O51  1  0.822963  0.749790  0.632132  1
  O  O52  1  0.676939  0.749922  0.454023  1
  O  O53  1  0.176944  0.749769  0.632131  1
  O  O54  1  0.860969  0.499667  0.595227  1
  O  O55  1  0.138932  0.499689  0.595225  1
  O  O56  1  0.360968  0.000000  0.417140  1
  O  O57  1  0.860974  0.000000  0.595218  1
  O  O58  1  0.638933  0.000000  0.417141  1
  O  O59  1  0.138926  -0.000000  0.595220  1
  O  O60  1  0.000000  0.249731  0.575743  1
  O  O61  1  0.499952  0.750224  0.436593  1
  O  O62  1  0.000000  0.749711  0.614702  1
  O  O63  1  0.637392  0.998908  0.701021  1
  O  O64  1  0.137404  0.998596  0.522916  1
  O  O65  1  0.362516  0.998903  0.701022  1
  O  O66  1  0.862537  0.998969  0.522903  1
  O  O67  1  0.637373  0.498900  0.489426  1
  O  O68  1  0.137353  0.499181  0.667548  1
  O  O69  1  0.362466  0.498452  0.489407  1
  O  O70  1  0.862524  0.498904  0.667536  1
  O  O71  1  0.362584  0.000000  0.489452  1
  O  O72  1  0.862545  0.000000  0.667540  1
  O  O73  1  0.637367  -0.000000  0.489436  1
  O  O74  1  0.137406  0.000000  0.667527  1
  O  O75  1  0.362549  0.500611  0.701006  1
  O  O76  1  0.862517  0.500679  0.522909  1
  O  O77  1  0.637364  0.500605  0.701008  1
  O  O78  1  0.137332  0.500301  0.522894  1
  O  O79  1  0.803267  0.249809  0.701577  1
  O  O80  1  0.303262  0.249637  0.523468  1
  O  O81  1  0.196646  0.249857  0.701577  1
  O  O82  1  0.696632  0.249803  0.523469  1
  O  O83  1  0.803262  0.749780  0.488868  1
  O  O84  1  0.303267  0.749891  0.666975  1
  O  O85  1  0.196633  0.749608  0.488867  1
  O  O86  1  0.696644  0.749831  0.666975  1
  O  O87  1  0.499956  0.749890  0.679911  1
  O  O88  1  0.000000  0.749721  0.501804  1
  O  O89  1  0.499947  0.249789  0.510532  1
  O  O90  1  0.000000  0.249818  0.688641  1
  Si  Si91  1  0.382655  0.250293  0.402841  1
  Si  Si92  1  0.882652  0.249708  0.224733  1
  Si  Si93  1  0.617258  0.250294  0.402842  1
  Si  Si94  1  0.117248  0.249712  0.224733  1
  Si  Si95  1  0.882650  0.749708  0.253279  1
  Si  Si96  1  0.117254  0.749711  0.253278  1
  Si  Si97  1  0.690136  0.249811  0.354294  1
  Si  Si98  1  0.190130  0.249558  0.176185  1
  Si  Si99  1  0.309778  0.249824  0.354293  1
  Si  Si100  1  0.809764  0.249796  0.176185  1
  Si  Si101  1  0.690129  0.749786  0.123720  1
  Si  Si102  1  0.190135  0.749937  0.301826  1
  Si  Si103  1  0.309768  0.749515  0.123720  1
  Si  Si104  1  0.809777  0.749783  0.301827  1
  Si  Si105  1  0.383357  0.749827  0.330323  1
  Si  Si106  1  0.883343  0.749793  0.152215  1
  Si  Si107  1  0.616557  0.749813  0.330324  1
  Si  Si108  1  0.116552  0.749557  0.152215  1
  Si  Si109  1  0.383345  0.249519  0.147691  1
  Si  Si110  1  0.883355  0.249781  0.325799  1
  Si  Si111  1  0.616551  0.249787  0.147691  1
  Si  Si112  1  0.116555  0.249933  0.325798  1
  Si  Si113  1  0.882652  0.249708  0.580949  1
  Si  Si114  1  0.117248  0.249712  0.580949  1
  Si  Si115  1  0.382655  0.750292  0.431387  1
  Si  Si116  1  0.882650  0.749708  0.609495  1
  Si  Si117  1  0.617253  0.750295  0.431388  1
  Si  Si118  1  0.117254  0.749711  0.609494  1
  Si  Si119  1  0.690136  0.249811  0.710510  1
  Si  Si120  1  0.190130  0.249558  0.532401  1
  Si  Si121  1  0.309778  0.249824  0.710509  1
  Si  Si122  1  0.809764  0.249796  0.532401  1
  Si  Si123  1  0.690129  0.749786  0.479936  1
  Si  Si124  1  0.190135  0.749937  0.658042  1
  Si  Si125  1  0.309768  0.749515  0.479936  1
  Si  Si126  1  0.809777  0.749783  0.658043  1
  Si  Si127  1  0.383357  0.749827  0.686539  1
  Si  Si128  1  0.883343  0.749793  0.508430  1
  Si  Si129  1  0.616557  0.749813  0.686540  1
  Si  Si130  1  0.116552  0.749557  0.508430  1
  Si  Si131  1  0.383345  0.249519  0.503906  1
  Si  Si132  1  0.883355  0.249781  0.682014  1
  Si  Si133  1  0.616551  0.249787  0.503906  1
  Si  Si134  1  0.116555  0.249933  0.682014  1
  H  H135  1  0.322959  0.749906  0.082886  1
  H  H136  1  0.676939  0.749922  0.082887  1
  H  H137  1  0.322965  0.249970  0.751340  1
  H  H138  1  0.676944  0.249949  0.751341  1
