# generated using pymatgen
data_Si6H2O13
_symmetry_space_group_name_H-M   'P 1'
_cell_length_a   21.53046891
_cell_length_b   20.31202810
_cell_length_c   42.97585785
_cell_angle_alpha   59.95796653
_cell_angle_beta   90.00000000
_cell_angle_gamma   69.29978325
_symmetry_Int_Tables_number   1
_chemical_formula_structural   Si6H2O13
_chemical_formula_sum   'Si96 H32 O208'
_cell_volume   14851.4493921
_cell_formula_units_Z   16
loop_
 _symmetry_equiv_pos_site_id
 _symmetry_equiv_pos_as_xyz
  1  'x, y, z'
loop_
 _atom_site_type_symbol
 _atom_site_label
 _atom_site_symmetry_multiplicity
 _atom_site_fract_x
 _atom_site_fract_y
 _atom_site_fract_z
 _atom_site_occupancy
  O  O1  1  0.499453  0.139861  0.210876  1
  O  O2  1  0.499453  0.639860  0.329186  1
  O  O3  1  0.001109  0.138863  0.210942  1
  O  O4  1  0.001109  0.638863  0.329252  1
  O  O5  1  0.501138  0.859402  0.277065  1
  O  O6  1  0.501138  0.359402  0.158755  1
  O  O7  1  0.000000  0.860488  0.276981  1
  O  O8  1  -0.000000  0.360488  0.158671  1
  O  O9  1  0.000000  0.389401  0.270136  1
  O  O10  1  0.498700  0.390046  0.269817  1
  O  O11  1  0.998686  0.610645  0.217616  1
  O  O12  1  0.998686  0.110645  0.335925  1
  O  O13  1  0.500434  0.109926  0.336271  1
  O  O14  1  0.500434  0.609926  0.217961  1
  O  O15  1  0.465420  0.642219  0.269448  1
  O  O16  1  0.965364  0.641881  0.269489  1
  O  O17  1  0.465409  0.892285  0.210234  1
  O  O18  1  0.465409  0.392285  0.328544  1
  O  O19  1  0.965345  0.891939  0.210276  1
  O  O20  1  0.965345  0.391939  0.328586  1
  O  O21  1  0.034396  0.357751  0.218441  1
  O  O22  1  0.034396  0.857751  0.336750  1
  O  O23  1  0.534454  0.857316  0.336822  1
  O  O24  1  0.534454  0.357316  0.218512  1
  O  O25  1  0.034407  0.107814  0.277545  1
  O  O26  1  0.034407  0.607814  0.159236  1
  O  O27  1  0.534463  0.107374  0.277613  1
  O  O28  1  0.534463  0.607373  0.159304  1
  O  O29  1  0.369969  0.714223  0.291181  1
  O  O30  1  0.871266  0.712337  0.292243  1
  O  O31  1  0.371519  0.915910  0.244336  1
  O  O32  1  0.870263  0.915460  0.243733  1
  O  O33  1  0.870263  0.415461  0.362042  1
  O  O34  1  0.129861  0.334292  0.262761  1
  O  O35  1  0.628545  0.333689  0.263527  1
  O  O36  1  0.128301  0.037527  0.333866  1
  O  O37  1  0.128301  0.537527  0.215556  1
  O  O38  1  0.629507  0.035818  0.333583  1
  O  O39  1  0.629507  0.535818  0.215274  1
  O  O40  1  0.630147  0.785497  0.314924  1
  O  O41  1  0.630147  0.285497  0.196614  1
  O  O42  1  0.128749  0.287375  0.195598  1
  O  O43  1  0.128749  0.787375  0.313907  1
  O  O44  1  0.629225  0.083448  0.244033  1
  O  O45  1  0.130331  0.083982  0.244618  1
  O  O46  1  0.869680  0.665753  0.224947  1
  O  O47  1  0.869680  0.165753  0.343257  1
  O  O48  1  0.371055  0.166205  0.342588  1
  O  O49  1  0.371055  0.666206  0.224278  1
  O  O50  1  0.870631  0.462781  0.272554  1
  O  O51  1  0.369480  0.464396  0.272916  1
  O  O52  1  0.455881  0.771989  0.265968  1
  O  O53  1  0.956049  0.771557  0.266106  1
  O  O54  1  0.043941  0.477979  0.217220  1
  O  O55  1  0.043941  0.977978  0.335529  1
  O  O56  1  0.543739  0.977693  0.335639  1
  O  O57  1  0.543739  0.477692  0.217329  1
  O  O58  1  0.544561  0.227296  0.222027  1
  O  O59  1  0.544561  0.727296  0.340337  1
  O  O60  1  0.044278  0.227809  0.221879  1
  O  O61  1  0.044278  0.727808  0.340189  1
  O  O62  1  0.955276  0.521954  0.270615  1
  O  O63  1  0.455532  0.522160  0.270546  1
  O  O64  1  0.277533  0.740068  0.245146  1
  O  O65  1  0.777595  0.730451  0.249669  1
  O  O66  1  0.277525  0.989882  0.188697  1
  O  O67  1  0.277525  0.489882  0.307006  1
  O  O68  1  0.777431  0.988157  0.187619  1
  O  O69  1  0.777431  0.488157  0.305928  1
  O  O70  1  0.222285  0.267695  0.238605  1
  O  O71  1  0.222285  0.767695  0.356914  1
  O  O72  1  0.722225  0.758122  0.361431  1
  O  O73  1  0.722225  0.258122  0.243122  1
  O  O74  1  0.222292  0.017511  0.300468  1
  O  O75  1  0.222292  0.517511  0.182158  1
  O  O76  1  0.722386  0.015779  0.299459  1
  O  O77  1  0.722386  0.515778  0.181150  1
  O  O78  1  0.251411  0.248568  0.301840  1
  O  O79  1  0.251411  0.748567  0.183531  1
  O  O80  1  0.749077  0.754539  0.185076  1
  O  O81  1  0.749077  0.254538  0.303386  1
  O  O82  1  0.247579  0.500815  0.245774  1
  O  O83  1  0.750678  0.494032  0.245607  1
  O  O84  1  0.248403  0.250065  0.183180  1
  O  O85  1  0.248403  0.750065  0.301489  1
  O  O86  1  0.750756  0.753661  0.303595  1
  O  O87  1  0.750756  0.253661  0.185285  1
  O  O88  1  0.252233  0.998493  0.246326  1
  O  O89  1  0.749055  0.994928  0.245314  1
  O  O90  1  0.279810  0.611752  0.245939  1
  O  O91  1  0.778651  0.609509  0.244224  1
  O  O92  1  0.219997  0.141666  0.238857  1
  O  O93  1  0.219997  0.641666  0.357166  1
  O  O94  1  0.721179  0.138210  0.237443  1
  O  O95  1  0.721179  0.638210  0.355753  1
  O  O96  1  0.718342  0.889511  0.358109  1
  O  O97  1  0.718342  0.389511  0.239800  1
  O  O98  1  0.219779  0.891768  0.359919  1
  O  O99  1  0.219779  0.391769  0.241610  1
  O  O100  1  0.781444  0.857950  0.247281  1
  O  O101  1  0.280049  0.861627  0.248747  1
  O  O102  1  0.499453  0.139861  0.447495  1
  O  O103  1  0.499453  0.639860  0.565805  1
  O  O104  1  0.001109  0.138863  0.447562  1
  O  O105  1  0.001109  0.638863  0.565871  1
  O  O106  1  0.501138  0.859402  0.513684  1
  O  O107  1  0.501138  0.359402  0.395375  1
  O  O108  1  0.000000  0.860488  0.513600  1
  O  O109  1  0.000000  0.360488  0.395290  1
  O  O110  1  -0.000000  0.389402  0.506755  1
  O  O111  1  -0.000000  0.889401  0.388446  1
  O  O112  1  0.498700  0.890046  0.388127  1
  O  O113  1  0.498700  0.390046  0.506436  1
  O  O114  1  0.998686  0.610645  0.454235  1
  O  O115  1  0.500434  0.609926  0.454580  1
  O  O116  1  0.465420  0.142220  0.387758  1
  O  O117  1  0.465420  0.642219  0.506068  1
  O  O118  1  0.965364  0.641881  0.506108  1
  O  O119  1  0.965364  0.141881  0.387799  1
  O  O120  1  0.465409  0.892285  0.446853  1
  O  O121  1  0.465409  0.392285  0.565163  1
  O  O122  1  0.965345  0.891939  0.446896  1
  O  O123  1  0.965345  0.391939  0.565205  1
  O  O124  1  0.034396  0.357751  0.455060  1
  O  O125  1  0.534454  0.357316  0.455131  1
  O  O126  1  0.034407  0.107814  0.514165  1
  O  O127  1  0.034407  0.607814  0.395855  1
  O  O128  1  0.534463  0.107373  0.514233  1
  O  O129  1  0.534463  0.607373  0.395923  1
  O  O130  1  0.369969  0.214223  0.409490  1
  O  O131  1  0.369969  0.714223  0.527800  1
  O  O132  1  0.871266  0.712337  0.528862  1
  O  O133  1  0.871266  0.212337  0.410552  1
  O  O134  1  0.371519  0.915910  0.480955  1
  O  O135  1  0.371519  0.415910  0.362645  1
  O  O136  1  0.870263  0.915460  0.480352  1
  O  O137  1  0.129861  0.334292  0.499380  1
  O  O138  1  0.129861  0.834292  0.381071  1
  O  O139  1  0.628545  0.833690  0.381837  1
  O  O140  1  0.628545  0.333689  0.500146  1
  O  O141  1  0.128301  0.537527  0.452176  1
  O  O142  1  0.629507  0.535818  0.451893  1
  O  O143  1  0.630147  0.285497  0.433233  1
  O  O144  1  0.128749  0.287375  0.432217  1
  O  O145  1  0.629225  0.083448  0.480652  1
  O  O146  1  0.629225  0.583448  0.362343  1
  O  O147  1  0.130331  0.083982  0.481237  1
  O  O148  1  0.130331  0.583982  0.362928  1
  O  O149  1  0.869680  0.665753  0.461566  1
  O  O150  1  0.371055  0.666205  0.460897  1
  O  O151  1  0.870631  0.962781  0.390864  1
  O  O152  1  0.870631  0.462781  0.509173  1
  O  O153  1  0.369480  0.964396  0.391226  1
  O  O154  1  0.369480  0.464396  0.509535  1
  O  O155  1  0.455881  0.271989  0.384278  1
  O  O156  1  0.455881  0.771989  0.502587  1
  O  O157  1  0.956049  0.771557  0.502725  1
  O  O158  1  0.956049  0.271557  0.384415  1
  O  O159  1  0.043941  0.477979  0.453839  1
  O  O160  1  0.543739  0.477692  0.453949  1
  O  O161  1  0.544561  0.227296  0.458647  1
  O  O162  1  0.044278  0.227809  0.458499  1
  O  O163  1  0.955276  0.021954  0.388924  1
  O  O164  1  0.955276  0.521954  0.507234  1
  O  O165  1  0.455532  0.022161  0.388856  1
  O  O166  1  0.455532  0.522160  0.507166  1
  O  O167  1  0.277533  0.240069  0.363456  1
  O  O168  1  0.277533  0.740069  0.481766  1
  O  O169  1  0.777595  0.730451  0.486288  1
  O  O170  1  0.777595  0.230451  0.367978  1
  O  O171  1  0.277525  0.989883  0.425316  1
  O  O172  1  0.277525  0.489882  0.543626  1
  O  O173  1  0.777431  0.988158  0.424238  1
  O  O174  1  0.777431  0.488157  0.542548  1
  O  O175  1  0.222285  0.267695  0.475224  1
  O  O176  1  0.722225  0.258122  0.479741  1
  O  O177  1  0.222292  0.017511  0.537087  1
  O  O178  1  0.222292  0.517511  0.418777  1
  O  O179  1  0.722386  0.015779  0.536079  1
  O  O180  1  0.722386  0.515778  0.417769  1
  O  O181  1  0.251411  0.248568  0.538460  1
  O  O182  1  0.251411  0.748567  0.420150  1
  O  O183  1  0.749077  0.754539  0.421695  1
  O  O184  1  0.749077  0.254538  0.540005  1
  O  O185  1  0.247579  0.000000  0.364083  1
  O  O186  1  0.247579  0.500815  0.482393  1
  O  O187  1  0.750678  0.994032  0.363916  1
  O  O188  1  0.750678  0.494033  0.482226  1
  O  O189  1  0.248403  0.250065  0.419799  1
  O  O190  1  0.248403  0.750065  0.538108  1
  O  O191  1  0.750756  0.753661  0.540214  1
  O  O192  1  0.750756  0.253661  0.421904  1
  O  O193  1  0.252233  0.998493  0.482946  1
  O  O194  1  0.252233  0.498493  0.364636  1
  O  O195  1  0.749055  0.994928  0.481933  1
  O  O196  1  0.749055  0.494928  0.363624  1
  O  O197  1  0.279810  0.111752  0.364248  1
  O  O198  1  0.279810  0.611752  0.482558  1
  O  O199  1  0.778651  0.109509  0.362534  1
  O  O200  1  0.778651  0.609509  0.480843  1
  O  O201  1  0.219997  0.141665  0.475476  1
  O  O202  1  0.721179  0.138210  0.474062  1
  O  O203  1  0.718342  0.389511  0.476419  1
  O  O204  1  0.219779  0.391769  0.478229  1
  O  O205  1  0.781444  0.857951  0.483901  1
  O  O206  1  0.781444  0.357951  0.365591  1
  O  O207  1  0.280049  0.861627  0.485366  1
  O  O208  1  0.280049  0.361627  0.367056  1
  Si  Si209  1  0.448192  0.688038  0.290883  1
  Si  Si210  1  0.949137  0.687122  0.291177  1
  Si  Si211  1  0.449184  0.863216  0.249497  1
  Si  Si212  1  0.948335  0.863275  0.249364  1
  Si  Si213  1  0.051639  0.386331  0.243953  1
  Si  Si214  1  0.550673  0.386335  0.244039  1
  Si  Si215  1  0.050635  0.062511  0.320648  1
  Si  Si216  1  0.050635  0.562511  0.202338  1
  Si  Si217  1  0.551446  0.061701  0.320725  1
  Si  Si218  1  0.551446  0.561700  0.202415  1
  Si  Si219  1  0.552081  0.811362  0.315447  1
  Si  Si220  1  0.552081  0.311362  0.197138  1
  Si  Si221  1  0.051014  0.312352  0.196822  1
  Si  Si222  1  0.051014  0.812352  0.315132  1
  Si  Si223  1  0.551334  0.136063  0.238495  1
  Si  Si224  1  0.551334  0.636062  0.356805  1
  Si  Si225  1  0.052048  0.136094  0.238605  1
  Si  Si226  1  0.052048  0.636094  0.356914  1
  Si  Si227  1  0.947746  0.613548  0.243944  1
  Si  Si228  1  0.448786  0.113446  0.362208  1
  Si  Si229  1  0.448786  0.613447  0.243899  1
  Si  Si230  1  0.948518  0.437482  0.285477  1
  Si  Si231  1  0.447764  0.438216  0.285429  1
  Si  Si232  1  0.292750  0.193160  0.342416  1
  Si  Si233  1  0.292750  0.693160  0.224106  1
  Si  Si234  1  0.791625  0.691162  0.225385  1
  Si  Si235  1  0.791625  0.191162  0.343695  1
  Si  Si236  1  0.291727  0.517565  0.267356  1
  Si  Si237  1  0.792354  0.514655  0.266477  1
  Si  Si238  1  0.207059  0.236015  0.213960  1
  Si  Si239  1  0.207059  0.736014  0.332269  1
  Si  Si240  1  0.708195  0.732839  0.333838  1
  Si  Si241  1  0.708195  0.232839  0.215528  1
  Si  Si242  1  0.208093  0.059386  0.257456  1
  Si  Si243  1  0.707501  0.057045  0.256469  1
  Si  Si244  1  0.706686  0.307447  0.263100  1
  Si  Si245  1  0.207722  0.309579  0.261796  1
  Si  Si246  1  0.707410  0.983135  0.339188  1
  Si  Si247  1  0.707410  0.483135  0.220879  1
  Si  Si248  1  0.206699  0.986186  0.340019  1
  Si  Si249  1  0.206699  0.486186  0.221709  1
  Si  Si250  1  0.793119  0.764224  0.273334  1
  Si  Si251  1  0.292115  0.767380  0.271783  1
  Si  Si252  1  0.792362  0.940661  0.230893  1
  Si  Si253  1  0.792362  0.440660  0.349203  1
  Si  Si254  1  0.293127  0.942964  0.231937  1
  Si  Si255  1  0.293127  0.442964  0.350246  1
  Si  Si256  1  0.448192  0.188038  0.409193  1
  Si  Si257  1  0.448192  0.688037  0.527502  1
  Si  Si258  1  0.949137  0.687122  0.527796  1
  Si  Si259  1  0.949137  0.187122  0.409487  1
  Si  Si260  1  0.449184  0.863216  0.486117  1
  Si  Si261  1  0.449184  0.363216  0.367807  1
  Si  Si262  1  0.948335  0.863275  0.485983  1
  Si  Si263  1  0.948335  0.363275  0.367673  1
  Si  Si264  1  0.051639  0.386331  0.480572  1
  Si  Si265  1  0.051639  0.886330  0.362262  1
  Si  Si266  1  0.550673  0.886335  0.362348  1
  Si  Si267  1  0.550673  0.386335  0.480658  1
  Si  Si268  1  0.050635  0.562511  0.438958  1
  Si  Si269  1  0.551446  0.561701  0.439035  1
  Si  Si270  1  0.552081  0.311362  0.433757  1
  Si  Si271  1  0.051014  0.312352  0.433441  1
  Si  Si272  1  0.551334  0.136062  0.475115  1
  Si  Si273  1  0.052048  0.136094  0.475224  1
  Si  Si274  1  0.947746  0.613548  0.480563  1
  Si  Si275  1  0.947746  0.113548  0.362254  1
  Si  Si276  1  0.448786  0.613447  0.480518  1
  Si  Si277  1  0.948518  0.937482  0.403786  1
  Si  Si278  1  0.948518  0.437482  0.522096  1
  Si  Si279  1  0.447764  0.938216  0.403739  1
  Si  Si280  1  0.447764  0.438216  0.522049  1
  Si  Si281  1  0.292750  0.693160  0.460725  1
  Si  Si282  1  0.791625  0.691162  0.462004  1
  Si  Si283  1  0.291727  0.017565  0.385666  1
  Si  Si284  1  0.291727  0.517565  0.503975  1
  Si  Si285  1  0.792354  0.014655  0.384787  1
  Si  Si286  1  0.792354  0.514655  0.503097  1
  Si  Si287  1  0.207059  0.236014  0.450579  1
  Si  Si288  1  0.708195  0.232839  0.452147  1
  Si  Si289  1  0.208093  0.059386  0.494075  1
  Si  Si290  1  0.208093  0.559386  0.375766  1
  Si  Si291  1  0.707501  0.057045  0.493088  1
  Si  Si292  1  0.707501  0.557044  0.374778  1
  Si  Si293  1  0.706686  0.807448  0.381410  1
  Si  Si294  1  0.706686  0.307448  0.499719  1
  Si  Si295  1  0.207722  0.309579  0.498416  1
  Si  Si296  1  0.207722  0.809579  0.380106  1
  Si  Si297  1  0.707410  0.483135  0.457498  1
  Si  Si298  1  0.206699  0.486186  0.458329  1
  Si  Si299  1  0.793119  0.764224  0.509953  1
  Si  Si300  1  0.793119  0.264224  0.391643  1
  Si  Si301  1  0.292115  0.267380  0.390093  1
  Si  Si302  1  0.292115  0.767380  0.508403  1
  Si  Si303  1  0.792362  0.940660  0.467512  1
  Si  Si304  1  0.293127  0.942964  0.468556  1
  H  H305  1  0.499453  0.139861  0.189934  1
  H  H306  1  0.001109  0.138863  0.190000  1
  H  H307  1  0.501138  0.359402  0.137813  1
  H  H308  1  -0.000000  0.360488  0.137729  1
  H  H309  1  0.465409  0.892285  0.189292  1
  H  H310  1  0.965345  0.891939  0.189334  1
  H  H311  1  0.034407  0.607814  0.138294  1
  H  H312  1  0.534463  0.607373  0.138362  1
  H  H313  1  0.277525  0.989883  0.167755  1
  H  H314  1  0.777431  0.988158  0.166677  1
  H  H315  1  0.222292  0.517511  0.161216  1
  H  H316  1  0.722386  0.515778  0.160208  1
  H  H317  1  0.251411  0.748567  0.162589  1
  H  H318  1  0.749077  0.754539  0.164134  1
  H  H319  1  0.248403  0.250065  0.162238  1
  H  H320  1  0.750756  0.253661  0.164343  1
  H  H321  1  0.499453  0.639861  0.586747  1
  H  H322  1  0.001109  0.638863  0.586813  1
  H  H323  1  0.501138  0.859402  0.534626  1
  H  H324  1  0.000000  0.860488  0.534542  1
  H  H325  1  0.465409  0.392285  0.586105  1
  H  H326  1  0.965345  0.391939  0.586147  1
  H  H327  1  0.034407  0.107814  0.535107  1
  H  H328  1  0.534463  0.107374  0.535175  1
  H  H329  1  0.277525  0.489882  0.564568  1
  H  H330  1  0.777431  0.488157  0.563490  1
  H  H331  1  0.222292  0.017511  0.558029  1
  H  H332  1  0.722386  0.015779  0.557021  1
  H  H333  1  0.251411  0.248568  0.559402  1
  H  H334  1  0.749077  0.254539  0.560947  1
  H  H335  1  0.248403  0.750065  0.559050  1
  H  H336  1  0.750756  0.753661  0.561156  1
