# generated using pymatgen
data_Si28H2O57
_symmetry_space_group_name_H-M   'P 1'
_cell_length_a   13.15516101
_cell_length_b   13.16213477
_cell_length_c   47.58238031
_cell_angle_alpha   90.00000000
_cell_angle_beta   90.00000000
_cell_angle_gamma   120.00000000
_symmetry_Int_Tables_number   1
_chemical_formula_structural   Si28H2O57
_chemical_formula_sum   'Si56 H4 O114'
_cell_volume   7135.08739107
_cell_formula_units_Z   2
loop_
 _symmetry_equiv_pos_site_id
 _symmetry_equiv_pos_as_xyz
  1  'x, y, z'
loop_
 _atom_site_type_symbol
 _atom_site_label
 _atom_site_symmetry_multiplicity
 _atom_site_fract_x
 _atom_site_fract_y
 _atom_site_fract_z
 _atom_site_occupancy
  O  O1  1  0.442020  0.584953  0.216152  1
  O  O2  1  0.143101  0.558000  0.216348  1
  O  O3  1  0.414764  0.856927  0.216457  1
  O  O4  1  0.441900  0.584775  0.302695  1
  O  O5  1  0.143063  0.557936  0.302656  1
  O  O6  1  0.414636  0.856848  0.302494  1
  O  O7  1  0.428035  0.230800  0.209873  1
  O  O8  1  0.230947  0.428418  0.209823  1
  O  O9  1  0.197239  0.769077  0.209909  1
  O  O10  1  0.348511  0.563192  0.168954  1
  O  O11  1  0.214704  0.651439  0.169193  1
  O  O12  1  0.436842  0.785338  0.169319  1
  O  O13  1  0.406114  0.406129  0.187999  1
  O  O14  1  0.343183  0.000000  0.222360  1
  O  O15  1  -0.000000  0.343648  0.222383  1
  O  O16  1  0.343008  0.000000  0.296612  1
  O  O17  1  0.000000  0.343582  0.296536  1
  O  O18  1  0.450494  0.160180  0.259485  1
  O  O19  1  0.160601  0.451517  0.259474  1
  O  O20  1  0.290355  0.839710  0.259483  1
  O  O21  1  0.333845  0.669631  0.123995  1
  O  O22  1  0.230895  0.802398  0.480919  1
  O  O23  1  0.197576  0.428370  0.480750  1
  O  O24  1  0.428362  0.197349  0.480945  1
  O  O25  1  0.427966  0.230689  0.309111  1
  O  O26  1  0.230787  0.428210  0.309077  1
  O  O27  1  0.197135  0.768951  0.309084  1
  O  O28  1  0.436831  0.651396  0.440104  1
  O  O29  1  0.348568  0.785272  0.440199  1
  O  O30  1  0.214753  0.563115  0.439879  1
  O  O31  1  0.348397  0.563031  0.349873  1
  O  O32  1  0.214556  0.651342  0.349863  1
  O  O33  1  0.436690  0.785159  0.349597  1
  O  O34  1  0.406181  -0.000000  0.459164  1
  O  O35  1  0.406056  0.406020  0.330922  1
  O  O36  1  0.335918  0.669477  0.394903  1
  O  O37  1  -0.000000  0.406127  0.458973  1
  O  O38  1  0.415051  0.557903  0.487247  1
  O  O39  1  0.442204  0.856827  0.487332  1
  O  O40  1  0.143071  0.584933  0.487083  1
  O  O41  1  0.415062  0.557957  0.573571  1
  O  O42  1  0.442307  0.856845  0.573417  1
  O  O43  1  0.143030  0.584844  0.573580  1
  O  O44  1  0.230921  0.802359  0.579772  1
  O  O45  1  0.197563  0.428274  0.579974  1
  O  O46  1  0.428445  0.197386  0.579757  1
  O  O47  1  0.436907  0.651414  0.620764  1
  O  O48  1  0.348560  0.785210  0.620509  1
  O  O49  1  0.214730  0.563076  0.620770  1
  O  O50  1  0.406154  0.000000  0.601544  1
  O  O51  1  0.343553  0.343589  0.493293  1
  O  O52  1  0.343690  0.343652  0.567445  1
  O  O53  1  0.160050  0.707980  0.530341  1
  O  O54  1  0.291095  0.451498  0.530383  1
  O  O55  1  0.452178  0.292005  0.530356  1
  O  O56  1  -0.000000  0.406107  0.601764  1
  O  O57  1  0.584921  0.441825  0.216283  1
  O  O58  1  0.557744  0.143006  0.216462  1
  O  O59  1  0.857013  0.414907  0.216210  1
  O  O60  1  0.584884  0.441710  0.302681  1
  O  O61  1  0.557599  0.142865  0.302494  1
  O  O62  1  0.856939  0.414883  0.302680  1
  O  O63  1  0.769080  0.197404  0.210034  1
  O  O64  1  0.802448  0.571441  0.209877  1
  O  O65  1  0.571615  0.802475  0.210043  1
  O  O66  1  0.563077  0.348400  0.169106  1
  O  O67  1  0.651365  0.214593  0.169333  1
  O  O68  1  0.785248  0.436749  0.169034  1
  O  O69  1  0.593727  -0.000000  0.188288  1
  O  O70  1  -0.000000  0.593728  0.188068  1
  O  O71  1  0.656439  0.656169  0.222380  1
  O  O72  1  0.656302  0.656082  0.296531  1
  O  O73  1  0.839928  0.291752  0.259448  1
  O  O74  1  0.708662  0.548064  0.259470  1
  O  O75  1  0.547945  0.707896  0.259441  1
  O  O76  1  0.665536  0.329979  0.124034  1
  O  O77  1  0.571921  0.768984  0.480820  1
  O  O78  1  0.769086  0.571416  0.480712  1
  O  O79  1  0.802783  0.230772  0.480838  1
  O  O80  1  0.768946  0.197330  0.308867  1
  O  O81  1  0.802378  0.571433  0.309049  1
  O  O82  1  0.571486  0.802340  0.308860  1
  O  O83  1  0.651498  0.436616  0.439853  1
  O  O84  1  0.785311  0.348385  0.440136  1
  O  O85  1  0.563118  0.214478  0.440202  1
  O  O86  1  0.563021  0.348287  0.349891  1
  O  O87  1  0.651318  0.214487  0.349602  1
  O  O88  1  0.785185  0.436639  0.349851  1
  O  O89  1  0.593833  0.593645  0.458928  1
  O  O90  1  0.593667  0.000000  0.330637  1
  O  O91  1  0.000000  0.593642  0.330887  1
  O  O92  1  0.666571  0.330283  0.394907  1
  O  O93  1  0.558020  0.414846  0.487056  1
  O  O94  1  0.856938  0.441856  0.487285  1
  O  O95  1  0.585186  0.142851  0.487327  1
  O  O96  1  0.558122  0.414939  0.573659  1
  O  O97  1  0.856887  0.441849  0.573503  1
  O  O98  1  0.585223  0.142800  0.573404  1
  O  O99  1  0.571955  0.768971  0.579989  1
  O  O100  1  0.769169  0.571506  0.580046  1
  O  O101  1  0.802780  0.230772  0.579937  1
  O  O102  1  0.651481  0.436607  0.620875  1
  O  O103  1  0.785281  0.348347  0.620674  1
  O  O104  1  0.563113  0.214470  0.620501  1
  O  O105  1  0.593872  0.593658  0.601855  1
  O  O106  1  0.656757  0.000000  0.493266  1
  O  O107  1  0.000000  0.656169  0.493279  1
  O  O108  1  0.656877  -0.000000  0.567502  1
  O  O109  1  0.000000  0.656176  0.567441  1
  O  O110  1  0.549262  0.839587  0.530387  1
  O  O111  1  0.839334  0.548498  0.530383  1
  O  O112  1  0.709406  0.160000  0.530377  1
  O  O113  1  0.333845  0.669631  0.665804  1
  O  O114  1  0.665536  0.329979  0.665843  1
  Si  Si115  1  0.489812  0.355055  0.194735  1
  Si  Si116  1  0.355118  0.489955  0.194614  1
  Si  Si117  1  0.134768  0.644765  0.194801  1
  Si  Si118  1  0.439768  0.133829  0.226975  1
  Si  Si119  1  0.134135  0.440324  0.226966  1
  Si  Si120  1  0.306017  0.866159  0.226980  1
  Si  Si121  1  0.439630  0.133724  0.291992  1
  Si  Si122  1  0.133976  0.440276  0.291976  1
  Si  Si123  1  0.305833  0.866028  0.291993  1
  Si  Si124  1  0.333485  0.667054  0.156756  1
  Si  Si125  1  0.333520  0.666828  0.362159  1
  Si  Si126  1  0.355276  0.865098  0.465814  1
  Si  Si127  1  0.134957  0.489918  0.465555  1
  Si  Si128  1  0.489987  0.134659  0.465823  1
  Si  Si129  1  0.489803  0.354960  0.324241  1
  Si  Si130  1  0.355048  0.489781  0.324244  1
  Si  Si131  1  0.134698  0.644673  0.324208  1
  Si  Si132  1  0.333659  0.666977  0.427664  1
  Si  Si133  1  0.355254  0.865070  0.594900  1
  Si  Si134  1  0.134876  0.489851  0.595125  1
  Si  Si135  1  0.489986  0.134639  0.594890  1
  Si  Si136  1  0.133675  0.693206  0.497839  1
  Si  Si137  1  0.306323  0.440235  0.497876  1
  Si  Si138  1  0.440397  0.306581  0.497852  1
  Si  Si139  1  0.133717  0.693192  0.562844  1
  Si  Si140  1  0.306460  0.440297  0.562887  1
  Si  Si141  1  0.440519  0.306649  0.562861  1
  Si  Si142  1  0.333440  0.666900  0.633060  1
  Si  Si143  1  0.644668  0.134728  0.194943  1
  Si  Si144  1  0.865114  0.509939  0.194687  1
  Si  Si145  1  0.509949  0.865156  0.194939  1
  Si  Si146  1  0.866349  0.306575  0.226949  1
  Si  Si147  1  0.693563  0.559447  0.226963  1
  Si  Si148  1  0.559646  0.693247  0.226938  1
  Si  Si149  1  0.866206  0.306501  0.291951  1
  Si  Si150  1  0.693435  0.559363  0.291974  1
  Si  Si151  1  0.559537  0.693171  0.291944  1
  Si  Si152  1  0.666468  0.332886  0.156777  1
  Si  Si153  1  0.510132  0.644697  0.465697  1
  Si  Si154  1  0.644890  0.509847  0.465516  1
  Si  Si155  1  0.865281  0.355100  0.465736  1
  Si  Si156  1  0.644606  0.134623  0.323990  1
  Si  Si157  1  0.865057  0.509885  0.324216  1
  Si  Si158  1  0.509874  0.865034  0.323986  1
  Si  Si159  1  0.666577  0.332763  0.427668  1
  Si  Si160  1  0.666539  0.332821  0.362163  1
  Si  Si161  1  0.666440  0.332722  0.633080  1
  Si  Si162  1  0.510148  0.644714  0.595127  1
  Si  Si163  1  0.644917  0.509888  0.595222  1
  Si  Si164  1  0.865213  0.355075  0.595049  1
  Si  Si165  1  0.560126  0.866000  0.497882  1
  Si  Si166  1  0.865882  0.559559  0.497876  1
  Si  Si167  1  0.693913  0.133640  0.497873  1
  Si  Si168  1  0.560238  0.865961  0.562896  1
  Si  Si169  1  0.865932  0.559570  0.562887  1
  Si  Si170  1  0.694002  0.133633  0.562882  1
  H  H171  1  0.333845  0.669631  0.105081  1
  H  H172  1  0.665536  0.329979  0.105120  1
  H  H173  1  0.333845  0.669631  0.684718  1
  H  H174  1  0.665536  0.329979  0.684757  1
