# generated using pymatgen
data_Si18H2O37
_symmetry_space_group_name_H-M   'P 1'
_cell_length_a   8.31381087
_cell_length_b   36.43901554
_cell_length_c   53.43148242
_cell_angle_alpha   66.28562306
_cell_angle_beta   90.00000000
_cell_angle_gamma   90.00000000
_symmetry_Int_Tables_number   1
_chemical_formula_structural   Si18H2O37
_chemical_formula_sum   'Si144 H16 O296'
_cell_volume   14820.1165505
_cell_formula_units_Z   8
loop_
 _symmetry_equiv_pos_site_id
 _symmetry_equiv_pos_as_xyz
  1  'x, y, z'
loop_
 _atom_site_type_symbol
 _atom_site_label
 _atom_site_symmetry_multiplicity
 _atom_site_fract_x
 _atom_site_fract_y
 _atom_site_fract_z
 _atom_site_occupancy
  O  O1  1  0.250013  0.087527  0.211050  1
  O  O2  1  0.250008  0.585870  0.210818  1
  O  O3  1  0.250029  0.912449  0.259034  1
  O  O4  1  0.249991  0.414180  0.257903  1
  O  O5  1  0.491524  0.042693  0.213663  1
  O  O6  1  0.498290  0.542765  0.214135  1
  O  O7  1  0.491434  0.957346  0.237073  1
  O  O8  1  0.498286  0.457283  0.237576  1
  O  O9  1  0.008744  0.957602  0.237637  1
  O  O10  1  0.001646  0.457289  0.237623  1
  O  O11  1  0.008624  0.042443  0.214366  1
  O  O12  1  0.001660  0.542759  0.214183  1
  O  O13  1  0.501048  0.095700  0.234228  1
  O  O14  1  0.497420  0.595848  0.234314  1
  O  O15  1  0.000000  0.095701  0.234609  1
  O  O16  1  0.002799  0.595846  0.234370  1
  O  O17  1  0.493802  0.117442  0.181040  1
  O  O18  1  0.493566  0.617464  0.181078  1
  O  O19  1  0.494069  0.882603  0.245454  1
  O  O20  1  0.493514  0.382583  0.245488  1
  O  O21  1  0.004743  0.882939  0.245623  1
  O  O22  1  0.006267  0.382593  0.245548  1
  O  O23  1  0.004951  0.117112  0.181397  1
  O  O24  1  0.006282  0.617453  0.181138  1
  O  O25  1  0.250081  0.219175  0.172237  1
  O  O26  1  0.250041  0.719156  0.172399  1
  O  O27  1  0.750083  0.219171  0.228650  1
  O  O28  1  0.750040  0.719139  0.228820  1
  O  O29  1  0.492516  0.266524  0.154993  1
  O  O30  1  0.492361  0.766526  0.155005  1
  O  O31  1  0.992523  0.266494  0.220026  1
  O  O32  1  0.992648  0.766412  0.220172  1
  O  O33  1  0.507298  0.266391  0.220002  1
  O  O34  1  0.507220  0.766369  0.220022  1
  O  O35  1  0.007309  0.266422  0.155074  1
  O  O36  1  0.007519  0.766486  0.155179  1
  O  O37  1  0.500068  0.213013  0.202141  1
  O  O38  1  0.500606  0.713003  0.202164  1
  O  O39  1  0.000000  0.213015  0.202262  1
  O  O40  1  -0.000000  0.713004  0.202270  1
  O  O41  1  0.518924  0.192454  0.162307  1
  O  O42  1  0.518525  0.692463  0.162316  1
  O  O43  1  0.018381  0.192455  0.253416  1
  O  O44  1  0.018661  0.692212  0.253383  1
  O  O45  1  0.481745  0.192218  0.253290  1
  O  O46  1  0.481257  0.692190  0.253307  1
  O  O47  1  0.981198  0.192219  0.162564  1
  O  O48  1  0.981383  0.692447  0.162401  1
  O  O49  1  0.249894  0.806195  0.203100  1
  O  O50  1  0.250007  0.306255  0.203070  1
  O  O51  1  0.749895  0.806216  0.150279  1
  O  O52  1  0.750007  0.306214  0.150249  1
  O  O53  1  0.499626  0.820853  0.172582  1
  O  O54  1  0.499834  0.320863  0.172587  1
  O  O55  1  0.000000  0.820855  0.172780  1
  O  O56  1  -0.000000  0.320863  0.172620  1
  O  O57  1  0.494481  0.162362  0.127731  1
  O  O58  1  0.494589  0.662345  0.127759  1
  O  O59  1  0.494417  0.837671  0.216793  1
  O  O60  1  0.494570  0.337696  0.216794  1
  O  O61  1  0.994349  0.837716  0.119296  1
  O  O62  1  0.993835  0.337798  0.119151  1
  O  O63  1  0.506476  0.837854  0.119052  1
  O  O64  1  0.506386  0.337840  0.119077  1
  O  O65  1  0.006410  0.837813  0.216961  1
  O  O66  1  0.005650  0.337739  0.216844  1
  O  O67  1  0.006278  0.162224  0.127981  1
  O  O68  1  0.005697  0.662302  0.127829  1
  O  O69  1  0.750117  0.150824  0.156483  1
  O  O70  1  0.750030  0.650863  0.156555  1
  O  O71  1  0.750156  0.849144  0.239207  1
  O  O72  1  0.749993  0.349189  0.239292  1
  O  O73  1  0.748910  0.000000  0.232714  1
  O  O74  1  0.749911  0.500023  0.237496  1
  O  O75  1  0.494466  0.000000  0.260169  1
  O  O76  1  0.250013  0.087527  0.485325  1
  O  O77  1  0.250008  0.585870  0.485093  1
  O  O78  1  0.250029  0.912449  0.533309  1
  O  O79  1  0.249991  0.414180  0.532179  1
  O  O80  1  0.750007  0.087731  0.262390  1
  O  O81  1  0.750017  0.588781  0.261494  1
  O  O82  1  0.750026  0.912410  0.310433  1
  O  O83  1  0.750000  0.411246  0.310185  1
  O  O84  1  0.491524  0.042693  0.487939  1
  O  O85  1  0.498290  0.542765  0.488411  1
  O  O86  1  0.491434  0.957346  0.511348  1
  O  O87  1  0.498286  0.457283  0.511852  1
  O  O88  1  0.991295  0.042680  0.284258  1
  O  O89  1  0.986490  0.542411  0.283966  1
  O  O90  1  0.991484  0.957358  0.307660  1
  O  O91  1  0.986457  0.457629  0.307215  1
  O  O92  1  0.508692  0.957611  0.306957  1
  O  O93  1  0.513487  0.457635  0.307160  1
  O  O94  1  0.508867  0.042427  0.283691  1
  O  O95  1  0.513481  0.542400  0.283916  1
  O  O96  1  0.008744  0.957602  0.511912  1
  O  O97  1  0.001646  0.457289  0.511898  1
  O  O98  1  0.008624  0.042443  0.488642  1
  O  O99  1  0.001660  0.542759  0.488459  1
  O  O100  1  0.501048  0.095700  0.508503  1
  O  O101  1  0.497420  0.595848  0.508590  1
  O  O102  1  0.500936  0.904339  0.286718  1
  O  O103  1  0.497420  0.404193  0.286871  1
  O  O104  1  0.000000  0.095701  0.508884  1
  O  O105  1  0.002799  0.595846  0.508645  1
  O  O106  1  0.000000  0.904340  0.287095  1
  O  O107  1  0.002777  0.404198  0.286928  1
  O  O108  1  0.493802  0.117442  0.455316  1
  O  O109  1  0.493566  0.617464  0.455353  1
  O  O110  1  0.494069  0.882603  0.519730  1
  O  O111  1  0.493514  0.382583  0.519764  1
  O  O112  1  0.994757  0.117408  0.275878  1
  O  O113  1  0.995349  0.617058  0.275860  1
  O  O114  1  0.994471  0.882621  0.340273  1
  O  O115  1  0.995360  0.382984  0.340053  1
  O  O116  1  0.504346  0.882953  0.339919  1
  O  O117  1  0.504424  0.382997  0.339990  1
  O  O118  1  0.503992  0.117077  0.275700  1
  O  O119  1  0.504495  0.617040  0.275809  1
  O  O120  1  0.004743  0.882939  0.519899  1
  O  O121  1  0.006267  0.382593  0.519824  1
  O  O122  1  0.004951  0.117112  0.455672  1
  O  O123  1  0.006282  0.617453  0.455414  1
  O  O124  1  0.250081  0.219175  0.446513  1
  O  O125  1  0.250041  0.719156  0.446675  1
  O  O126  1  0.250123  0.780876  0.292498  1
  O  O127  1  0.250000  0.280886  0.292593  1
  O  O128  1  0.750083  0.219171  0.502926  1
  O  O129  1  0.750040  0.719139  0.503096  1
  O  O130  1  0.750124  0.780868  0.348914  1
  O  O131  1  0.749999  0.280901  0.349006  1
  O  O132  1  0.492516  0.266524  0.429269  1
  O  O133  1  0.492361  0.766526  0.429281  1
  O  O134  1  0.492503  0.733518  0.301197  1
  O  O135  1  0.492333  0.233518  0.301191  1
  O  O136  1  0.992523  0.266494  0.494302  1
  O  O137  1  0.992648  0.766412  0.494448  1
  O  O138  1  0.992606  0.733548  0.366209  1
  O  O139  1  0.992596  0.233628  0.366301  1
  O  O140  1  0.507301  0.733650  0.366132  1
  O  O141  1  0.507197  0.233668  0.366123  1
  O  O142  1  0.507298  0.266391  0.494277  1
  O  O143  1  0.507220  0.766369  0.494297  1
  O  O144  1  0.007397  0.733623  0.301217  1
  O  O145  1  0.007461  0.233559  0.301347  1
  O  O146  1  0.007309  0.266422  0.429349  1
  O  O147  1  0.007519  0.766486  0.429455  1
  O  O148  1  0.500068  0.213013  0.476416  1
  O  O149  1  0.500606  0.713003  0.476439  1
  O  O150  1  0.500261  0.787029  0.318991  1
  O  O151  1  0.500536  0.287037  0.318989  1
  O  O152  1  0.000000  0.213015  0.476538  1
  O  O153  1  -0.000000  0.713004  0.476545  1
  O  O154  1  0.000000  0.787029  0.319109  1
  O  O155  1  0.000000  0.287038  0.319099  1
  O  O156  1  0.518924  0.192454  0.436583  1
  O  O157  1  0.518525  0.692463  0.436591  1
  O  O158  1  0.518874  0.807583  0.267876  1
  O  O159  1  0.518493  0.307583  0.267872  1
  O  O160  1  0.018381  0.192455  0.527692  1
  O  O161  1  0.018661  0.692212  0.527658  1
  O  O162  1  0.018551  0.807588  0.358982  1
  O  O163  1  0.018588  0.307828  0.358807  1
  O  O164  1  0.481666  0.807825  0.358729  1
  O  O165  1  0.481230  0.307846  0.358717  1
  O  O166  1  0.481745  0.192218  0.527565  1
  O  O167  1  0.481257  0.692190  0.527583  1
  O  O168  1  0.981348  0.807823  0.267999  1
  O  O169  1  0.981323  0.307599  0.267953  1
  O  O170  1  0.981198  0.192219  0.436839  1
  O  O171  1  0.981383  0.692447  0.436677  1
  O  O172  1  0.249854  0.193840  0.371076  1
  O  O173  1  0.250050  0.693776  0.371054  1
  O  O174  1  0.249894  0.806195  0.477376  1
  O  O175  1  0.250007  0.306255  0.477346  1
  O  O176  1  0.749851  0.193834  0.318265  1
  O  O177  1  0.750049  0.693843  0.318202  1
  O  O178  1  0.749895  0.806216  0.424555  1
  O  O179  1  0.750007  0.306214  0.424525  1
  O  O180  1  0.499485  0.179187  0.348570  1
  O  O181  1  0.499944  0.679179  0.348595  1
  O  O182  1  0.499626  0.820853  0.446857  1
  O  O183  1  0.499834  0.320863  0.446862  1
  O  O184  1  -0.000000  0.179187  0.348774  1
  O  O185  1  -0.000000  0.679180  0.348623  1
  O  O186  1  -0.000000  0.820855  0.447056  1
  O  O187  1  0.000000  0.320863  0.446895  1
  O  O188  1  0.494481  0.162362  0.402007  1
  O  O189  1  0.494589  0.662345  0.402035  1
  O  O190  1  0.494417  0.837671  0.491069  1
  O  O191  1  0.494570  0.337696  0.491069  1
  O  O192  1  0.994195  0.162332  0.304535  1
  O  O193  1  0.993886  0.662248  0.304442  1
  O  O194  1  0.994349  0.837716  0.393572  1
  O  O195  1  0.993835  0.337798  0.393426  1
  O  O196  1  0.506476  0.837854  0.393328  1
  O  O197  1  0.506386  0.337840  0.393353  1
  O  O198  1  0.506566  0.162193  0.304362  1
  O  O199  1  0.506402  0.662202  0.304398  1
  O  O200  1  0.006410  0.837813  0.491236  1
  O  O201  1  0.005650  0.337739  0.491120  1
  O  O202  1  0.006278  0.162224  0.402256  1
  O  O203  1  0.005697  0.662302  0.402104  1
  O  O204  1  0.750117  0.150824  0.430759  1
  O  O205  1  0.750030  0.650863  0.430830  1
  O  O206  1  0.750156  0.849144  0.513483  1
  O  O207  1  0.749993  0.349189  0.513567  1
  O  O208  1  0.250122  0.151133  0.282077  1
  O  O209  1  0.250032  0.650938  0.282150  1
  O  O210  1  0.250157  0.849001  0.364918  1
  O  O211  1  0.249995  0.349089  0.364936  1
  O  O212  1  0.248914  0.000000  0.288620  1
  O  O213  1  0.249945  0.500015  0.292134  1
  O  O214  1  0.748910  0.000000  0.506990  1
  O  O215  1  0.749911  0.500023  0.511772  1
  O  O216  1  0.494466  0.000000  0.534445  1
  O  O217  1  0.480238  0.500021  0.260749  1
  O  O218  1  0.994507  0.000000  0.261156  1
  O  O219  1  0.019408  0.500022  0.260799  1
  O  O220  1  0.750007  0.087731  0.536666  1
  O  O221  1  0.750017  0.588781  0.535770  1
  O  O222  1  0.750026  0.912410  0.584708  1
  O  O223  1  0.750000  0.411246  0.584461  1
  O  O224  1  0.991295  0.042680  0.558533  1
  O  O225  1  0.986490  0.542411  0.558241  1
  O  O226  1  0.991484  0.957358  0.581936  1
  O  O227  1  0.986457  0.457629  0.581491  1
  O  O228  1  0.508692  0.957611  0.581233  1
  O  O229  1  0.513487  0.457635  0.581436  1
  O  O230  1  0.508867  0.042427  0.557966  1
  O  O231  1  0.513481  0.542400  0.558191  1
  O  O232  1  0.500936  0.904339  0.560993  1
  O  O233  1  0.497420  0.404193  0.561146  1
  O  O234  1  -0.000000  0.904340  0.561371  1
  O  O235  1  0.002777  0.404198  0.561203  1
  O  O236  1  0.994757  0.117408  0.550153  1
  O  O237  1  0.995349  0.617058  0.550135  1
  O  O238  1  0.994471  0.882621  0.614549  1
  O  O239  1  0.995360  0.382984  0.614329  1
  O  O240  1  0.504346  0.882953  0.614195  1
  O  O241  1  0.504424  0.382997  0.614265  1
  O  O242  1  0.503992  0.117077  0.549976  1
  O  O243  1  0.504495  0.617040  0.550084  1
  O  O244  1  0.250123  0.780876  0.566774  1
  O  O245  1  0.250000  0.280886  0.566869  1
  O  O246  1  0.750124  0.780868  0.623190  1
  O  O247  1  0.749999  0.280901  0.623281  1
  O  O248  1  0.492503  0.733518  0.575472  1
  O  O249  1  0.492333  0.233518  0.575466  1
  O  O250  1  0.992606  0.733548  0.640484  1
  O  O251  1  0.992596  0.233628  0.640576  1
  O  O252  1  0.507301  0.733650  0.640408  1
  O  O253  1  0.507197  0.233668  0.640399  1
  O  O254  1  0.007397  0.733623  0.575492  1
  O  O255  1  0.007461  0.233559  0.575622  1
  O  O256  1  0.500261  0.787029  0.593266  1
  O  O257  1  0.500536  0.287037  0.593265  1
  O  O258  1  -0.000000  0.787029  0.593385  1
  O  O259  1  0.000000  0.287038  0.593375  1
  O  O260  1  0.518874  0.807583  0.542152  1
  O  O261  1  0.518493  0.307583  0.542148  1
  O  O262  1  0.018551  0.807588  0.633257  1
  O  O263  1  0.018588  0.307828  0.633083  1
  O  O264  1  0.481666  0.807825  0.633004  1
  O  O265  1  0.481230  0.307846  0.632992  1
  O  O266  1  0.981348  0.807823  0.542274  1
  O  O267  1  0.981323  0.307599  0.542229  1
  O  O268  1  0.249854  0.193840  0.645352  1
  O  O269  1  0.250050  0.693776  0.645330  1
  O  O270  1  0.749851  0.193834  0.592541  1
  O  O271  1  0.750049  0.693843  0.592478  1
  O  O272  1  0.499485  0.179187  0.622845  1
  O  O273  1  0.499944  0.679179  0.622871  1
  O  O274  1  -0.000000  0.179187  0.623049  1
  O  O275  1  0.000000  0.679180  0.622899  1
  O  O276  1  0.494481  0.162362  0.676282  1
  O  O277  1  0.494589  0.662345  0.676311  1
  O  O278  1  0.994195  0.162332  0.578810  1
  O  O279  1  0.993886  0.662248  0.578718  1
  O  O280  1  0.994349  0.837716  0.667848  1
  O  O281  1  0.993835  0.337798  0.667702  1
  O  O282  1  0.506476  0.837854  0.667603  1
  O  O283  1  0.506386  0.337840  0.667629  1
  O  O284  1  0.506566  0.162193  0.578637  1
  O  O285  1  0.506402  0.662202  0.578673  1
  O  O286  1  0.006278  0.162224  0.676532  1
  O  O287  1  0.005697  0.662302  0.676380  1
  O  O288  1  0.250122  0.151133  0.556352  1
  O  O289  1  0.250032  0.650938  0.556426  1
  O  O290  1  0.250157  0.849001  0.639194  1
  O  O291  1  0.249995  0.349089  0.639212  1
  O  O292  1  0.248914  0.000000  0.562895  1
  O  O293  1  0.249945  0.500015  0.566410  1
  O  O294  1  0.480238  0.500021  0.535025  1
  O  O295  1  0.994507  0.000000  0.535432  1
  O  O296  1  0.019408  0.500022  0.535075  1
  Si  Si297  1  0.435986  0.086641  0.209534  1
  Si  Si298  1  0.436269  0.586458  0.209529  1
  Si  Si299  1  0.436006  0.913388  0.257048  1
  Si  Si300  1  0.436252  0.413589  0.256934  1
  Si  Si301  1  0.063974  0.913535  0.257322  1
  Si  Si302  1  0.063720  0.413599  0.256978  1
  Si  Si303  1  0.063958  0.086499  0.209889  1
  Si  Si304  1  0.063737  0.586447  0.209576  1
  Si  Si305  1  0.437744  0.222454  0.172505  1
  Si  Si306  1  0.437732  0.722456  0.172557  1
  Si  Si307  1  0.937760  0.222428  0.226696  1
  Si  Si308  1  0.937697  0.722364  0.226766  1
  Si  Si309  1  0.562407  0.222354  0.226636  1
  Si  Si310  1  0.562397  0.722324  0.226696  1
  Si  Si311  1  0.062421  0.222381  0.172606  1
  Si  Si312  1  0.062364  0.722419  0.172647  1
  Si  Si313  1  0.437134  0.809253  0.202733  1
  Si  Si314  1  0.437270  0.309286  0.202729  1
  Si  Si315  1  0.937138  0.809330  0.148958  1
  Si  Si316  1  0.937222  0.309310  0.148833  1
  Si  Si317  1  0.562687  0.809386  0.148769  1
  Si  Si318  1  0.562812  0.309378  0.148778  1
  Si  Si319  1  0.062690  0.809312  0.202890  1
  Si  Si320  1  0.062764  0.309356  0.202746  1
  Si  Si321  1  0.936487  0.154433  0.157168  1
  Si  Si322  1  0.936413  0.654660  0.157019  1
  Si  Si323  1  0.936529  0.845592  0.241873  1
  Si  Si324  1  0.936375  0.345387  0.241841  1
  Si  Si325  1  0.563798  0.845368  0.241762  1
  Si  Si326  1  0.563593  0.345386  0.241788  1
  Si  Si327  1  0.563761  0.154653  0.156931  1
  Si  Si328  1  0.563631  0.654660  0.156970  1
  Si  Si329  1  0.937921  0.000000  0.233745  1
  Si  Si330  1  0.938774  0.500023  0.234724  1
  Si  Si331  1  0.559827  0.000000  0.233202  1
  Si  Si332  1  0.561067  0.500023  0.234685  1
  Si  Si333  1  0.435986  0.086641  0.483810  1
  Si  Si334  1  0.436269  0.586458  0.483804  1
  Si  Si335  1  0.436006  0.913388  0.531324  1
  Si  Si336  1  0.436252  0.413589  0.531210  1
  Si  Si337  1  0.936004  0.086658  0.264304  1
  Si  Si338  1  0.935958  0.586677  0.263957  1
  Si  Si339  1  0.936021  0.913396  0.311817  1
  Si  Si340  1  0.935940  0.413362  0.311487  1
  Si  Si341  1  0.563958  0.913541  0.311464  1
  Si  Si342  1  0.564043  0.413370  0.311438  1
  Si  Si343  1  0.563940  0.086514  0.264026  1
  Si  Si344  1  0.564061  0.586665  0.263915  1
  Si  Si345  1  0.063974  0.913535  0.531597  1
  Si  Si346  1  0.063720  0.413599  0.531253  1
  Si  Si347  1  0.063958  0.086499  0.484165  1
  Si  Si348  1  0.063737  0.586447  0.483851  1
  Si  Si349  1  0.437744  0.222454  0.446781  1
  Si  Si350  1  0.437732  0.722456  0.446832  1
  Si  Si351  1  0.437787  0.777589  0.294542  1
  Si  Si352  1  0.437691  0.277589  0.294564  1
  Si  Si353  1  0.937760  0.222428  0.500972  1
  Si  Si354  1  0.937697  0.722364  0.501041  1
  Si  Si355  1  0.937800  0.777613  0.348716  1
  Si  Si356  1  0.937657  0.277675  0.348728  1
  Si  Si357  1  0.562448  0.777687  0.348618  1
  Si  Si358  1  0.562357  0.277713  0.348634  1
  Si  Si359  1  0.562407  0.222354  0.500911  1
  Si  Si360  1  0.562397  0.722324  0.500972  1
  Si  Si361  1  0.062460  0.777665  0.294599  1
  Si  Si362  1  0.062324  0.277626  0.294638  1
  Si  Si363  1  0.062421  0.222381  0.446882  1
  Si  Si364  1  0.062364  0.722419  0.446923  1
  Si  Si365  1  0.437096  0.190783  0.372366  1
  Si  Si366  1  0.437313  0.690754  0.372384  1
  Si  Si367  1  0.437134  0.809253  0.477009  1
  Si  Si368  1  0.437270  0.309286  0.477005  1
  Si  Si369  1  0.937090  0.190716  0.318634  1
  Si  Si370  1  0.937263  0.690737  0.318496  1
  Si  Si371  1  0.937138  0.809330  0.423234  1
  Si  Si372  1  0.937222  0.309310  0.423109  1
  Si  Si373  1  0.562687  0.809386  0.423045  1
  Si  Si374  1  0.562812  0.309378  0.423054  1
  Si  Si375  1  0.562649  0.190659  0.318472  1
  Si  Si376  1  0.562854  0.690666  0.318482  1
  Si  Si377  1  0.062690  0.809312  0.477166  1
  Si  Si378  1  0.062764  0.309356  0.477022  1
  Si  Si379  1  0.062647  0.190727  0.372558  1
  Si  Si380  1  0.062805  0.690684  0.372436  1
  Si  Si381  1  0.936487  0.154433  0.431443  1
  Si  Si382  1  0.936413  0.654660  0.431295  1
  Si  Si383  1  0.936529  0.845592  0.516149  1
  Si  Si384  1  0.936375  0.345387  0.516116  1
  Si  Si385  1  0.436505  0.154507  0.279422  1
  Si  Si386  1  0.436374  0.654476  0.279473  1
  Si  Si387  1  0.436540  0.845555  0.364162  1
  Si  Si388  1  0.436336  0.345561  0.364192  1
  Si  Si389  1  0.063787  0.845333  0.364395  1
  Si  Si390  1  0.063636  0.345560  0.364245  1
  Si  Si391  1  0.063749  0.154730  0.279537  1
  Si  Si392  1  0.063675  0.654480  0.279521  1
  Si  Si393  1  0.563798  0.845368  0.516038  1
  Si  Si394  1  0.563593  0.345386  0.516063  1
  Si  Si395  1  0.563761  0.154653  0.431207  1
  Si  Si396  1  0.563631  0.654660  0.431245  1
  Si  Si397  1  0.437926  0.000000  0.287580  1
  Si  Si398  1  0.438402  0.500018  0.288836  1
  Si  Si399  1  0.937921  0.000000  0.508020  1
  Si  Si400  1  0.938774  0.500023  0.508999  1
  Si  Si401  1  0.559827  0.000000  0.507478  1
  Si  Si402  1  0.561067  0.500023  0.508961  1
  Si  Si403  1  0.059829  0.000000  0.288124  1
  Si  Si404  1  0.061457  0.500019  0.288877  1
  Si  Si405  1  0.936004  0.086658  0.538579  1
  Si  Si406  1  0.935958  0.586677  0.538232  1
  Si  Si407  1  0.936021  0.913396  0.586093  1
  Si  Si408  1  0.935940  0.413362  0.585762  1
  Si  Si409  1  0.563958  0.913541  0.585739  1
  Si  Si410  1  0.564043  0.413370  0.585713  1
  Si  Si411  1  0.563940  0.086514  0.538302  1
  Si  Si412  1  0.564061  0.586665  0.538191  1
  Si  Si413  1  0.437787  0.777589  0.568817  1
  Si  Si414  1  0.437691  0.277589  0.568840  1
  Si  Si415  1  0.937800  0.777613  0.622992  1
  Si  Si416  1  0.937657  0.277675  0.623004  1
  Si  Si417  1  0.562448  0.777687  0.622894  1
  Si  Si418  1  0.562357  0.277713  0.622910  1
  Si  Si419  1  0.062460  0.777665  0.568875  1
  Si  Si420  1  0.062324  0.277626  0.568914  1
  Si  Si421  1  0.437096  0.190783  0.646641  1
  Si  Si422  1  0.437313  0.690754  0.646660  1
  Si  Si423  1  0.937090  0.190716  0.592910  1
  Si  Si424  1  0.937263  0.690737  0.592771  1
  Si  Si425  1  0.562649  0.190659  0.592748  1
  Si  Si426  1  0.562854  0.690666  0.592758  1
  Si  Si427  1  0.062647  0.190727  0.646834  1
  Si  Si428  1  0.062805  0.690684  0.646712  1
  Si  Si429  1  0.436505  0.154507  0.553698  1
  Si  Si430  1  0.436374  0.654476  0.553749  1
  Si  Si431  1  0.436540  0.845555  0.638437  1
  Si  Si432  1  0.436336  0.345561  0.638468  1
  Si  Si433  1  0.063787  0.845333  0.638671  1
  Si  Si434  1  0.063636  0.345560  0.638521  1
  Si  Si435  1  0.063749  0.154730  0.553813  1
  Si  Si436  1  0.063675  0.654480  0.553797  1
  Si  Si437  1  0.437926  0.000000  0.561856  1
  Si  Si438  1  0.438402  0.500018  0.563111  1
  Si  Si439  1  0.059829  0.000000  0.562399  1
  Si  Si440  1  0.061457  0.500019  0.563153  1
  H  H441  1  0.494481  0.162362  0.110887  1
  H  H442  1  0.494589  0.662345  0.110915  1
  H  H443  1  0.994349  0.837716  0.102452  1
  H  H444  1  0.993835  0.337798  0.102307  1
  H  H445  1  0.506476  0.837854  0.102208  1
  H  H446  1  0.506386  0.337840  0.102233  1
  H  H447  1  0.006278  0.162224  0.111137  1
  H  H448  1  0.005697  0.662302  0.110985  1
  H  H449  1  0.494481  0.162362  0.693126  1
  H  H450  1  0.494589  0.662345  0.693155  1
  H  H451  1  0.994349  0.837716  0.684692  1
  H  H452  1  0.993835  0.337798  0.684546  1
  H  H453  1  0.506476  0.837854  0.684447  1
  H  H454  1  0.506386  0.337840  0.684473  1
  H  H455  1  0.006278  0.162224  0.693376  1
  H  H456  1  0.005697  0.662302  0.693224  1
