# generated using pymatgen
data_Si16H2O33
_symmetry_space_group_name_H-M   'P 1'
_cell_length_a   12.95735766
_cell_length_b   5.13138262
_cell_length_c   47.72239318
_cell_angle_alpha   90.00000000
_cell_angle_beta   90.00000000
_cell_angle_gamma   90.00000000
_symmetry_Int_Tables_number   1
_chemical_formula_structural   Si16H2O33
_chemical_formula_sum   'Si32 H4 O66'
_cell_volume   3173.02183087
_cell_formula_units_Z   2
loop_
 _symmetry_equiv_pos_site_id
 _symmetry_equiv_pos_as_xyz
  1  'x, y, z'
loop_
 _atom_site_type_symbol
 _atom_site_label
 _atom_site_symmetry_multiplicity
 _atom_site_fract_x
 _atom_site_fract_y
 _atom_site_fract_z
 _atom_site_occupancy
  O  O1  1  0.734243  0.499832  0.123632  1
  O  O2  1  0.265539  0.499886  0.123637  1
  O  O3  1  0.150057  0.750097  0.218642  1
  O  O4  1  0.650093  0.249586  0.354453  1
  O  O5  1  0.349698  0.749820  0.354445  1
  O  O6  1  0.849715  0.249939  0.218650  1
  O  O7  1  0.849660  0.749581  0.300203  1
  O  O8  1  0.349751  0.250096  0.164427  1
  O  O9  1  0.650095  0.749941  0.164412  1
  O  O10  1  0.150056  0.249819  0.300218  1
  O  O11  1  0.150062  0.749817  0.300214  1
  O  O12  1  0.650076  0.249951  0.164420  1
  O  O13  1  0.349694  0.750093  0.164411  1
  O  O14  1  0.849732  0.249577  0.300223  1
  O  O15  1  0.849730  0.749934  0.218644  1
  O  O16  1  0.349695  0.249825  0.354448  1
  O  O17  1  0.650025  0.749588  0.354434  1
  O  O18  1  0.150113  0.250091  0.218658  1
  O  O19  1  0.234243  -0.000000  0.259434  1
  O  O20  1  0.734243  0.499832  0.395225  1
  O  O21  1  0.499878  0.000000  0.331593  1
  O  O22  1  -0.000000  0.499905  0.195797  1
  O  O23  1  0.765538  -0.000000  0.259429  1
  O  O24  1  0.265539  0.499886  0.395230  1
  O  O25  1  0.499906  -0.000000  0.187270  1
  O  O26  1  -0.000000  0.499819  0.323066  1
  O  O27  1  0.315031  -0.000000  0.209218  1
  O  O28  1  0.814999  0.499704  0.345010  1
  O  O29  1  0.315000  -0.000000  0.309649  1
  O  O30  1  0.815031  0.499905  0.173848  1
  O  O31  1  0.684748  -0.000000  0.309645  1
  O  O32  1  0.184781  0.499996  0.173853  1
  O  O33  1  0.684782  0.000000  0.209214  1
  O  O34  1  0.184749  0.499836  0.345015  1
  O  O35  1  0.150057  0.750097  0.490235  1
  O  O36  1  0.650093  0.249586  0.626046  1
  O  O37  1  0.349698  0.749820  0.626038  1
  O  O38  1  0.849715  0.249939  0.490243  1
  O  O39  1  0.849660  0.749581  0.571796  1
  O  O40  1  0.349751  0.250096  0.436020  1
  O  O41  1  0.650095  0.749941  0.436006  1
  O  O42  1  0.150056  0.249819  0.571811  1
  O  O43  1  0.150062  0.749817  0.571807  1
  O  O44  1  0.650076  0.249951  0.436013  1
  O  O45  1  0.349694  0.750093  0.436004  1
  O  O46  1  0.849732  0.249577  0.571816  1
  O  O47  1  0.849730  0.749934  0.490237  1
  O  O48  1  0.349695  0.249825  0.626041  1
  O  O49  1  0.650025  0.749588  0.626027  1
  O  O50  1  0.150113  0.250091  0.490251  1
  O  O51  1  0.234243  -0.000000  0.531027  1
  O  O52  1  0.734243  0.499832  0.666818  1
  O  O53  1  0.499878  0.000000  0.603186  1
  O  O54  1  -0.000000  0.499905  0.467390  1
  O  O55  1  0.765538  -0.000000  0.531022  1
  O  O56  1  0.265539  0.499886  0.666823  1
  O  O57  1  0.499906  -0.000000  0.458863  1
  O  O58  1  -0.000000  0.499819  0.594659  1
  O  O59  1  0.315031  -0.000000  0.480811  1
  O  O60  1  0.814999  0.499704  0.616603  1
  O  O61  1  0.315000  0.000000  0.581242  1
  O  O62  1  0.815031  0.499905  0.445442  1
  O  O63  1  0.684748  -0.000000  0.581238  1
  O  O64  1  0.184781  0.499996  0.445446  1
  O  O65  1  0.684782  -0.000000  0.480807  1
  O  O66  1  0.184749  0.499836  0.616608  1
  Si  Si67  1  0.212746  0.000000  0.227055  1
  Si  Si68  1  0.712719  0.499668  0.362849  1
  Si  Si69  1  0.380656  -0.000000  0.337431  1
  Si  Si70  1  0.880686  0.499915  0.201631  1
  Si  Si71  1  0.787035  -0.000000  0.291807  1
  Si  Si72  1  0.287062  0.500026  0.156015  1
  Si  Si73  1  0.619123  -0.000000  0.181432  1
  Si  Si74  1  0.119097  0.499830  0.317231  1
  Si  Si75  1  0.212719  -0.000000  0.291811  1
  Si  Si76  1  0.712747  0.499917  0.156012  1
  Si  Si77  1  0.380686  -0.000000  0.181435  1
  Si  Si78  1  0.880658  0.499665  0.317228  1
  Si  Si79  1  0.787063  -0.000000  0.227052  1
  Si  Si80  1  0.287034  0.499833  0.362853  1
  Si  Si81  1  0.619097  -0.000000  0.337428  1
  Si  Si82  1  0.119124  0.500027  0.201635  1
  Si  Si83  1  0.212746  -0.000000  0.498649  1
  Si  Si84  1  0.712719  0.499668  0.634442  1
  Si  Si85  1  0.380656  -0.000000  0.609024  1
  Si  Si86  1  0.880686  0.499915  0.473224  1
  Si  Si87  1  0.787035  -0.000000  0.563400  1
  Si  Si88  1  0.287062  0.500026  0.427608  1
  Si  Si89  1  0.619123  -0.000000  0.453025  1
  Si  Si90  1  0.119097  0.499830  0.588825  1
  Si  Si91  1  0.212719  -0.000000  0.563404  1
  Si  Si92  1  0.712747  0.499917  0.427605  1
  Si  Si93  1  0.380686  -0.000000  0.453028  1
  Si  Si94  1  0.880658  0.499665  0.588822  1
  Si  Si95  1  0.787063  0.000000  0.498645  1
  Si  Si96  1  0.287034  0.499833  0.634446  1
  Si  Si97  1  0.619097  0.000000  0.609021  1
  Si  Si98  1  0.119124  0.500027  0.473228  1
  H  H99  1  0.734243  0.499832  0.104773  1
  H  H100  1  0.265539  0.499886  0.104778  1
  H  H101  1  0.734243  0.499832  0.685677  1
  H  H102  1  0.265539  0.499886  0.685682  1
