# generated using pymatgen
data_Si4H2O9
_symmetry_space_group_name_H-M   'P 1'
_cell_length_a   13.66911044
_cell_length_b   8.35476497
_cell_length_c   32.67920920
_cell_angle_alpha   90.00000000
_cell_angle_beta   120.00000000
_cell_angle_gamma   90.00000000
_symmetry_Int_Tables_number   1
_chemical_formula_structural   Si4H2O9
_chemical_formula_sum   'Si16 H8 O36'
_cell_volume   3232.03950035
_cell_formula_units_Z   4
loop_
 _symmetry_equiv_pos_site_id
 _symmetry_equiv_pos_as_xyz
  1  'x, y, z'
loop_
 _atom_site_type_symbol
 _atom_site_label
 _atom_site_symmetry_multiplicity
 _atom_site_fract_x
 _atom_site_fract_y
 _atom_site_fract_z
 _atom_site_occupancy
  O  O1  1  0.336864  0.000000  0.306891  1
  O  O2  1  0.122721  -0.000000  0.391792  1
  O  O3  1  0.662304  0.000000  0.341083  1
  O  O4  1  0.878720  0.000000  0.255744  1
  O  O5  1  0.540854  0.500109  0.392585  1
  O  O6  1  0.121416  0.500093  0.306316  1
  O  O7  1  0.458547  0.500091  0.256240  1
  O  O8  1  0.878568  0.500110  0.340817  1
  O  O9  1  0.369501  0.248336  0.268817  1
  O  O10  1  0.000000  0.249402  0.377940  1
  O  O11  1  0.630615  0.251808  0.377974  1
  O  O12  1  0.000000  0.250245  0.268722  1
  O  O13  1  0.630605  0.748447  0.377992  1
  O  O14  1  -0.000000  0.749949  0.268738  1
  O  O15  1  0.369492  0.751811  0.268835  1
  O  O16  1  -0.000000  0.750808  0.377956  1
  O  O17  1  0.215169  0.250643  0.294277  1
  O  O18  1  0.214859  0.251263  0.442411  1
  O  O19  1  0.569520  0.247505  0.442424  1
  O  O20  1  0.784748  0.249706  0.352510  1
  O  O21  1  0.784424  0.248928  0.204224  1
  O  O22  1  0.430160  0.252667  0.204212  1
  O  O23  1  0.569514  0.752665  0.442443  1
  O  O24  1  0.214855  0.748952  0.442428  1
  O  O25  1  0.215158  0.749578  0.294294  1
  O  O26  1  0.430152  0.747569  0.204231  1
  O  O27  1  0.784420  0.751264  0.204241  1
  O  O28  1  0.784736  0.750476  0.352526  1
  O  O29  1  0.425769  0.250921  0.354457  1
  O  O30  1  0.148258  0.249881  0.354384  1
  O  O31  1  0.574239  0.249562  0.292357  1
  O  O32  1  0.851358  0.250692  0.292327  1
  O  O33  1  0.425762  0.749303  0.354475  1
  O  O34  1  0.148250  0.750265  0.354400  1
  O  O35  1  0.574231  0.750617  0.292376  1
  O  O36  1  0.851350  0.749567  0.292344  1
  Si  Si37  1  0.333424  0.186590  0.304863  1
  Si  Si38  1  0.121811  0.186649  0.393058  1
  Si  Si39  1  0.666517  0.186670  0.342192  1
  Si  Si40  1  0.878023  0.186609  0.253790  1
  Si  Si41  1  0.544740  0.686671  0.393241  1
  Si  Si42  1  0.121675  0.686598  0.304693  1
  Si  Si43  1  0.455270  0.686595  0.253940  1
  Si  Si44  1  0.878044  0.686676  0.342146  1
  Si  Si45  1  0.666509  0.813535  0.342206  1
  Si  Si46  1  0.878018  0.813604  0.253803  1
  Si  Si47  1  0.333416  0.813606  0.304876  1
  Si  Si48  1  0.121806  0.813543  0.393071  1
  Si  Si49  1  0.455277  0.313592  0.253925  1
  Si  Si50  1  0.878052  0.313539  0.342133  1
  Si  Si51  1  0.544745  0.313545  0.393226  1
  Si  Si52  1  0.121683  0.313589  0.304680  1
  H  H53  1  0.214859  0.251263  0.469951  1
  H  H54  1  0.569520  0.247505  0.469965  1
  H  H55  1  0.784424  0.248928  0.176683  1
  H  H56  1  0.430160  0.252667  0.176672  1
  H  H57  1  0.569514  0.752665  0.469984  1
  H  H58  1  0.214855  0.748952  0.469968  1
  H  H59  1  0.430152  0.747569  0.176691  1
  H  H60  1  0.784420  0.751264  0.176700  1
