# generated using pymatgen
data_Si10H2O21
_symmetry_space_group_name_H-M   'P 1'
_cell_length_a   13.03001073
_cell_length_b   12.67812019
_cell_length_c   53.88762766
_cell_angle_alpha   90.00000000
_cell_angle_beta   120.00000000
_cell_angle_gamma   90.00000000
_symmetry_Int_Tables_number   1
_chemical_formula_structural   Si10H2O21
_chemical_formula_sum   'Si60 H12 O126'
_cell_volume   7709.37789757
_cell_formula_units_Z   6
loop_
 _symmetry_equiv_pos_site_id
 _symmetry_equiv_pos_as_xyz
  1  'x, y, z'
loop_
 _atom_site_type_symbol
 _atom_site_label
 _atom_site_symmetry_multiplicity
 _atom_site_fract_x
 _atom_site_fract_y
 _atom_site_fract_z
 _atom_site_occupancy
  O  O1  1  0.297729  0.097439  0.145734  1
  O  O2  1  0.354240  0.499955  0.151183  1
  O  O3  1  0.111261  0.982681  0.123841  1
  O  O4  1  0.643226  0.499847  0.151161  1
  O  O5  1  0.212637  0.437740  0.341250  1
  O  O6  1  0.229015  0.162975  0.262393  1
  O  O7  1  0.229060  0.162945  0.337296  1
  O  O8  1  0.021122  0.097578  0.228822  1
  O  O9  1  0.297729  0.097439  0.387532  1
  O  O10  1  0.021178  0.097548  0.320570  1
  O  O11  1  0.297742  0.097687  0.228768  1
  O  O12  1  0.087988  0.147023  0.282784  1
  O  O13  1  0.454340  0.146881  0.371456  1
  O  O14  1  0.454377  0.147040  0.282738  1
  O  O15  1  0.063960  0.294016  0.247624  1
  O  O16  1  0.332685  0.293894  0.377229  1
  O  O17  1  0.064000  0.293993  0.312184  1
  O  O18  1  0.332730  0.294104  0.247602  1
  O  O19  1  0.123756  0.425381  0.287157  1
  O  O20  1  0.436234  0.425202  0.362765  1
  O  O21  1  0.436276  0.425311  0.287154  1
  O  O22  1  0.212675  0.437818  0.254587  1
  O  O23  1  0.223582  0.017121  0.178284  1
  O  O24  1  0.354240  0.499955  0.392981  1
  O  O25  1  0.111299  0.982787  0.205555  1
  O  O26  1  0.459165  0.837227  0.206779  1
  O  O27  1  0.320011  0.902358  0.156509  1
  O  O28  1  0.320103  0.902583  0.223413  1
  O  O29  1  0.397792  0.706031  0.166900  1
  O  O30  1  0.397850  0.706201  0.231877  1
  O  O31  1  0.426677  0.562309  0.202903  1
  O  O32  1  0.111261  0.982681  0.365639  1
  O  O33  1  0.354266  0.500199  0.237126  1
  O  O34  1  0.886198  0.017255  0.178339  1
  O  O35  1  0.538327  0.162816  0.337249  1
  O  O36  1  0.677482  0.097686  0.320625  1
  O  O37  1  0.677388  0.097460  0.387507  1
  O  O38  1  0.599696  0.294011  0.312209  1
  O  O39  1  0.599641  0.293842  0.377172  1
  O  O40  1  0.570810  0.437734  0.341228  1
  O  O41  1  0.886229  0.017358  0.338432  1
  O  O42  1  0.643226  0.499847  0.392959  1
  O  O43  1  0.773910  0.982922  0.365716  1
  O  O44  1  0.784808  0.562219  0.202859  1
  O  O45  1  0.784853  0.562307  0.289532  1
  O  O46  1  0.768474  0.837066  0.206716  1
  O  O47  1  0.768436  0.837091  0.281608  1
  O  O48  1  0.976365  0.902459  0.223410  1
  O  O49  1  0.699759  0.902602  0.315238  1
  O  O50  1  0.976317  0.902490  0.315146  1
  O  O51  1  0.699753  0.902357  0.156472  1
  O  O52  1  0.543112  0.853000  0.172567  1
  O  O53  1  0.909505  0.853013  0.261207  1
  O  O54  1  0.543158  0.853164  0.261296  1
  O  O55  1  0.933528  0.706019  0.231853  1
  O  O56  1  0.664797  0.706149  0.296483  1
  O  O57  1  0.933496  0.706044  0.296406  1
  O  O58  1  0.664764  0.705940  0.166846  1
  O  O59  1  0.561207  0.574731  0.181358  1
  O  O60  1  0.873731  0.574662  0.256929  1
  O  O61  1  0.561257  0.574841  0.256980  1
  O  O62  1  0.643245  0.500089  0.307021  1
  O  O63  1  0.998741  0.500021  0.234529  1
  O  O64  1  0.998740  0.500017  0.304410  1
  O  O65  1  0.212637  0.437740  0.583048  1
  O  O66  1  0.229015  0.162975  0.504191  1
  O  O67  1  0.229060  0.162945  0.579094  1
  O  O68  1  0.021122  0.097578  0.470620  1
  O  O69  1  0.297729  0.097439  0.629330  1
  O  O70  1  0.021178  0.097548  0.562368  1
  O  O71  1  0.297742  0.097687  0.470566  1
  O  O72  1  0.087988  0.147023  0.524582  1
  O  O73  1  0.454340  0.146881  0.613254  1
  O  O74  1  0.454377  0.147040  0.524536  1
  O  O75  1  0.063960  0.294016  0.489422  1
  O  O76  1  0.332685  0.293894  0.619027  1
  O  O77  1  0.064000  0.293993  0.553982  1
  O  O78  1  0.332730  0.294104  0.489400  1
  O  O79  1  0.123756  0.425381  0.528955  1
  O  O80  1  0.436234  0.425202  0.604563  1
  O  O81  1  0.436276  0.425311  0.528952  1
  O  O82  1  0.212675  0.437818  0.496385  1
  O  O83  1  0.223582  0.017121  0.420082  1
  O  O84  1  0.354240  0.499955  0.634779  1
  O  O85  1  0.111299  0.982787  0.447353  1
  O  O86  1  0.459165  0.837227  0.448577  1
  O  O87  1  0.320011  0.902358  0.398307  1
  O  O88  1  0.320103  0.902583  0.465211  1
  O  O89  1  0.397792  0.706031  0.408698  1
  O  O90  1  0.397850  0.706201  0.473675  1
  O  O91  1  0.426677  0.562309  0.444700  1
  O  O92  1  0.111261  0.982681  0.607437  1
  O  O93  1  0.354266  0.500199  0.478924  1
  O  O94  1  0.886198  0.017255  0.420137  1
  O  O95  1  0.538327  0.162816  0.579047  1
  O  O96  1  0.677482  0.097686  0.562423  1
  O  O97  1  0.677388  0.097460  0.629305  1
  O  O98  1  0.599696  0.294011  0.554007  1
  O  O99  1  0.599641  0.293842  0.618970  1
  O  O100  1  0.570810  0.437734  0.583026  1
  O  O101  1  0.886229  0.017358  0.580230  1
  O  O102  1  0.643226  0.499847  0.634757  1
  O  O103  1  0.773910  0.982922  0.607514  1
  O  O104  1  0.784808  0.562219  0.444657  1
  O  O105  1  0.784853  0.562307  0.531330  1
  O  O106  1  0.768474  0.837066  0.448514  1
  O  O107  1  0.768436  0.837091  0.523406  1
  O  O108  1  0.976365  0.902459  0.465208  1
  O  O109  1  0.699759  0.902602  0.557036  1
  O  O110  1  0.976317  0.902490  0.556944  1
  O  O111  1  0.699753  0.902357  0.398270  1
  O  O112  1  0.543112  0.853000  0.414365  1
  O  O113  1  0.909505  0.853013  0.503005  1
  O  O114  1  0.543158  0.853164  0.503094  1
  O  O115  1  0.933528  0.706019  0.473651  1
  O  O116  1  0.664797  0.706149  0.538281  1
  O  O117  1  0.933496  0.706044  0.538204  1
  O  O118  1  0.664764  0.705940  0.408644  1
  O  O119  1  0.561207  0.574731  0.423156  1
  O  O120  1  0.873731  0.574662  0.498727  1
  O  O121  1  0.561257  0.574841  0.498778  1
  O  O122  1  0.643245  0.500089  0.548819  1
  O  O123  1  0.998741  0.500021  0.476327  1
  O  O124  1  0.998740  0.500017  0.546208  1
  O  O125  1  0.223582  0.017121  0.661880  1
  O  O126  1  0.320011  0.902358  0.640105  1
  Si  Si127  1  0.236451  -0.000000  0.151088  1
  Si  Si128  1  0.095838  0.172891  0.255051  1
  Si  Si129  1  0.331714  0.172787  0.369518  1
  Si  Si130  1  0.095909  0.172894  0.312423  1
  Si  Si131  1  0.331745  0.172941  0.255024  1
  Si  Si132  1  0.095853  0.414824  0.255222  1
  Si  Si133  1  0.332060  0.414720  0.369508  1
  Si  Si134  1  0.095864  0.414824  0.312347  1
  Si  Si135  1  0.332121  0.414867  0.255217  1
  Si  Si136  1  0.236524  0.000000  0.208603  1
  Si  Si137  1  0.428617  0.827170  0.174562  1
  Si  Si138  1  0.428649  0.827325  0.231619  1
  Si  Si139  1  0.429176  0.585232  0.174636  1
  Si  Si140  1  0.429233  0.585380  0.231774  1
  Si  Si141  1  0.236451  0.000000  0.392886  1
  Si  Si142  1  0.568875  0.172874  0.312417  1
  Si  Si143  1  0.568842  0.172721  0.369467  1
  Si  Si144  1  0.568312  0.414808  0.312357  1
  Si  Si145  1  0.568255  0.414661  0.369482  1
  Si  Si146  1  0.761038  0.000000  0.335409  1
  Si  Si147  1  0.998745  0.000000  0.332774  1
  Si  Si148  1  0.998745  0.000000  0.206059  1
  Si  Si149  1  0.901653  0.827154  0.231575  1
  Si  Si150  1  0.665780  0.827256  0.289008  1
  Si  Si151  1  0.901586  0.827150  0.288931  1
  Si  Si152  1  0.665745  0.827102  0.174506  1
  Si  Si153  1  0.901633  0.585210  0.231741  1
  Si  Si154  1  0.665431  0.585323  0.288913  1
  Si  Si155  1  0.901625  0.585210  0.288863  1
  Si  Si156  1  0.665364  0.585172  0.174607  1
  Si  Si157  1  0.760969  -0.000000  0.392907  1
  Si  Si158  1  0.095838  0.172891  0.496849  1
  Si  Si159  1  0.331714  0.172787  0.611316  1
  Si  Si160  1  0.095909  0.172894  0.554221  1
  Si  Si161  1  0.331745  0.172941  0.496822  1
  Si  Si162  1  0.095853  0.414824  0.497020  1
  Si  Si163  1  0.332060  0.414720  0.611306  1
  Si  Si164  1  0.095864  0.414824  0.554145  1
  Si  Si165  1  0.332121  0.414867  0.497015  1
  Si  Si166  1  0.236524  0.000000  0.450401  1
  Si  Si167  1  0.428617  0.827170  0.416360  1
  Si  Si168  1  0.428649  0.827325  0.473417  1
  Si  Si169  1  0.429176  0.585232  0.416434  1
  Si  Si170  1  0.429233  0.585380  0.473572  1
  Si  Si171  1  0.236451  0.000000  0.634684  1
  Si  Si172  1  0.568875  0.172874  0.554215  1
  Si  Si173  1  0.568842  0.172721  0.611265  1
  Si  Si174  1  0.568312  0.414808  0.554155  1
  Si  Si175  1  0.568255  0.414661  0.611280  1
  Si  Si176  1  0.761038  -0.000000  0.577207  1
  Si  Si177  1  0.998745  0.000000  0.574572  1
  Si  Si178  1  0.998745  0.000000  0.447857  1
  Si  Si179  1  0.901653  0.827154  0.473373  1
  Si  Si180  1  0.665780  0.827256  0.530806  1
  Si  Si181  1  0.901586  0.827150  0.530729  1
  Si  Si182  1  0.665745  0.827102  0.416304  1
  Si  Si183  1  0.901633  0.585210  0.473539  1
  Si  Si184  1  0.665431  0.585323  0.530711  1
  Si  Si185  1  0.901625  0.585210  0.530661  1
  Si  Si186  1  0.665364  0.585172  0.416405  1
  H  H187  1  0.297729  0.097439  0.129032  1
  H  H188  1  0.354240  0.499955  0.134481  1
  H  H189  1  0.111261  0.982681  0.107140  1
  H  H190  1  0.643226  0.499847  0.134460  1
  H  H191  1  0.886198  0.017255  0.161638  1
  H  H192  1  0.699753  0.902357  0.139771  1
  H  H193  1  0.354240  0.499955  0.651480  1
  H  H194  1  0.677388  0.097460  0.646006  1
  H  H195  1  0.643226  0.499847  0.651459  1
  H  H196  1  0.773910  0.982922  0.624216  1
  H  H197  1  0.223582  0.017121  0.678581  1
  H  H198  1  0.320011  0.902358  0.656806  1
