# generated using pymatgen
data_Si12H2O25
_symmetry_space_group_name_H-M   'P 1'
_cell_length_a   8.30247312
_cell_length_b   14.94066669
_cell_length_c   40.61255560
_cell_angle_alpha   90.00000000
_cell_angle_beta   90.00000000
_cell_angle_gamma   90.00000000
_symmetry_Int_Tables_number   1
_chemical_formula_structural   Si12H2O25
_chemical_formula_sum   'Si48 H8 O100'
_cell_volume   5037.76348691
_cell_formula_units_Z   4
loop_
 _symmetry_equiv_pos_site_id
 _symmetry_equiv_pos_as_xyz
  1  'x, y, z'
loop_
 _atom_site_type_symbol
 _atom_site_label
 _atom_site_symmetry_multiplicity
 _atom_site_fract_x
 _atom_site_fract_y
 _atom_site_fract_z
 _atom_site_occupancy
  O  O1  1  0.770386  0.749907  0.145275  1
  O  O2  1  0.229763  0.749906  0.145276  1
  O  O3  1  0.249189  0.119956  0.261486  1
  O  O4  1  0.751226  0.619949  0.261120  1
  O  O5  1  0.750959  0.119956  0.261486  1
  O  O6  1  0.248921  0.619948  0.261120  1
  O  O7  1  0.248923  0.379887  0.261464  1
  O  O8  1  0.750956  0.879879  0.261098  1
  O  O9  1  0.751226  0.379888  0.261464  1
  O  O10  1  0.249191  0.879879  0.261098  1
  O  O11  1  0.263235  0.165727  0.200578  1
  O  O12  1  0.743473  0.665550  0.200008  1
  O  O13  1  0.736914  0.165729  0.200578  1
  O  O14  1  0.256675  0.665549  0.200007  1
  O  O15  1  0.263300  0.334185  0.200560  1
  O  O16  1  0.743505  0.834386  0.199979  1
  O  O17  1  0.736848  0.334185  0.200560  1
  O  O18  1  0.256644  0.834385  0.199978  1
  O  O19  1  0.736914  0.834108  0.322006  1
  O  O20  1  0.256674  0.334284  0.322576  1
  O  O21  1  0.263232  0.834107  0.322006  1
  O  O22  1  0.743474  0.334286  0.322577  1
  O  O23  1  0.736845  0.665650  0.322024  1
  O  O24  1  0.256644  0.165450  0.322605  1
  O  O25  1  0.263303  0.665649  0.322024  1
  O  O26  1  0.743502  0.165450  0.322605  1
  O  O27  1  0.241353  0.000000  0.218061  1
  O  O28  1  0.758557  0.499625  0.218055  1
  O  O29  1  0.758794  0.000000  0.218061  1
  O  O30  1  0.241592  0.499624  0.218055  1
  O  O31  1  0.758793  -0.000000  0.304523  1
  O  O32  1  0.241590  0.500210  0.304530  1
  O  O33  1  0.241354  0.000000  0.304523  1
  O  O34  1  0.758556  0.500211  0.304529  1
  O  O35  1  -0.000000  0.106695  0.225327  1
  O  O36  1  0.500074  0.589910  0.227213  1
  O  O37  1  0.000000  0.393349  0.225234  1
  O  O38  1  0.500074  0.910167  0.227124  1
  O  O39  1  0.000000  0.893141  0.297256  1
  O  O40  1  0.500074  0.409925  0.295371  1
  O  O41  1  -0.000000  0.606486  0.297351  1
  O  O42  1  0.500074  0.089669  0.295459  1
  O  O43  1  0.500074  0.249908  0.176027  1
  O  O44  1  0.000000  0.749935  0.187068  1
  O  O45  1  0.500075  0.749929  0.346557  1
  O  O46  1  -0.000000  0.249899  0.335516  1
  O  O47  1  0.229760  0.249928  0.146122  1
  O  O48  1  0.770386  0.749907  0.376462  1
  O  O49  1  0.770387  0.249929  0.146122  1
  O  O50  1  0.229763  0.749906  0.376463  1
  O  O51  1  0.249189  0.119956  0.492672  1
  O  O52  1  0.751226  0.619949  0.492307  1
  O  O53  1  0.750959  0.119956  0.492673  1
  O  O54  1  0.248921  0.619948  0.492307  1
  O  O55  1  0.248923  0.379887  0.492651  1
  O  O56  1  0.750956  0.879879  0.492285  1
  O  O57  1  0.751226  0.379888  0.492651  1
  O  O58  1  0.249191  0.879879  0.492285  1
  O  O59  1  0.263235  0.165727  0.431765  1
  O  O60  1  0.743473  0.665550  0.431195  1
  O  O61  1  0.736914  0.165729  0.431765  1
  O  O62  1  0.256675  0.665549  0.431194  1
  O  O63  1  0.263300  0.334185  0.431747  1
  O  O64  1  0.743505  0.834386  0.431166  1
  O  O65  1  0.736848  0.334185  0.431747  1
  O  O66  1  0.256644  0.834385  0.431165  1
  O  O67  1  0.736914  0.834108  0.553193  1
  O  O68  1  0.256674  0.334284  0.553763  1
  O  O69  1  0.263232  0.834107  0.553193  1
  O  O70  1  0.743474  0.334286  0.553764  1
  O  O71  1  0.736845  0.665650  0.553211  1
  O  O72  1  0.256644  0.165450  0.553792  1
  O  O73  1  0.263303  0.665649  0.553211  1
  O  O74  1  0.743502  0.165450  0.553792  1
  O  O75  1  0.241353  0.000000  0.449248  1
  O  O76  1  0.758557  0.499625  0.449242  1
  O  O77  1  0.758794  0.000000  0.449248  1
  O  O78  1  0.241592  0.499624  0.449242  1
  O  O79  1  0.758793  0.000000  0.535709  1
  O  O80  1  0.241590  0.500210  0.535716  1
  O  O81  1  0.241354  0.000000  0.535710  1
  O  O82  1  0.758556  0.500211  0.535716  1
  O  O83  1  -0.000000  0.106695  0.456513  1
  O  O84  1  0.500074  0.589910  0.458400  1
  O  O85  1  -0.000000  0.393349  0.456420  1
  O  O86  1  0.500074  0.910167  0.458311  1
  O  O87  1  -0.000000  0.893141  0.528443  1
  O  O88  1  0.500074  0.409925  0.526558  1
  O  O89  1  -0.000000  0.606486  0.528538  1
  O  O90  1  0.500074  0.089669  0.526646  1
  O  O91  1  0.500074  0.249908  0.407214  1
  O  O92  1  0.000000  0.749935  0.418255  1
  O  O93  1  0.500075  0.749929  0.577744  1
  O  O94  1  0.000000  0.249899  0.566703  1
  O  O95  1  0.229760  0.249928  0.377309  1
  O  O96  1  0.770386  0.749907  0.607649  1
  O  O97  1  0.770387  0.249929  0.377309  1
  O  O98  1  0.229763  0.749906  0.607650  1
  O  O99  1  0.229760  0.249928  0.608495  1
  O  O100  1  0.770387  0.249929  0.608495  1
  Si  Si101  1  0.187473  0.098905  0.225674  1
  Si  Si102  1  0.687621  0.594789  0.225815  1
  Si  Si103  1  0.812674  0.098905  0.225674  1
  Si  Si104  1  0.312528  0.594789  0.225815  1
  Si  Si105  1  0.187480  0.401031  0.225640  1
  Si  Si106  1  0.687622  0.905151  0.225783  1
  Si  Si107  1  0.812667  0.401031  0.225640  1
  Si  Si108  1  0.312527  0.905150  0.225783  1
  Si  Si109  1  0.812675  0.900931  0.296910  1
  Si  Si110  1  0.312527  0.405046  0.296769  1
  Si  Si111  1  0.187474  0.900930  0.296910  1
  Si  Si112  1  0.687620  0.405047  0.296769  1
  Si  Si113  1  0.812667  0.598804  0.296945  1
  Si  Si114  1  0.312527  0.094685  0.296801  1
  Si  Si115  1  0.187481  0.598804  0.296945  1
  Si  Si116  1  0.687621  0.094685  0.296801  1
  Si  Si117  1  0.313764  0.249935  0.180421  1
  Si  Si118  1  0.813843  0.749942  0.182601  1
  Si  Si119  1  0.686384  0.249935  0.180421  1
  Si  Si120  1  0.186303  0.749941  0.182601  1
  Si  Si121  1  0.686383  0.749901  0.342163  1
  Si  Si122  1  0.186304  0.249893  0.339983  1
  Si  Si123  1  0.313764  0.749901  0.342163  1
  Si  Si124  1  0.813845  0.249894  0.339983  1
  Si  Si125  1  0.187473  0.098905  0.456860  1
  Si  Si126  1  0.687621  0.594789  0.457002  1
  Si  Si127  1  0.812674  0.098905  0.456860  1
  Si  Si128  1  0.312528  0.594789  0.457002  1
  Si  Si129  1  0.187480  0.401031  0.456827  1
  Si  Si130  1  0.687622  0.905151  0.456970  1
  Si  Si131  1  0.812667  0.401031  0.456827  1
  Si  Si132  1  0.312527  0.905150  0.456970  1
  Si  Si133  1  0.812675  0.900931  0.528097  1
  Si  Si134  1  0.312527  0.405046  0.527956  1
  Si  Si135  1  0.187474  0.900930  0.528097  1
  Si  Si136  1  0.687620  0.405047  0.527956  1
  Si  Si137  1  0.812667  0.598804  0.528131  1
  Si  Si138  1  0.312527  0.094685  0.527988  1
  Si  Si139  1  0.187481  0.598804  0.528131  1
  Si  Si140  1  0.687621  0.094685  0.527988  1
  Si  Si141  1  0.313764  0.249935  0.411608  1
  Si  Si142  1  0.813843  0.749942  0.413788  1
  Si  Si143  1  0.686384  0.249935  0.411608  1
  Si  Si144  1  0.186303  0.749941  0.413788  1
  Si  Si145  1  0.686383  0.749901  0.573350  1
  Si  Si146  1  0.186304  0.249893  0.571169  1
  Si  Si147  1  0.313764  0.749901  0.573350  1
  Si  Si148  1  0.813845  0.249894  0.571169  1
  H  H149  1  0.770386  0.749907  0.123115  1
  H  H150  1  0.229763  0.749906  0.123115  1
  H  H151  1  0.229760  0.249928  0.123961  1
  H  H152  1  0.770387  0.249929  0.123961  1
  H  H153  1  0.770386  0.749907  0.629810  1
  H  H154  1  0.229763  0.749906  0.629810  1
  H  H155  1  0.229760  0.249928  0.630656  1
  H  H156  1  0.770387  0.249929  0.630656  1
