# generated using pymatgen
data_Si18H2O37
_symmetry_space_group_name_H-M   'P 1'
_cell_length_a   5.00751566
_cell_length_b   35.73547428
_cell_length_c   103.71302400
_cell_angle_alpha   149.99913445
_cell_angle_beta   90.00000000
_cell_angle_gamma   90.00000000
_symmetry_Int_Tables_number   1
_chemical_formula_structural   Si18H2O37
_chemical_formula_sum   'Si108 H12 O222'
_cell_volume   9279.75545511
_cell_formula_units_Z   6
loop_
 _symmetry_equiv_pos_site_id
 _symmetry_equiv_pos_as_xyz
  1  'x, y, z'
loop_
 _atom_site_type_symbol
 _atom_site_label
 _atom_site_symmetry_multiplicity
 _atom_site_fract_x
 _atom_site_fract_y
 _atom_site_fract_z
 _atom_site_occupancy
  O  O1  1  0.878784  0.549191  0.105095  1
  O  O2  1  0.545929  0.216386  0.105279  1
  O  O3  1  0.212540  0.882983  0.105262  1
  O  O4  1  0.120282  0.450337  0.105104  1
  O  O5  1  0.787193  0.117493  0.105269  1
  O  O6  1  0.454101  0.784199  0.105288  1
  O  O7  1  0.165891  0.871878  0.146050  1
  O  O8  1  0.833561  0.538341  0.145952  1
  O  O9  1  0.500082  0.205526  0.146084  1
  O  O10  1  0.165977  0.461857  0.222594  1
  O  O11  1  0.833650  0.128321  0.222570  1
  O  O12  1  0.499454  0.794673  0.222417  1
  O  O13  1  0.165915  0.666491  0.145918  1
  O  O14  1  0.833631  0.333704  0.146081  1
  O  O15  1  0.499776  0.000000  0.146062  1
  O  O16  1  0.167413  0.666970  0.263381  1
  O  O17  1  0.832117  0.333227  0.263259  1
  O  O18  1  0.499769  0.000000  0.263380  1
  O  O19  1  0.166911  0.871925  0.186874  1
  O  O20  1  0.833051  0.538862  0.186911  1
  O  O21  1  0.498700  0.204886  0.186715  1
  O  O22  1  0.166490  0.461331  0.263240  1
  O  O23  1  0.832635  0.128268  0.263365  1
  O  O24  1  0.500840  0.795307  0.263428  1
  O  O25  1  0.000000  0.000000  0.188558  1
  O  O26  1  0.666547  0.666530  0.188391  1
  O  O27  1  0.332989  0.333669  0.188532  1
  O  O28  1  0.000000  0.419037  0.188568  1
  O  O29  1  0.666626  0.085283  0.188505  1
  O  O30  1  0.332771  0.751736  0.188375  1
  O  O31  1  0.000000  0.581163  0.137481  1
  O  O32  1  0.666770  0.248463  0.137667  1
  O  O33  1  0.332918  0.914917  0.137670  1
  O  O34  1  0.000000  0.581818  0.220953  1
  O  O35  1  0.665741  0.247899  0.220775  1
  O  O36  1  0.333366  0.914769  0.220897  1
  O  O37  1  0.000000  0.000000  0.220937  1
  O  O38  1  0.666661  0.667042  0.220924  1
  O  O39  1  0.332881  0.333151  0.220758  1
  O  O40  1  -0.000000  0.418375  0.271647  1
  O  O41  1  0.666174  0.085423  0.271818  1
  O  O42  1  0.333795  0.752293  0.271817  1
  O  O43  1  0.879063  0.901217  0.175233  1
  O  O44  1  0.545840  0.567914  0.175169  1
  O  O45  1  0.212182  0.234534  0.175130  1
  O  O46  1  0.879260  0.549861  0.234265  1
  O  O47  1  0.545442  0.215999  0.234134  1
  O  O48  1  0.212350  0.882705  0.234138  1
  O  O49  1  0.878784  0.549191  0.304022  1
  O  O50  1  0.545929  0.216386  0.304207  1
  O  O51  1  0.212540  0.882983  0.304189  1
  O  O52  1  0.120479  0.098979  0.234243  1
  O  O53  1  0.787357  0.765662  0.234150  1
  O  O54  1  0.453699  0.432282  0.234162  1
  O  O55  1  0.120752  0.451003  0.175260  1
  O  O56  1  0.786998  0.117211  0.175153  1
  O  O57  1  0.453609  0.783807  0.175129  1
  O  O58  1  0.120282  0.450337  0.304031  1
  O  O59  1  0.787193  0.117493  0.304196  1
  O  O60  1  0.454101  0.784199  0.304216  1
  O  O61  1  0.665844  0.898036  0.151307  1
  O  O62  1  0.333571  0.564223  0.151060  1
  O  O63  1  -0.000000  0.231461  0.151221  1
  O  O64  1  0.665966  0.435976  0.212256  1
  O  O65  1  0.333697  0.102162  0.212216  1
  O  O66  1  0.000000  0.768739  0.212076  1
  O  O67  1  0.665920  0.666383  0.151059  1
  O  O68  1  0.333626  0.333816  0.151288  1
  O  O69  1  0.000000  0.000000  0.151229  1
  O  O70  1  0.667446  0.667204  0.258280  1
  O  O71  1  0.332083  0.332989  0.258018  1
  O  O72  1  0.000000  0.000000  0.258201  1
  O  O73  1  0.666943  0.897788  0.197208  1
  O  O74  1  0.333066  0.564940  0.197260  1
  O  O75  1  0.998634  0.231068  0.197072  1
  O  O76  1  0.666475  0.435253  0.258027  1
  O  O77  1  0.332604  0.102405  0.258264  1
  O  O78  1  0.000000  0.769125  0.258160  1
  O  O79  1  0.165891  0.871878  0.344977  1
  O  O80  1  0.833561  0.538341  0.344879  1
  O  O81  1  0.500082  0.205526  0.345011  1
  O  O82  1  0.165977  0.461857  0.421521  1
  O  O83  1  0.833650  0.128321  0.421498  1
  O  O84  1  0.499454  0.794673  0.421344  1
  O  O85  1  0.165915  0.666491  0.344845  1
  O  O86  1  0.833631  0.333704  0.345008  1
  O  O87  1  0.499776  0.000000  0.344989  1
  O  O88  1  0.167413  0.666970  0.462308  1
  O  O89  1  0.832117  0.333227  0.462186  1
  O  O90  1  0.499769  0.000000  0.462307  1
  O  O91  1  0.166911  0.871925  0.385801  1
  O  O92  1  0.833051  0.538862  0.385838  1
  O  O93  1  0.498700  0.204886  0.385642  1
  O  O94  1  0.166490  0.461331  0.462168  1
  O  O95  1  0.832635  0.128268  0.462292  1
  O  O96  1  0.500840  0.795307  0.462355  1
  O  O97  1  0.000000  0.000000  0.387485  1
  O  O98  1  0.666547  0.666530  0.387318  1
  O  O99  1  0.332989  0.333669  0.387459  1
  O  O100  1  -0.000000  0.419037  0.387495  1
  O  O101  1  0.666626  0.085283  0.387432  1
  O  O102  1  0.332771  0.751736  0.387302  1
  O  O103  1  0.000000  0.581163  0.336408  1
  O  O104  1  0.666770  0.248463  0.336594  1
  O  O105  1  0.332918  0.914917  0.336597  1
  O  O106  1  -0.000000  0.581818  0.419880  1
  O  O107  1  0.665741  0.247899  0.419702  1
  O  O108  1  0.333366  0.914769  0.419824  1
  O  O109  1  0.000000  0.000000  0.419864  1
  O  O110  1  0.666661  0.667042  0.419851  1
  O  O111  1  0.332881  0.333151  0.419685  1
  O  O112  1  0.000000  0.418375  0.470574  1
  O  O113  1  0.666174  0.085423  0.470746  1
  O  O114  1  0.333795  0.752293  0.470745  1
  O  O115  1  0.879063  0.901217  0.374160  1
  O  O116  1  0.545840  0.567914  0.374096  1
  O  O117  1  0.212182  0.234534  0.374057  1
  O  O118  1  0.879260  0.549861  0.433192  1
  O  O119  1  0.545442  0.215999  0.433061  1
  O  O120  1  0.212350  0.882705  0.433066  1
  O  O121  1  0.878784  0.549191  0.502950  1
  O  O122  1  0.545929  0.216386  0.503134  1
  O  O123  1  0.212540  0.882983  0.503117  1
  O  O124  1  0.120479  0.098979  0.433170  1
  O  O125  1  0.787357  0.765662  0.433077  1
  O  O126  1  0.453699  0.432282  0.433089  1
  O  O127  1  0.120752  0.451003  0.374187  1
  O  O128  1  0.786998  0.117211  0.374080  1
  O  O129  1  0.453609  0.783807  0.374056  1
  O  O130  1  0.120282  0.450337  0.502958  1
  O  O131  1  0.787193  0.117493  0.503124  1
  O  O132  1  0.454101  0.784199  0.503143  1
  O  O133  1  0.665844  0.898036  0.350234  1
  O  O134  1  0.333571  0.564223  0.349988  1
  O  O135  1  0.000000  0.231461  0.350148  1
  O  O136  1  0.665966  0.435976  0.411184  1
  O  O137  1  0.333697  0.102162  0.411143  1
  O  O138  1  0.000000  0.768739  0.411003  1
  O  O139  1  0.665920  0.666383  0.349986  1
  O  O140  1  0.333626  0.333816  0.350215  1
  O  O141  1  -0.000000  0.000000  0.350156  1
  O  O142  1  0.667446  0.667204  0.457208  1
  O  O143  1  0.332083  0.332989  0.456945  1
  O  O144  1  0.000000  0.000000  0.457128  1
  O  O145  1  0.666943  0.897788  0.396135  1
  O  O146  1  0.333066  0.564940  0.396188  1
  O  O147  1  0.998634  0.231068  0.395999  1
  O  O148  1  0.666475  0.435253  0.456954  1
  O  O149  1  0.332604  0.102405  0.457191  1
  O  O150  1  0.000000  0.769125  0.457087  1
  O  O151  1  0.165891  0.871878  0.543904  1
  O  O152  1  0.833561  0.538341  0.543807  1
  O  O153  1  0.500082  0.205526  0.543938  1
  O  O154  1  0.165977  0.461857  0.620448  1
  O  O155  1  0.833650  0.128321  0.620425  1
  O  O156  1  0.499454  0.794673  0.620271  1
  O  O157  1  0.165915  0.666491  0.543772  1
  O  O158  1  0.833631  0.333704  0.543935  1
  O  O159  1  0.499776  0.000000  0.543917  1
  O  O160  1  0.167413  0.666970  0.661235  1
  O  O161  1  0.832117  0.333227  0.661113  1
  O  O162  1  0.499769  0.000000  0.661235  1
  O  O163  1  0.166911  0.871925  0.584728  1
  O  O164  1  0.833051  0.538862  0.584765  1
  O  O165  1  0.498700  0.204886  0.584570  1
  O  O166  1  0.166490  0.461331  0.661095  1
  O  O167  1  0.832635  0.128268  0.661219  1
  O  O168  1  0.500840  0.795307  0.661283  1
  O  O169  1  0.000000  0.000000  0.586413  1
  O  O170  1  0.666547  0.666530  0.586245  1
  O  O171  1  0.332989  0.333669  0.586386  1
  O  O172  1  0.000000  0.419037  0.586422  1
  O  O173  1  0.666626  0.085283  0.586360  1
  O  O174  1  0.332771  0.751736  0.586230  1
  O  O175  1  0.000000  0.581163  0.535336  1
  O  O176  1  0.666770  0.248463  0.535521  1
  O  O177  1  0.332918  0.914917  0.535524  1
  O  O178  1  -0.000000  0.581818  0.618807  1
  O  O179  1  0.665741  0.247899  0.618629  1
  O  O180  1  0.333366  0.914769  0.618751  1
  O  O181  1  0.000000  0.000000  0.618791  1
  O  O182  1  0.666661  0.667042  0.618778  1
  O  O183  1  0.332881  0.333151  0.618612  1
  O  O184  1  0.000000  0.418375  0.669501  1
  O  O185  1  0.666174  0.085423  0.669673  1
  O  O186  1  0.333795  0.752293  0.669672  1
  O  O187  1  0.879063  0.901217  0.573087  1
  O  O188  1  0.545840  0.567914  0.573024  1
  O  O189  1  0.212182  0.234534  0.572984  1
  O  O190  1  0.879260  0.549861  0.632119  1
  O  O191  1  0.545442  0.215999  0.631988  1
  O  O192  1  0.212350  0.882705  0.631993  1
  O  O193  1  0.878784  0.549191  0.701877  1
  O  O194  1  0.545929  0.216386  0.702061  1
  O  O195  1  0.212540  0.882983  0.702044  1
  O  O196  1  0.120479  0.098979  0.632098  1
  O  O197  1  0.787357  0.765662  0.632005  1
  O  O198  1  0.453699  0.432282  0.632016  1
  O  O199  1  0.120752  0.451003  0.573114  1
  O  O200  1  0.786998  0.117211  0.573008  1
  O  O201  1  0.453609  0.783807  0.572983  1
  O  O202  1  0.120282  0.450337  0.701885  1
  O  O203  1  0.787193  0.117493  0.702051  1
  O  O204  1  0.454101  0.784199  0.702070  1
  O  O205  1  0.665844  0.898036  0.549161  1
  O  O206  1  0.333571  0.564223  0.548915  1
  O  O207  1  -0.000000  0.231461  0.549075  1
  O  O208  1  0.665966  0.435976  0.610111  1
  O  O209  1  0.333697  0.102162  0.610071  1
  O  O210  1  -0.000000  0.768739  0.609931  1
  O  O211  1  0.665920  0.666383  0.548913  1
  O  O212  1  0.333626  0.333816  0.549142  1
  O  O213  1  0.000000  0.000000  0.549083  1
  O  O214  1  0.667446  0.667204  0.656135  1
  O  O215  1  0.332083  0.332989  0.655872  1
  O  O216  1  0.000000  0.000000  0.656055  1
  O  O217  1  0.666943  0.897788  0.595063  1
  O  O218  1  0.333066  0.564940  0.595115  1
  O  O219  1  0.998634  0.231068  0.594927  1
  O  O220  1  0.666475  0.435253  0.655881  1
  O  O221  1  0.332604  0.102405  0.656118  1
  O  O222  1  0.000000  0.769125  0.656014  1
  Si  Si223  1  0.919751  0.916009  0.164861  1
  Si  Si224  1  0.586927  0.582425  0.164708  1
  Si  Si225  1  0.253503  0.249547  0.164834  1
  Si  Si226  1  0.919809  0.468127  0.215061  1
  Si  Si227  1  0.586964  0.134395  0.215007  1
  Si  Si228  1  0.253159  0.800919  0.214889  1
  Si  Si229  1  0.919662  0.616132  0.134666  1
  Si  Si230  1  0.587072  0.283459  0.134858  1
  Si  Si231  1  0.253364  0.949823  0.134825  1
  Si  Si232  1  0.920686  0.616792  0.244644  1
  Si  Si233  1  0.585980  0.282830  0.244453  1
  Si  Si234  1  0.253368  0.949790  0.244592  1
  Si  Si235  1  0.920258  0.915981  0.194421  1
  Si  Si236  1  0.586771  0.582943  0.194431  1
  Si  Si237  1  0.252632  0.249087  0.194265  1
  Si  Si238  1  0.919899  0.467495  0.274457  1
  Si  Si239  1  0.586437  0.134581  0.274647  1
  Si  Si240  1  0.254091  0.801386  0.274617  1
  Si  Si241  1  0.079285  0.084212  0.244620  1
  Si  Si242  1  0.746908  0.751107  0.244600  1
  Si  Si243  1  0.412769  0.417250  0.244454  1
  Si  Si244  1  0.079640  0.532699  0.194449  1
  Si  Si245  1  0.745448  0.198808  0.194276  1
  Si  Si246  1  0.413106  0.865613  0.194389  1
  Si  Si247  1  0.078849  0.383403  0.274467  1
  Si  Si248  1  0.746173  0.050405  0.274614  1
  Si  Si249  1  0.413555  0.717365  0.274651  1
  Si  Si250  1  0.079880  0.384065  0.164883  1
  Si  Si251  1  0.746182  0.050374  0.164829  1
  Si  Si252  1  0.412470  0.716738  0.164681  1
  Si  Si253  1  0.079790  0.084190  0.215044  1
  Si  Si254  1  0.746035  0.750652  0.214896  1
  Si  Si255  1  0.412611  0.417774  0.215041  1
  Si  Si256  1  0.079730  0.532071  0.134678  1
  Si  Si257  1  0.746380  0.199279  0.134829  1
  Si  Si258  1  0.412578  0.865803  0.134861  1
  Si  Si259  1  0.919751  0.916009  0.363788  1
  Si  Si260  1  0.586927  0.582425  0.363635  1
  Si  Si261  1  0.253503  0.249547  0.363762  1
  Si  Si262  1  0.919809  0.468127  0.413988  1
  Si  Si263  1  0.586964  0.134395  0.413934  1
  Si  Si264  1  0.253159  0.800919  0.413816  1
  Si  Si265  1  0.919662  0.616132  0.333594  1
  Si  Si266  1  0.587072  0.283459  0.333786  1
  Si  Si267  1  0.253364  0.949823  0.333752  1
  Si  Si268  1  0.920686  0.616792  0.443571  1
  Si  Si269  1  0.585980  0.282830  0.443380  1
  Si  Si270  1  0.253368  0.949790  0.443519  1
  Si  Si271  1  0.920258  0.915981  0.393348  1
  Si  Si272  1  0.586771  0.582943  0.393358  1
  Si  Si273  1  0.252632  0.249087  0.393193  1
  Si  Si274  1  0.919899  0.467495  0.473384  1
  Si  Si275  1  0.586437  0.134581  0.473574  1
  Si  Si276  1  0.254091  0.801386  0.473544  1
  Si  Si277  1  0.079285  0.084212  0.443547  1
  Si  Si278  1  0.746908  0.751107  0.443527  1
  Si  Si279  1  0.412769  0.417250  0.443381  1
  Si  Si280  1  0.079640  0.532699  0.393377  1
  Si  Si281  1  0.745448  0.198808  0.393204  1
  Si  Si282  1  0.413106  0.865613  0.393316  1
  Si  Si283  1  0.078849  0.383403  0.473394  1
  Si  Si284  1  0.746173  0.050405  0.473542  1
  Si  Si285  1  0.413555  0.717365  0.473578  1
  Si  Si286  1  0.079880  0.384065  0.363810  1
  Si  Si287  1  0.746182  0.050374  0.363756  1
  Si  Si288  1  0.412470  0.716738  0.363609  1
  Si  Si289  1  0.079790  0.084190  0.413972  1
  Si  Si290  1  0.746035  0.750652  0.413823  1
  Si  Si291  1  0.412611  0.417774  0.413968  1
  Si  Si292  1  0.079730  0.532071  0.333605  1
  Si  Si293  1  0.746380  0.199279  0.333756  1
  Si  Si294  1  0.412578  0.865803  0.333789  1
  Si  Si295  1  0.919751  0.916009  0.562715  1
  Si  Si296  1  0.586927  0.582425  0.562562  1
  Si  Si297  1  0.253503  0.249547  0.562689  1
  Si  Si298  1  0.919809  0.468127  0.612916  1
  Si  Si299  1  0.586964  0.134395  0.612861  1
  Si  Si300  1  0.253159  0.800919  0.612744  1
  Si  Si301  1  0.919662  0.616132  0.532521  1
  Si  Si302  1  0.587072  0.283459  0.532713  1
  Si  Si303  1  0.253364  0.949823  0.532680  1
  Si  Si304  1  0.920686  0.616792  0.642499  1
  Si  Si305  1  0.585980  0.282830  0.642308  1
  Si  Si306  1  0.253368  0.949790  0.642446  1
  Si  Si307  1  0.920258  0.915981  0.592276  1
  Si  Si308  1  0.586771  0.582943  0.592286  1
  Si  Si309  1  0.252632  0.249087  0.592120  1
  Si  Si310  1  0.919899  0.467495  0.672311  1
  Si  Si311  1  0.586437  0.134581  0.672501  1
  Si  Si312  1  0.254091  0.801386  0.672471  1
  Si  Si313  1  0.079285  0.084212  0.642474  1
  Si  Si314  1  0.746908  0.751107  0.642455  1
  Si  Si315  1  0.412769  0.417250  0.642308  1
  Si  Si316  1  0.079640  0.532699  0.592304  1
  Si  Si317  1  0.745448  0.198808  0.592131  1
  Si  Si318  1  0.413106  0.865613  0.592244  1
  Si  Si319  1  0.078849  0.383403  0.672321  1
  Si  Si320  1  0.746173  0.050405  0.672469  1
  Si  Si321  1  0.413555  0.717365  0.672506  1
  Si  Si322  1  0.079880  0.384065  0.562738  1
  Si  Si323  1  0.746182  0.050374  0.562683  1
  Si  Si324  1  0.412470  0.716738  0.562536  1
  Si  Si325  1  0.079790  0.084190  0.612899  1
  Si  Si326  1  0.746035  0.750652  0.612751  1
  Si  Si327  1  0.412611  0.417774  0.612896  1
  Si  Si328  1  0.079730  0.532071  0.532532  1
  Si  Si329  1  0.746380  0.199279  0.532683  1
  Si  Si330  1  0.412578  0.865803  0.532716  1
  H  H331  1  0.878784  0.549191  0.096417  1
  H  H332  1  0.545929  0.216386  0.096602  1
  H  H333  1  0.212540  0.882983  0.096584  1
  H  H334  1  0.120282  0.450337  0.096426  1
  H  H335  1  0.787193  0.117493  0.096591  1
  H  H336  1  0.454101  0.784199  0.096611  1
  H  H337  1  0.878784  0.549191  0.710555  1
  H  H338  1  0.545929  0.216386  0.710739  1
  H  H339  1  0.212540  0.882983  0.710722  1
  H  H340  1  0.120282  0.450337  0.710563  1
  H  H341  1  0.787193  0.117493  0.710729  1
  H  H342  1  0.454101  0.784199  0.710748  1
