# generated using pymatgen
data_Si36H2O73
_symmetry_space_group_name_H-M   'P 1'
_cell_length_a   8.93798613
_cell_length_b   15.03304869
_cell_length_c   79.43008495
_cell_angle_alpha   90.00000000
_cell_angle_beta   90.00000000
_cell_angle_gamma   90.00000000
_symmetry_Int_Tables_number   1
_chemical_formula_structural   Si36H2O73
_chemical_formula_sum   'Si144 H8 O292'
_cell_volume   10672.6377159
_cell_formula_units_Z   4
loop_
 _symmetry_equiv_pos_site_id
 _symmetry_equiv_pos_as_xyz
  1  'x, y, z'
loop_
 _atom_site_type_symbol
 _atom_site_label
 _atom_site_symmetry_multiplicity
 _atom_site_fract_x
 _atom_site_fract_y
 _atom_site_fract_z
 _atom_site_occupancy
  O  O1  1  0.250117  0.878116  0.134744  1
  O  O2  1  0.750112  0.378115  0.134741  1
  O  O3  1  0.750118  0.878116  0.134742  1
  O  O4  1  0.250111  0.378115  0.134743  1
  O  O5  1  0.250120  0.621710  0.255666  1
  O  O6  1  0.750111  0.121711  0.255666  1
  O  O7  1  0.750117  0.621710  0.255665  1
  O  O8  1  0.250113  0.121711  0.255667  1
  O  O9  1  0.000000  0.874737  0.150637  1
  O  O10  1  0.500116  0.374737  0.150636  1
  O  O11  1  -0.000000  0.625089  0.271560  1
  O  O12  1  0.500116  0.125089  0.271561  1
  O  O13  1  -0.000000  0.125089  0.239772  1
  O  O14  1  0.500114  0.625089  0.239771  1
  O  O15  1  0.000000  0.374737  0.118848  1
  O  O16  1  0.500113  0.874737  0.118848  1
  O  O17  1  0.199241  0.755709  0.155927  1
  O  O18  1  0.699242  0.255706  0.155923  1
  O  O19  1  0.800985  0.755706  0.155924  1
  O  O20  1  0.300989  0.255708  0.155926  1
  O  O21  1  0.199241  0.744117  0.276850  1
  O  O22  1  0.699244  0.244120  0.276848  1
  O  O23  1  0.800987  0.744120  0.276847  1
  O  O24  1  0.300989  0.244118  0.276851  1
  O  O25  1  0.800989  0.244118  0.234482  1
  O  O26  1  0.300986  0.744120  0.234484  1
  O  O27  1  0.199244  0.244121  0.234485  1
  O  O28  1  0.699243  0.744118  0.234482  1
  O  O29  1  0.800987  0.255708  0.113558  1
  O  O30  1  0.300986  0.755705  0.113561  1
  O  O31  1  0.199244  0.255706  0.113560  1
  O  O32  1  0.699240  0.755709  0.113559  1
  O  O33  1  0.242583  0.916343  0.166520  1
  O  O34  1  0.742597  0.416337  0.166518  1
  O  O35  1  0.757630  0.916338  0.166519  1
  O  O36  1  0.257647  0.416342  0.166519  1
  O  O37  1  0.242582  0.583484  0.287443  1
  O  O38  1  0.742600  0.083488  0.287442  1
  O  O39  1  0.757633  0.583489  0.287442  1
  O  O40  1  0.257646  0.083483  0.287443  1
  O  O41  1  0.757647  0.083484  0.223890  1
  O  O42  1  0.257631  0.583489  0.223890  1
  O  O43  1  0.242598  0.083489  0.223891  1
  O  O44  1  0.742584  0.583483  0.223889  1
  O  O45  1  0.757645  0.416343  0.102965  1
  O  O46  1  0.257631  0.916336  0.102967  1
  O  O47  1  0.242599  0.416338  0.102966  1
  O  O48  1  0.742581  0.916342  0.102966  1
  O  O49  1  0.205148  0.083511  0.103178  1
  O  O50  1  0.705144  0.583516  0.103174  1
  O  O51  1  0.795084  0.083515  0.103174  1
  O  O52  1  0.295080  0.583512  0.103178  1
  O  O53  1  0.205150  0.416314  0.224102  1
  O  O54  1  0.705144  0.916311  0.224097  1
  O  O55  1  0.795084  0.416310  0.224098  1
  O  O56  1  0.295082  0.916315  0.224102  1
  O  O57  1  0.795081  0.916314  0.287230  1
  O  O58  1  0.295085  0.416312  0.287235  1
  O  O59  1  0.205146  0.916310  0.287234  1
  O  O60  1  0.705149  0.416316  0.287231  1
  O  O61  1  0.795081  0.583510  0.166307  1
  O  O62  1  0.295082  0.083516  0.166311  1
  O  O63  1  0.205143  0.583515  0.166311  1
  O  O64  1  0.705150  0.083511  0.166306  1
  O  O65  1  0.210216  -0.000000  0.074282  1
  O  O66  1  0.710216  0.499909  0.074279  1
  O  O67  1  0.790013  0.000000  0.074279  1
  O  O68  1  0.290014  0.499924  0.074282  1
  O  O69  1  0.210217  0.499901  0.195206  1
  O  O70  1  0.710215  0.000000  0.195203  1
  O  O71  1  0.790013  0.499916  0.195203  1
  O  O72  1  0.290014  0.000000  0.195206  1
  O  O73  1  0.000000  0.975323  0.095074  1
  O  O74  1  0.500118  0.475327  0.095073  1
  O  O75  1  0.000000  0.524499  0.215997  1
  O  O76  1  0.500120  0.024504  0.215997  1
  O  O77  1  -0.000000  0.024499  0.295335  1
  O  O78  1  0.500112  0.524504  0.295335  1
  O  O79  1  0.000000  0.475322  0.174411  1
  O  O80  1  0.500110  0.975327  0.174411  1
  O  O81  1  0.250102  0.130837  0.134744  1
  O  O82  1  0.750126  0.630837  0.134741  1
  O  O83  1  0.750103  0.130837  0.134740  1
  O  O84  1  0.250125  0.630837  0.134745  1
  O  O85  1  0.250104  0.368989  0.255669  1
  O  O86  1  0.750126  0.868989  0.255663  1
  O  O87  1  0.750104  0.368989  0.255664  1
  O  O88  1  0.250126  0.868989  0.255668  1
  O  O89  1  0.500110  0.146259  0.148352  1
  O  O90  1  -0.000000  0.646260  0.148352  1
  O  O91  1  0.500112  0.353567  0.269276  1
  O  O92  1  0.000000  0.853567  0.269275  1
  O  O93  1  0.500119  0.853566  0.242056  1
  O  O94  1  -0.000000  0.353567  0.242057  1
  O  O95  1  0.500118  0.646259  0.121133  1
  O  O96  1  -0.000000  0.146260  0.121132  1
  O  O97  1  0.250117  0.878116  0.376591  1
  O  O98  1  0.750112  0.378115  0.376589  1
  O  O99  1  0.750118  0.878116  0.376590  1
  O  O100  1  0.250111  0.378115  0.376590  1
  O  O101  1  0.250120  0.621710  0.497514  1
  O  O102  1  0.750111  0.121711  0.497513  1
  O  O103  1  0.750117  0.621710  0.497513  1
  O  O104  1  0.250113  0.121711  0.497515  1
  O  O105  1  0.000000  0.874737  0.392485  1
  O  O106  1  0.500116  0.374737  0.392484  1
  O  O107  1  0.000000  0.625089  0.513407  1
  O  O108  1  0.500116  0.125089  0.513409  1
  O  O109  1  -0.000000  0.125089  0.481620  1
  O  O110  1  0.500114  0.625089  0.481618  1
  O  O111  1  -0.000000  0.374737  0.360695  1
  O  O112  1  0.500113  0.874737  0.360696  1
  O  O113  1  0.199241  0.755709  0.397775  1
  O  O114  1  0.699242  0.255706  0.397771  1
  O  O115  1  0.800985  0.755706  0.397772  1
  O  O116  1  0.300989  0.255708  0.397774  1
  O  O117  1  0.199241  0.744117  0.518697  1
  O  O118  1  0.699244  0.244120  0.518695  1
  O  O119  1  0.800987  0.744120  0.518695  1
  O  O120  1  0.300989  0.244118  0.518698  1
  O  O121  1  0.800989  0.244118  0.476330  1
  O  O122  1  0.300986  0.744120  0.476332  1
  O  O123  1  0.199244  0.244121  0.476333  1
  O  O124  1  0.699243  0.744118  0.476329  1
  O  O125  1  0.800987  0.255708  0.355405  1
  O  O126  1  0.300986  0.755705  0.355409  1
  O  O127  1  0.199244  0.255706  0.355408  1
  O  O128  1  0.699240  0.755709  0.355406  1
  O  O129  1  0.242583  0.916343  0.408367  1
  O  O130  1  0.742597  0.416337  0.408365  1
  O  O131  1  0.757630  0.916338  0.408366  1
  O  O132  1  0.257647  0.416342  0.408366  1
  O  O133  1  0.242582  0.583484  0.529290  1
  O  O134  1  0.742600  0.083488  0.529290  1
  O  O135  1  0.757633  0.583489  0.529289  1
  O  O136  1  0.257646  0.083483  0.529291  1
  O  O137  1  0.757647  0.083484  0.465737  1
  O  O138  1  0.257631  0.583489  0.465737  1
  O  O139  1  0.242598  0.083489  0.465738  1
  O  O140  1  0.742584  0.583483  0.465736  1
  O  O141  1  0.757645  0.416343  0.344813  1
  O  O142  1  0.257631  0.916336  0.344814  1
  O  O143  1  0.242599  0.416338  0.344814  1
  O  O144  1  0.742581  0.916342  0.344813  1
  O  O145  1  0.205148  0.083511  0.345025  1
  O  O146  1  0.705144  0.583516  0.345022  1
  O  O147  1  0.795084  0.083515  0.345021  1
  O  O148  1  0.295080  0.583512  0.345026  1
  O  O149  1  0.205150  0.416314  0.465950  1
  O  O150  1  0.705144  0.916311  0.465945  1
  O  O151  1  0.795084  0.416310  0.465945  1
  O  O152  1  0.295082  0.916315  0.465949  1
  O  O153  1  0.795081  0.916314  0.529078  1
  O  O154  1  0.295085  0.416312  0.529082  1
  O  O155  1  0.205146  0.916310  0.529082  1
  O  O156  1  0.705149  0.416316  0.529078  1
  O  O157  1  0.795081  0.583510  0.408155  1
  O  O158  1  0.295082  0.083516  0.408158  1
  O  O159  1  0.205143  0.583515  0.408159  1
  O  O160  1  0.705150  0.083511  0.408154  1
  O  O161  1  0.210216  -0.000000  0.316129  1
  O  O162  1  0.710216  0.499909  0.316127  1
  O  O163  1  0.790013  -0.000000  0.316127  1
  O  O164  1  0.290014  0.499924  0.316129  1
  O  O165  1  0.210217  0.499901  0.437053  1
  O  O166  1  0.710215  -0.000000  0.437050  1
  O  O167  1  0.790013  0.499916  0.437050  1
  O  O168  1  0.290014  -0.000000  0.437053  1
  O  O169  1  0.000000  0.975323  0.336921  1
  O  O170  1  0.500118  0.475327  0.336921  1
  O  O171  1  0.000000  0.524499  0.457845  1
  O  O172  1  0.500120  0.024504  0.457845  1
  O  O173  1  -0.000000  0.024499  0.537183  1
  O  O174  1  0.500112  0.524504  0.537182  1
  O  O175  1  0.000000  0.475322  0.416259  1
  O  O176  1  0.500110  0.975327  0.416259  1
  O  O177  1  0.250102  0.130837  0.376592  1
  O  O178  1  0.750126  0.630837  0.376588  1
  O  O179  1  0.750103  0.130837  0.376587  1
  O  O180  1  0.250125  0.630837  0.376592  1
  O  O181  1  0.250104  0.368989  0.497516  1
  O  O182  1  0.750126  0.868989  0.497511  1
  O  O183  1  0.750104  0.368989  0.497512  1
  O  O184  1  0.250126  0.868989  0.497515  1
  O  O185  1  0.500110  0.146259  0.390199  1
  O  O186  1  0.000000  0.646260  0.390200  1
  O  O187  1  0.500112  0.353567  0.511123  1
  O  O188  1  0.000000  0.853567  0.511123  1
  O  O189  1  0.500119  0.853566  0.483904  1
  O  O190  1  0.000000  0.353567  0.483904  1
  O  O191  1  0.500118  0.646259  0.362981  1
  O  O192  1  -0.000000  0.146260  0.362980  1
  O  O193  1  0.250117  0.878116  0.618438  1
  O  O194  1  0.750112  0.378115  0.618436  1
  O  O195  1  0.750118  0.878116  0.618437  1
  O  O196  1  0.250111  0.378115  0.618437  1
  O  O197  1  0.250120  0.621710  0.739361  1
  O  O198  1  0.750111  0.121711  0.739361  1
  O  O199  1  0.750117  0.621710  0.739360  1
  O  O200  1  0.250113  0.121711  0.739362  1
  O  O201  1  0.000000  0.874737  0.634332  1
  O  O202  1  0.500116  0.374737  0.634331  1
  O  O203  1  -0.000000  0.625089  0.755255  1
  O  O204  1  0.500116  0.125089  0.755256  1
  O  O205  1  -0.000000  0.125089  0.723467  1
  O  O206  1  0.500114  0.625089  0.723466  1
  O  O207  1  -0.000000  0.374737  0.602542  1
  O  O208  1  0.500113  0.874737  0.602543  1
  O  O209  1  0.199241  0.755709  0.639622  1
  O  O210  1  0.699242  0.255706  0.639618  1
  O  O211  1  0.800985  0.755706  0.639619  1
  O  O212  1  0.300989  0.255708  0.639621  1
  O  O213  1  0.199241  0.744117  0.760545  1
  O  O214  1  0.699244  0.244120  0.760543  1
  O  O215  1  0.800987  0.744120  0.760542  1
  O  O216  1  0.300989  0.244118  0.760546  1
  O  O217  1  0.800989  0.244118  0.718177  1
  O  O218  1  0.300986  0.744120  0.718179  1
  O  O219  1  0.199244  0.244121  0.718180  1
  O  O220  1  0.699243  0.744118  0.718176  1
  O  O221  1  0.800987  0.255708  0.597253  1
  O  O222  1  0.300986  0.755705  0.597256  1
  O  O223  1  0.199244  0.255706  0.597255  1
  O  O224  1  0.699240  0.755709  0.597254  1
  O  O225  1  0.242583  0.916343  0.650215  1
  O  O226  1  0.742597  0.416337  0.650213  1
  O  O227  1  0.757630  0.916338  0.650214  1
  O  O228  1  0.257647  0.416342  0.650214  1
  O  O229  1  0.242582  0.583484  0.771137  1
  O  O230  1  0.742600  0.083488  0.771137  1
  O  O231  1  0.757633  0.583489  0.771137  1
  O  O232  1  0.257646  0.083483  0.771138  1
  O  O233  1  0.757647  0.083484  0.707584  1
  O  O234  1  0.257631  0.583489  0.707585  1
  O  O235  1  0.242598  0.083489  0.707585  1
  O  O236  1  0.742584  0.583483  0.707584  1
  O  O237  1  0.757645  0.416343  0.586660  1
  O  O238  1  0.257631  0.916336  0.586662  1
  O  O239  1  0.242599  0.416338  0.586661  1
  O  O240  1  0.742581  0.916342  0.586661  1
  O  O241  1  0.205148  0.083511  0.586873  1
  O  O242  1  0.705144  0.583516  0.586869  1
  O  O243  1  0.795084  0.083515  0.586868  1
  O  O244  1  0.295080  0.583512  0.586873  1
  O  O245  1  0.205150  0.416314  0.707797  1
  O  O246  1  0.705144  0.916311  0.707792  1
  O  O247  1  0.795084  0.416310  0.707793  1
  O  O248  1  0.295082  0.916315  0.707796  1
  O  O249  1  0.795081  0.916314  0.770925  1
  O  O250  1  0.295085  0.416312  0.770930  1
  O  O251  1  0.205146  0.916310  0.770929  1
  O  O252  1  0.705149  0.416316  0.770926  1
  O  O253  1  0.795081  0.583510  0.650002  1
  O  O254  1  0.295082  0.083516  0.650006  1
  O  O255  1  0.205143  0.583515  0.650006  1
  O  O256  1  0.705150  0.083511  0.650001  1
  O  O257  1  0.210216  0.000000  0.557977  1
  O  O258  1  0.710216  0.499909  0.557974  1
  O  O259  1  0.790013  -0.000000  0.557974  1
  O  O260  1  0.290014  0.499924  0.557977  1
  O  O261  1  0.210217  0.499901  0.678900  1
  O  O262  1  0.710215  0.000000  0.678898  1
  O  O263  1  0.790013  0.499916  0.678898  1
  O  O264  1  0.290014  -0.000000  0.678901  1
  O  O265  1  -0.000000  0.975323  0.578768  1
  O  O266  1  0.500118  0.475327  0.578768  1
  O  O267  1  0.000000  0.524499  0.699692  1
  O  O268  1  0.500120  0.024504  0.699692  1
  O  O269  1  -0.000000  0.024499  0.779030  1
  O  O270  1  0.500112  0.524504  0.779030  1
  O  O271  1  -0.000000  0.475322  0.658106  1
  O  O272  1  0.500110  0.975327  0.658106  1
  O  O273  1  0.250102  0.130837  0.618439  1
  O  O274  1  0.750126  0.630837  0.618436  1
  O  O275  1  0.750103  0.130837  0.618435  1
  O  O276  1  0.250125  0.630837  0.618440  1
  O  O277  1  0.250104  0.368989  0.739364  1
  O  O278  1  0.750126  0.868989  0.739358  1
  O  O279  1  0.750104  0.368989  0.739359  1
  O  O280  1  0.250126  0.868989  0.739363  1
  O  O281  1  0.500110  0.146259  0.632046  1
  O  O282  1  -0.000000  0.646260  0.632047  1
  O  O283  1  0.500112  0.353567  0.752971  1
  O  O284  1  -0.000000  0.853567  0.752970  1
  O  O285  1  0.500119  0.853566  0.725751  1
  O  O286  1  -0.000000  0.353567  0.725752  1
  O  O287  1  0.500118  0.646259  0.604828  1
  O  O288  1  -0.000000  0.146260  0.604827  1
  O  O289  1  0.210216  -0.000000  0.799824  1
  O  O290  1  0.710216  0.499909  0.799821  1
  O  O291  1  0.790013  0.000000  0.799821  1
  O  O292  1  0.290014  0.499924  0.799824  1
  Si  Si293  1  0.173186  0.857923  0.152177  1
  Si  Si294  1  0.673189  0.357923  0.152176  1
  Si  Si295  1  0.827040  0.857922  0.152176  1
  Si  Si296  1  0.327042  0.357924  0.152176  1
  Si  Si297  1  0.173187  0.641902  0.273100  1
  Si  Si298  1  0.673189  0.141904  0.273100  1
  Si  Si299  1  0.827041  0.641903  0.273099  1
  Si  Si300  1  0.327043  0.141902  0.273101  1
  Si  Si301  1  0.827042  0.141902  0.238233  1
  Si  Si302  1  0.327041  0.641904  0.238232  1
  Si  Si303  1  0.173190  0.141904  0.238233  1
  Si  Si304  1  0.673187  0.641902  0.238232  1
  Si  Si305  1  0.827042  0.357924  0.117308  1
  Si  Si306  1  0.327041  0.857922  0.117310  1
  Si  Si307  1  0.173189  0.357923  0.117309  1
  Si  Si308  1  0.673186  0.857924  0.117309  1
  Si  Si309  1  0.172929  0.993120  0.093625  1
  Si  Si310  1  0.672935  0.493122  0.093622  1
  Si  Si311  1  0.827292  0.993117  0.093622  1
  Si  Si312  1  0.327300  0.493124  0.093624  1
  Si  Si313  1  0.172930  0.506702  0.214548  1
  Si  Si314  1  0.672936  0.006708  0.214546  1
  Si  Si315  1  0.827294  0.506705  0.214546  1
  Si  Si316  1  0.327301  0.006705  0.214548  1
  Si  Si317  1  0.827302  0.006702  0.296784  1
  Si  Si318  1  0.327295  0.506709  0.296786  1
  Si  Si319  1  0.172935  0.006705  0.296786  1
  Si  Si320  1  0.672929  0.506706  0.296784  1
  Si  Si321  1  0.827301  0.493121  0.175861  1
  Si  Si322  1  0.327294  0.993121  0.175863  1
  Si  Si323  1  0.172934  0.493118  0.175863  1
  Si  Si324  1  0.672928  0.993123  0.175861  1
  Si  Si325  1  0.328374  0.153814  0.151985  1
  Si  Si326  1  0.828376  0.653815  0.151982  1
  Si  Si327  1  0.671852  0.153813  0.151982  1
  Si  Si328  1  0.171854  0.653816  0.151985  1
  Si  Si329  1  0.328375  0.346011  0.272909  1
  Si  Si330  1  0.828377  0.846012  0.272905  1
  Si  Si331  1  0.671854  0.346012  0.272906  1
  Si  Si332  1  0.171856  0.846011  0.272908  1
  Si  Si333  1  0.671856  0.846011  0.238423  1
  Si  Si334  1  0.171853  0.346012  0.238427  1
  Si  Si335  1  0.328377  0.846012  0.238426  1
  Si  Si336  1  0.828376  0.346011  0.238424  1
  Si  Si337  1  0.671854  0.653816  0.117500  1
  Si  Si338  1  0.171852  0.153814  0.117503  1
  Si  Si339  1  0.328376  0.653814  0.117504  1
  Si  Si340  1  0.828374  0.153815  0.117499  1
  Si  Si341  1  0.173186  0.857923  0.394024  1
  Si  Si342  1  0.673189  0.357923  0.394023  1
  Si  Si343  1  0.827040  0.857922  0.394024  1
  Si  Si344  1  0.327042  0.357924  0.394024  1
  Si  Si345  1  0.173187  0.641902  0.514947  1
  Si  Si346  1  0.673189  0.141904  0.514947  1
  Si  Si347  1  0.827041  0.641903  0.514947  1
  Si  Si348  1  0.327043  0.141902  0.514948  1
  Si  Si349  1  0.827042  0.141902  0.480080  1
  Si  Si350  1  0.327041  0.641904  0.480080  1
  Si  Si351  1  0.173190  0.141904  0.480081  1
  Si  Si352  1  0.673187  0.641902  0.480079  1
  Si  Si353  1  0.827042  0.357924  0.359155  1
  Si  Si354  1  0.327041  0.857922  0.359157  1
  Si  Si355  1  0.173189  0.357923  0.359156  1
  Si  Si356  1  0.673186  0.857924  0.359156  1
  Si  Si357  1  0.172929  0.993120  0.335472  1
  Si  Si358  1  0.672935  0.493122  0.335469  1
  Si  Si359  1  0.827292  0.993117  0.335470  1
  Si  Si360  1  0.327300  0.493124  0.335472  1
  Si  Si361  1  0.172930  0.506702  0.456395  1
  Si  Si362  1  0.672936  0.006708  0.456393  1
  Si  Si363  1  0.827294  0.506705  0.456393  1
  Si  Si364  1  0.327301  0.006705  0.456396  1
  Si  Si365  1  0.827302  0.006702  0.538632  1
  Si  Si366  1  0.327295  0.506709  0.538634  1
  Si  Si367  1  0.172935  0.006705  0.538634  1
  Si  Si368  1  0.672929  0.506706  0.538631  1
  Si  Si369  1  0.827301  0.493121  0.417708  1
  Si  Si370  1  0.327294  0.993121  0.417710  1
  Si  Si371  1  0.172934  0.493118  0.417710  1
  Si  Si372  1  0.672928  0.993123  0.417708  1
  Si  Si373  1  0.328374  0.153814  0.393832  1
  Si  Si374  1  0.828376  0.653815  0.393830  1
  Si  Si375  1  0.671852  0.153813  0.393829  1
  Si  Si376  1  0.171854  0.653816  0.393833  1
  Si  Si377  1  0.328375  0.346011  0.514757  1
  Si  Si378  1  0.828377  0.846012  0.514752  1
  Si  Si379  1  0.671854  0.346012  0.514753  1
  Si  Si380  1  0.171856  0.846011  0.514756  1
  Si  Si381  1  0.671856  0.846011  0.480270  1
  Si  Si382  1  0.171853  0.346012  0.480275  1
  Si  Si383  1  0.328377  0.846012  0.480274  1
  Si  Si384  1  0.828376  0.346011  0.480271  1
  Si  Si385  1  0.671854  0.653816  0.359348  1
  Si  Si386  1  0.171852  0.153814  0.359350  1
  Si  Si387  1  0.328376  0.653814  0.359351  1
  Si  Si388  1  0.828374  0.153815  0.359347  1
  Si  Si389  1  0.173186  0.857923  0.635872  1
  Si  Si390  1  0.673189  0.357923  0.635870  1
  Si  Si391  1  0.827040  0.857922  0.635871  1
  Si  Si392  1  0.327042  0.357924  0.635871  1
  Si  Si393  1  0.173187  0.641902  0.756794  1
  Si  Si394  1  0.673189  0.141904  0.756795  1
  Si  Si395  1  0.827041  0.641903  0.756794  1
  Si  Si396  1  0.327043  0.141902  0.756796  1
  Si  Si397  1  0.827042  0.141902  0.721927  1
  Si  Si398  1  0.327041  0.641904  0.721927  1
  Si  Si399  1  0.173190  0.141904  0.721928  1
  Si  Si400  1  0.673187  0.641902  0.721926  1
  Si  Si401  1  0.827042  0.357924  0.601003  1
  Si  Si402  1  0.327041  0.857922  0.601005  1
  Si  Si403  1  0.173189  0.357923  0.601003  1
  Si  Si404  1  0.673186  0.857924  0.601004  1
  Si  Si405  1  0.172929  0.993120  0.577319  1
  Si  Si406  1  0.672935  0.493122  0.577317  1
  Si  Si407  1  0.827292  0.993117  0.577317  1
  Si  Si408  1  0.327300  0.493124  0.577319  1
  Si  Si409  1  0.172930  0.506702  0.698243  1
  Si  Si410  1  0.672936  0.006708  0.698241  1
  Si  Si411  1  0.827294  0.506705  0.698241  1
  Si  Si412  1  0.327301  0.006705  0.698243  1
  Si  Si413  1  0.827302  0.006702  0.780479  1
  Si  Si414  1  0.327295  0.506709  0.780481  1
  Si  Si415  1  0.172935  0.006705  0.780481  1
  Si  Si416  1  0.672929  0.506706  0.780479  1
  Si  Si417  1  0.827301  0.493121  0.659555  1
  Si  Si418  1  0.327294  0.993121  0.659558  1
  Si  Si419  1  0.172934  0.493118  0.659558  1
  Si  Si420  1  0.672928  0.993123  0.659555  1
  Si  Si421  1  0.328374  0.153814  0.635680  1
  Si  Si422  1  0.828376  0.653815  0.635677  1
  Si  Si423  1  0.671852  0.153813  0.635676  1
  Si  Si424  1  0.171854  0.653816  0.635680  1
  Si  Si425  1  0.328375  0.346011  0.756604  1
  Si  Si426  1  0.828377  0.846012  0.756600  1
  Si  Si427  1  0.671854  0.346012  0.756601  1
  Si  Si428  1  0.171856  0.846011  0.756603  1
  Si  Si429  1  0.671856  0.846011  0.722118  1
  Si  Si430  1  0.171853  0.346012  0.722122  1
  Si  Si431  1  0.328377  0.846012  0.722121  1
  Si  Si432  1  0.828376  0.346011  0.722119  1
  Si  Si433  1  0.671854  0.653816  0.601195  1
  Si  Si434  1  0.171852  0.153814  0.601197  1
  Si  Si435  1  0.328376  0.653814  0.601198  1
  Si  Si436  1  0.828374  0.153815  0.601194  1
  H  H437  1  0.210216  -0.000000  0.062951  1
  H  H438  1  0.710216  0.499909  0.062948  1
  H  H439  1  0.790013  -0.000000  0.062948  1
  H  H440  1  0.290014  0.499924  0.062951  1
  H  H441  1  0.210216  -0.000000  0.811155  1
  H  H442  1  0.710216  0.499909  0.811152  1
  H  H443  1  0.790013  0.000000  0.811152  1
  H  H444  1  0.290014  0.499924  0.811155  1
