# generated using pymatgen
data_Si12H2O25
_symmetry_space_group_name_H-M   'P 1'
_cell_length_a   13.66911044
_cell_length_b   8.35476497
_cell_length_c   52.22597323
_cell_angle_alpha   90.00000000
_cell_angle_beta   120.00000000
_cell_angle_gamma   90.00000000
_symmetry_Int_Tables_number   1
_chemical_formula_structural   Si12H2O25
_chemical_formula_sum   'Si48 H8 O100'
_cell_volume   5165.2537669
_cell_formula_units_Z   4
loop_
 _symmetry_equiv_pos_site_id
 _symmetry_equiv_pos_as_xyz
  1  'x, y, z'
loop_
 _atom_site_type_symbol
 _atom_site_label
 _atom_site_symmetry_multiplicity
 _atom_site_fract_x
 _atom_site_fract_y
 _atom_site_fract_z
 _atom_site_occupancy
  O  O1  1  0.630137  0.252393  0.127798  1
  O  O2  1  0.369065  0.248262  0.127781  1
  O  O3  1  0.369060  0.751896  0.127793  1
  O  O4  1  0.630132  0.747856  0.127810  1
  O  O5  1  0.336864  0.000000  0.248356  1
  O  O6  1  0.122721  -0.000000  0.301481  1
  O  O7  1  0.541704  0.000000  0.358418  1
  O  O8  1  0.662304  0.000000  0.269751  1
  O  O9  1  0.878720  0.000000  0.216352  1
  O  O10  1  0.458911  0.000000  0.160438  1
  O  O11  1  0.540854  0.500109  0.301977  1
  O  O12  1  0.337987  0.500103  0.358159  1
  O  O13  1  0.121416  0.500093  0.247996  1
  O  O14  1  0.458547  0.500091  0.216662  1
  O  O15  1  0.663370  0.500102  0.160364  1
  O  O16  1  0.878568  0.500110  0.269584  1
  O  O17  1  0.369501  0.248336  0.224532  1
  O  O18  1  -0.000000  0.249402  0.292813  1
  O  O19  1  0.630137  0.252393  0.389454  1
  O  O20  1  0.630615  0.251808  0.292835  1
  O  O21  1  -0.000000  0.250245  0.224472  1
  O  O22  1  0.369065  0.248262  0.389437  1
  O  O23  1  0.630605  0.748447  0.292846  1
  O  O24  1  0.369060  0.751896  0.389449  1
  O  O25  1  -0.000000  0.749949  0.224483  1
  O  O26  1  0.369492  0.751811  0.224544  1
  O  O27  1  0.630132  0.747856  0.389466  1
  O  O28  1  -0.000000  0.750808  0.292823  1
  O  O29  1  0.215169  0.250643  0.240463  1
  O  O30  1  0.214859  0.251263  0.333154  1
  O  O31  1  0.569520  0.247505  0.333163  1
  O  O32  1  0.784748  0.249706  0.276901  1
  O  O33  1  0.784424  0.248928  0.184114  1
  O  O34  1  0.430160  0.252667  0.184107  1
  O  O35  1  0.569514  0.752665  0.333175  1
  O  O36  1  0.214855  0.748952  0.333165  1
  O  O37  1  0.215158  0.749578  0.240473  1
  O  O38  1  0.430152  0.747569  0.184119  1
  O  O39  1  0.784420  0.751264  0.184125  1
  O  O40  1  0.784736  0.750476  0.276911  1
  O  O41  1  0.425769  0.250921  0.278119  1
  O  O42  1  0.148258  0.249881  0.278073  1
  O  O43  1  0.425442  0.250263  0.350612  1
  O  O44  1  0.574239  0.249562  0.239262  1
  O  O45  1  0.851358  0.250692  0.239243  1
  O  O46  1  0.573890  0.249346  0.166672  1
  O  O47  1  0.425762  0.749303  0.278131  1
  O  O48  1  0.425435  0.749977  0.350623  1
  O  O49  1  0.148250  0.750265  0.278084  1
  O  O50  1  0.574231  0.750617  0.239273  1
  O  O51  1  0.573883  0.750822  0.166684  1
  O  O52  1  0.851350  0.749567  0.239253  1
  O  O53  1  0.336864  0.000000  0.510012  1
  O  O54  1  0.122721  0.000000  0.563137  1
  O  O55  1  0.541704  0.000000  0.620074  1
  O  O56  1  0.662304  0.000000  0.531407  1
  O  O57  1  0.878720  0.000000  0.478008  1
  O  O58  1  0.458911  0.000000  0.422094  1
  O  O59  1  0.540854  0.500109  0.563633  1
  O  O60  1  0.337987  0.500103  0.619815  1
  O  O61  1  0.121416  0.500093  0.509652  1
  O  O62  1  0.458547  0.500091  0.478319  1
  O  O63  1  0.663370  0.500102  0.422020  1
  O  O64  1  0.878568  0.500110  0.531240  1
  O  O65  1  0.369501  0.248336  0.486188  1
  O  O66  1  -0.000000  0.249402  0.554469  1
  O  O67  1  0.630137  0.252393  0.651110  1
  O  O68  1  0.630615  0.251808  0.554491  1
  O  O69  1  0.000000  0.250245  0.486128  1
  O  O70  1  0.369065  0.248262  0.651093  1
  O  O71  1  0.630605  0.748447  0.554502  1
  O  O72  1  0.369060  0.751896  0.651105  1
  O  O73  1  0.000000  0.749949  0.486139  1
  O  O74  1  0.369492  0.751811  0.486200  1
  O  O75  1  0.630132  0.747856  0.651122  1
  O  O76  1  0.000000  0.750808  0.554479  1
  O  O77  1  0.215169  0.250643  0.502119  1
  O  O78  1  0.214859  0.251263  0.594810  1
  O  O79  1  0.569520  0.247505  0.594819  1
  O  O80  1  0.784748  0.249706  0.538557  1
  O  O81  1  0.784424  0.248928  0.445770  1
  O  O82  1  0.430160  0.252667  0.445763  1
  O  O83  1  0.569514  0.752665  0.594831  1
  O  O84  1  0.214855  0.748952  0.594821  1
  O  O85  1  0.215158  0.749578  0.502130  1
  O  O86  1  0.430152  0.747569  0.445775  1
  O  O87  1  0.784420  0.751264  0.445781  1
  O  O88  1  0.784736  0.750476  0.538567  1
  O  O89  1  0.425769  0.250921  0.539775  1
  O  O90  1  0.148258  0.249881  0.539729  1
  O  O91  1  0.425442  0.250263  0.612268  1
  O  O92  1  0.574239  0.249562  0.500918  1
  O  O93  1  0.851358  0.250692  0.500899  1
  O  O94  1  0.573890  0.249346  0.428328  1
  O  O95  1  0.425762  0.749303  0.539787  1
  O  O96  1  0.425435  0.749977  0.612279  1
  O  O97  1  0.148250  0.750265  0.539740  1
  O  O98  1  0.574231  0.750617  0.500929  1
  O  O99  1  0.573883  0.750822  0.428340  1
  O  O100  1  0.851350  0.749567  0.500909  1
  Si  Si101  1  0.333424  0.186590  0.247087  1
  Si  Si102  1  0.121811  0.186649  0.302273  1
  Si  Si103  1  0.544520  0.186621  0.357717  1
  Si  Si104  1  0.666517  0.186670  0.270445  1
  Si  Si105  1  0.878023  0.186609  0.215129  1
  Si  Si106  1  0.454950  0.186652  0.159806  1
  Si  Si107  1  0.544740  0.686671  0.302387  1
  Si  Si108  1  0.333293  0.686652  0.357675  1
  Si  Si109  1  0.121675  0.686598  0.246981  1
  Si  Si110  1  0.455270  0.686595  0.215223  1
  Si  Si111  1  0.666299  0.686597  0.159838  1
  Si  Si112  1  0.878044  0.686676  0.270416  1
  Si  Si113  1  0.666509  0.813535  0.270453  1
  Si  Si114  1  0.878018  0.813604  0.215138  1
  Si  Si115  1  0.454944  0.813534  0.159816  1
  Si  Si116  1  0.333416  0.813606  0.247095  1
  Si  Si117  1  0.121806  0.813543  0.302281  1
  Si  Si118  1  0.544514  0.813598  0.357726  1
  Si  Si119  1  0.455277  0.313592  0.215214  1
  Si  Si120  1  0.666303  0.313605  0.159829  1
  Si  Si121  1  0.878052  0.313539  0.270408  1
  Si  Si122  1  0.544745  0.313545  0.302378  1
  Si  Si123  1  0.333297  0.313550  0.357667  1
  Si  Si124  1  0.121683  0.313589  0.246973  1
  Si  Si125  1  0.333424  0.186590  0.508743  1
  Si  Si126  1  0.121811  0.186649  0.563929  1
  Si  Si127  1  0.544520  0.186621  0.619373  1
  Si  Si128  1  0.666517  0.186670  0.532101  1
  Si  Si129  1  0.878023  0.186609  0.476785  1
  Si  Si130  1  0.454950  0.186652  0.421462  1
  Si  Si131  1  0.544740  0.686671  0.564043  1
  Si  Si132  1  0.333293  0.686652  0.619331  1
  Si  Si133  1  0.121675  0.686598  0.508637  1
  Si  Si134  1  0.455270  0.686595  0.476879  1
  Si  Si135  1  0.666299  0.686597  0.421494  1
  Si  Si136  1  0.878044  0.686676  0.532072  1
  Si  Si137  1  0.666509  0.813535  0.532109  1
  Si  Si138  1  0.878018  0.813604  0.476794  1
  Si  Si139  1  0.454944  0.813534  0.421472  1
  Si  Si140  1  0.333416  0.813606  0.508751  1
  Si  Si141  1  0.121806  0.813543  0.563937  1
  Si  Si142  1  0.544514  0.813598  0.619383  1
  Si  Si143  1  0.455277  0.313592  0.476870  1
  Si  Si144  1  0.666303  0.313605  0.421486  1
  Si  Si145  1  0.878052  0.313539  0.532064  1
  Si  Si146  1  0.544745  0.313545  0.564034  1
  Si  Si147  1  0.333297  0.313550  0.619323  1
  Si  Si148  1  0.121683  0.313589  0.508629  1
  H  H149  1  0.630137  0.252393  0.110565  1
  H  H150  1  0.369065  0.248262  0.110548  1
  H  H151  1  0.369060  0.751896  0.110560  1
  H  H152  1  0.630132  0.747856  0.110577  1
  H  H153  1  0.630137  0.252393  0.668343  1
  H  H154  1  0.369065  0.248262  0.668326  1
  H  H155  1  0.369060  0.751896  0.668338  1
  H  H156  1  0.630132  0.747856  0.668355  1
