# generated using pymatgen
data_Si6H2O13
_symmetry_space_group_name_H-M   'P 1'
_cell_length_a   13.53865779
_cell_length_b   29.44536118
_cell_length_c   41.60193911
_cell_angle_alpha   90.00000000
_cell_angle_beta   120.00000000
_cell_angle_gamma   90.00000000
_symmetry_Int_Tables_number   1
_chemical_formula_structural   Si6H2O13
_chemical_formula_sum   'Si72 H24 O156'
_cell_volume   14362.7202768
_cell_formula_units_Z   12
loop_
 _symmetry_equiv_pos_site_id
 _symmetry_equiv_pos_as_xyz
  1  'x, y, z'
loop_
 _atom_site_type_symbol
 _atom_site_label
 _atom_site_symmetry_multiplicity
 _atom_site_fract_x
 _atom_site_fract_y
 _atom_site_fract_z
 _atom_site_occupancy
  O  O1  1  0.116655  0.186724  0.160416  1
  O  O2  1  0.766399  0.186721  0.160448  1
  O  O3  1  0.116649  0.313314  0.160413  1
  O  O4  1  0.766396  0.313315  0.160446  1
  O  O5  1  0.745228  0.250016  0.198267  1
  O  O6  1  0.253973  0.250019  0.198265  1
  O  O7  1  0.333187  0.166693  0.207521  1
  O  O8  1  0.694458  0.166675  0.207517  1
  O  O9  1  0.638171  0.000000  0.198481  1
  O  O10  1  0.361343  0.000000  0.198483  1
  O  O11  1  0.412245  0.083433  0.224163  1
  O  O12  1  0.920937  0.083384  0.306975  1
  O  O13  1  0.783412  0.020140  0.268898  1
  O  O14  1  0.566039  0.025552  0.339601  1
  O  O15  1  0.867134  0.025526  0.339593  1
  O  O16  1  0.432502  0.020173  0.268898  1
  O  O17  1  0.566121  0.025550  0.241668  1
  O  O18  1  0.465539  0.141459  0.274237  1
  O  O19  1  0.767069  0.141450  0.274229  1
  O  O20  1  0.549532  0.146861  0.230774  1
  O  O21  1  0.549430  0.146873  0.345015  1
  O  O22  1  0.900662  0.146822  0.345011  1
  O  O23  1  0.000000  0.250017  0.281287  1
  O  O24  1  0.253863  0.250020  0.281251  1
  O  O25  1  0.116536  0.186725  0.274392  1
  O  O26  1  0.116530  0.313312  0.274390  1
  O  O27  1  0.972012  0.166656  0.297822  1
  O  O28  1  0.333078  0.166703  0.297814  1
  O  O29  1  0.899285  0.191988  0.231151  1
  O  O30  1  0.200885  0.191981  0.231125  1
  O  O31  1  0.899280  0.308044  0.231149  1
  O  O32  1  0.200877  0.308056  0.231123  1
  O  O33  1  0.412163  0.083441  0.306986  1
  O  O34  1  0.666360  0.083422  0.224170  1
  O  O35  1  0.361313  0.000000  0.316160  1
  O  O36  1  0.361333  0.499994  0.198470  1
  O  O37  1  0.638162  0.499993  0.198468  1
  O  O38  1  0.694451  0.333355  0.207513  1
  O  O39  1  0.333179  0.333343  0.207518  1
  O  O40  1  0.566030  0.474487  0.339590  1
  O  O41  1  0.000000  0.500083  0.316144  1
  O  O42  1  0.566113  0.474485  0.241657  1
  O  O43  1  0.972003  0.333378  0.297819  1
  O  O44  1  0.867122  0.474511  0.339581  1
  O  O45  1  0.767059  0.358585  0.274224  1
  O  O46  1  0.465533  0.358579  0.274233  1
  O  O47  1  0.900648  0.353214  0.345005  1
  O  O48  1  0.549419  0.353168  0.345012  1
  O  O49  1  0.232833  0.641470  0.350141  1
  O  O50  1  0.549524  0.353173  0.230769  1
  O  O51  1  0.412153  0.416600  0.306978  1
  O  O52  1  0.666350  0.416611  0.224161  1
  O  O53  1  0.412239  0.416602  0.224156  1
  O  O54  1  0.920929  0.416650  0.306967  1
  O  O55  1  0.078841  0.583478  0.332747  1
  O  O56  1  0.333332  0.583432  0.332748  1
  O  O57  1  0.432495  0.479866  0.268887  1
  O  O58  1  0.783404  0.479894  0.268886  1
  O  O59  1  0.216211  0.520181  0.339359  1
  O  O60  1  0.361306  0.500018  0.316149  1
  O  O61  1  0.333069  0.333338  0.297811  1
  O  O62  1  0.883203  0.686719  0.236549  1
  O  O63  1  0.000000  0.750020  0.281212  1
  O  O64  1  0.100556  0.691973  0.263973  1
  O  O65  1  0.027914  0.833311  0.307021  1
  O  O66  1  0.305417  0.833342  0.307053  1
  O  O67  1  0.233670  0.813314  0.236590  1
  O  O68  1  0.883210  0.813320  0.236551  1
  O  O69  1  0.078856  0.916560  0.332756  1
  O  O70  1  0.233666  0.686721  0.236588  1
  O  O71  1  0.100563  0.808069  0.263976  1
  O  O72  1  0.333340  0.916610  0.332755  1
  O  O73  1  0.232845  0.858567  0.350144  1
  O  O74  1  0.216222  0.979858  0.339370  1
  O  O75  1  0.254620  0.750020  0.281271  1
  O  O76  1  0.305409  0.666699  0.307050  1
  O  O77  1  0.000000  0.000000  0.316155  1
  O  O78  1  0.027905  0.666728  0.307017  1
  O  O79  1  0.745365  0.250020  0.441199  1
  O  O80  1  0.000000  0.250020  0.441157  1
  O  O81  1  0.116655  0.186724  0.485853  1
  O  O82  1  0.766399  0.186721  0.485886  1
  O  O83  1  0.116649  0.313314  0.485850  1
  O  O84  1  0.766396  0.313315  0.485884  1
  O  O85  1  0.694510  0.166708  0.415415  1
  O  O86  1  0.971956  0.166677  0.415396  1
  O  O87  1  0.899396  0.191986  0.458445  1
  O  O88  1  0.899389  0.308055  0.458441  1
  O  O89  1  0.920833  0.083412  0.389668  1
  O  O90  1  0.666352  0.083455  0.389670  1
  O  O91  1  0.783315  0.020163  0.383031  1
  O  O92  1  0.766970  0.141460  0.372300  1
  O  O93  1  0.638224  0.000000  0.406253  1
  O  O94  1  0.694501  0.333333  0.415412  1
  O  O95  1  0.920819  0.416626  0.389659  1
  O  O96  1  0.666343  0.416586  0.389663  1
  O  O97  1  0.587517  0.583393  0.415438  1
  O  O98  1  0.333296  0.583404  0.498251  1
  O  O99  1  0.587420  0.583387  0.498253  1
  O  O100  1  0.078744  0.583453  0.415432  1
  O  O101  1  0.783304  0.479876  0.383020  1
  O  O102  1  0.567000  0.520130  0.453494  1
  O  O103  1  0.216102  0.520162  0.453498  1
  O  O104  1  0.000000  0.500049  0.406227  1
  O  O105  1  0.638217  0.499978  0.406241  1
  O  O106  1  0.433502  0.525525  0.382796  1
  O  O107  1  0.132406  0.525570  0.382800  1
  O  O108  1  0.433398  0.525527  0.480728  1
  O  O109  1  0.232731  0.641463  0.448200  1
  O  O110  1  0.534293  0.641435  0.448210  1
  O  O111  1  0.766959  0.358577  0.372296  1
  O  O112  1  0.450383  0.646835  0.377433  1
  O  O113  1  0.099117  0.646893  0.377417  1
  O  O114  1  0.450277  0.646827  0.491663  1
  O  O115  1  0.666634  0.666657  0.514924  1
  O  O116  1  0.971949  0.333362  0.415392  1
  O  O117  1  0.666743  0.666665  0.424624  1
  O  O118  1  0.000000  0.750017  0.441203  1
  O  O119  1  0.745879  0.750020  0.441166  1
  O  O120  1  0.883290  0.686724  0.448077  1
  O  O121  1  0.883297  0.813313  0.448079  1
  O  O122  1  0.027826  0.833330  0.424636  1
  O  O123  1  0.666643  0.833379  0.514927  1
  O  O124  1  0.305421  0.833362  0.514924  1
  O  O125  1  0.666753  0.833377  0.424628  1
  O  O126  1  0.100602  0.691981  0.491325  1
  O  O127  1  0.798835  0.691997  0.491296  1
  O  O128  1  0.100606  0.808051  0.491327  1
  O  O129  1  0.798844  0.808041  0.491299  1
  O  O130  1  0.587528  0.916649  0.415446  1
  O  O131  1  0.333306  0.916628  0.498260  1
  O  O132  1  0.587425  0.916648  0.498260  1
  O  O133  1  0.078752  0.916582  0.415440  1
  O  O134  1  0.567007  0.979909  0.453505  1
  O  O135  1  0.216110  0.979872  0.453510  1
  O  O136  1  0.433510  0.974514  0.382806  1
  O  O137  1  0.132418  0.974467  0.382811  1
  O  O138  1  0.433406  0.974508  0.480740  1
  O  O139  1  0.232741  0.858572  0.448206  1
  O  O140  1  0.534300  0.858603  0.448213  1
  O  O141  1  0.450395  0.853206  0.377437  1
  O  O142  1  0.099132  0.853143  0.377423  1
  O  O143  1  0.450285  0.853207  0.491667  1
  O  O144  1  0.000000  0.000000  0.406239  1
  O  O145  1  0.027816  0.666703  0.424633  1
  O  O146  1  0.305413  0.666668  0.514920  1
  O  O147  1  0.638171  0.000000  0.523918  1
  O  O148  1  0.361343  0.000000  0.523920  1
  O  O149  1  0.361333  0.499994  0.523907  1
  O  O150  1  0.638162  0.499993  0.523905  1
  O  O151  1  0.254681  0.750015  0.524179  1
  O  O152  1  0.745773  0.750019  0.524175  1
  O  O153  1  0.883203  0.686719  0.561986  1
  O  O154  1  0.233670  0.813314  0.562027  1
  O  O155  1  0.883210  0.813320  0.561988  1
  O  O156  1  0.233666  0.686721  0.562025  1
  Si  Si157  1  0.227443  0.197785  0.198467  1
  Si  Si158  1  0.772401  0.197782  0.198480  1
  Si  Si159  1  0.772398  0.302249  0.198477  1
  Si  Si160  1  0.227435  0.302252  0.198464  1
  Si  Si161  1  0.894125  0.031150  0.307022  1
  Si  Si162  1  0.666694  0.135668  0.232946  1
  Si  Si163  1  0.000000  0.302250  0.272443  1
  Si  Si164  1  0.227356  0.197787  0.272418  1
  Si  Si165  1  -0.000000  0.197783  0.272445  1
  Si  Si166  1  0.439050  0.031193  0.232889  1
  Si  Si167  1  0.666228  0.031188  0.232892  1
  Si  Si168  1  0.438979  0.031195  0.307027  1
  Si  Si169  1  0.227351  0.302252  0.272416  1
  Si  Si170  1  0.439052  0.135673  0.232953  1
  Si  Si171  1  0.893941  0.135631  0.306875  1
  Si  Si172  1  0.438965  0.135675  0.306881  1
  Si  Si173  1  0.438969  0.468846  0.307016  1
  Si  Si174  1  0.439043  0.468842  0.232879  1
  Si  Si175  1  0.105521  0.531229  0.341458  1
  Si  Si176  1  0.894115  0.468886  0.307011  1
  Si  Si177  1  0.333150  0.635665  0.341495  1
  Si  Si178  1  0.333365  0.531183  0.341454  1
  Si  Si179  1  0.893930  0.364404  0.306869  1
  Si  Si180  1  0.666686  0.364365  0.232941  1
  Si  Si181  1  0.438956  0.364365  0.306877  1
  Si  Si182  1  0.105924  0.635710  0.341481  1
  Si  Si183  1  0.666220  0.468845  0.232881  1
  Si  Si184  1  0.439045  0.364363  0.232949  1
  Si  Si185  1  0.333375  0.968857  0.341464  1
  Si  Si186  1  0.227494  0.802255  0.272638  1
  Si  Si187  1  -0.000000  0.697786  0.272592  1
  Si  Si188  1  0.227487  0.697785  0.272636  1
  Si  Si189  1  0.000000  0.802254  0.272595  1
  Si  Si190  1  0.105533  0.968808  0.341470  1
  Si  Si191  1  0.105937  0.864327  0.341487  1
  Si  Si192  1  0.333161  0.864375  0.341499  1
  Si  Si193  1  0.893852  0.135651  0.380946  1
  Si  Si194  1  0.666655  0.135689  0.380952  1
  Si  Si195  1  0.000000  0.302253  0.449793  1
  Si  Si196  1  0.894031  0.031170  0.380936  1
  Si  Si197  1  0.772509  0.197787  0.449828  1
  Si  Si198  1  0.000000  0.197787  0.449796  1
  Si  Si199  1  0.666191  0.031207  0.380942  1
  Si  Si200  1  0.772504  0.302254  0.449825  1
  Si  Si201  1  0.560762  0.635637  0.489489  1
  Si  Si202  1  0.333097  0.635648  0.489481  1
  Si  Si203  1  0.560853  0.635637  0.415563  1
  Si  Si204  1  0.105844  0.635690  0.415553  1
  Si  Si205  1  0.105428  0.531209  0.415372  1
  Si  Si206  1  0.893840  0.364386  0.380940  1
  Si  Si207  1  0.666646  0.364351  0.380948  1
  Si  Si208  1  0.894018  0.468867  0.380924  1
  Si  Si209  1  0.666182  0.468833  0.380932  1
  Si  Si210  1  0.560567  0.531155  0.415373  1
  Si  Si211  1  0.333305  0.531169  0.489510  1
  Si  Si212  1  0.560471  0.531157  0.489505  1
  Si  Si213  1  0.105436  0.968827  0.415383  1
  Si  Si214  1  0.000000  0.697784  0.450037  1
  Si  Si215  1  0.560768  0.864399  0.489493  1
  Si  Si216  1  0.333107  0.864385  0.489487  1
  Si  Si217  1  0.772399  0.697787  0.450010  1
  Si  Si218  1  0.000000  0.802249  0.450039  1
  Si  Si219  1  0.560861  0.864404  0.415568  1
  Si  Si220  1  0.105855  0.864345  0.415558  1
  Si  Si221  1  0.772405  0.802252  0.450012  1
  Si  Si222  1  0.560576  0.968886  0.415383  1
  Si  Si223  1  0.333314  0.968864  0.489522  1
  Si  Si224  1  0.560478  0.968878  0.489515  1
  Si  Si225  1  0.772326  0.802251  0.523964  1
  Si  Si226  1  0.227530  0.697780  0.523975  1
  Si  Si227  1  0.227534  0.802251  0.523978  1
  Si  Si228  1  0.772318  0.697786  0.523962  1
  H  H229  1  0.116655  0.186724  0.138782  1
  H  H230  1  0.766399  0.186721  0.138815  1
  H  H231  1  0.116649  0.313314  0.138780  1
  H  H232  1  0.766396  0.313315  0.138813  1
  H  H233  1  0.638171  -0.000000  0.176847  1
  H  H234  1  0.361343  0.000000  0.176849  1
  H  H235  1  0.361333  0.499994  0.176837  1
  H  H236  1  0.638162  0.499993  0.176835  1
  H  H237  1  0.883203  0.686719  0.214915  1
  H  H238  1  0.233670  0.813314  0.214957  1
  H  H239  1  0.883210  0.813320  0.214918  1
  H  H240  1  0.233666  0.686721  0.214955  1
  H  H241  1  0.116655  0.186724  0.507487  1
  H  H242  1  0.766399  0.186721  0.507519  1
  H  H243  1  0.116649  0.313314  0.507484  1
  H  H244  1  0.766396  0.313315  0.507517  1
  H  H245  1  0.638171  0.000000  0.545551  1
  H  H246  1  0.361343  0.000000  0.545553  1
  H  H247  1  0.361333  0.499994  0.545541  1
  H  H248  1  0.638162  0.499993  0.545539  1
  H  H249  1  0.883203  0.686719  0.583619  1
  H  H250  1  0.233670  0.813314  0.583661  1
  H  H251  1  0.883210  0.813320  0.583622  1
  H  H252  1  0.233666  0.686721  0.583659  1
