# generated using pymatgen
data_Si9H2O19
_symmetry_space_group_name_H-M   'P 1'
_cell_length_a   8.31381087
_cell_length_b   36.43901554
_cell_length_c   38.77652928
_cell_angle_alpha   66.28562306
_cell_angle_beta   90.00000000
_cell_angle_gamma   90.00000000
_symmetry_Int_Tables_number   1
_chemical_formula_structural   Si9H2O19
_chemical_formula_sum   'Si72 H16 O152'
_cell_volume   10755.3198477
_cell_formula_units_Z   8
loop_
 _symmetry_equiv_pos_site_id
 _symmetry_equiv_pos_as_xyz
  1  'x, y, z'
loop_
 _atom_site_type_symbol
 _atom_site_label
 _atom_site_symmetry_multiplicity
 _atom_site_fract_x
 _atom_site_fract_y
 _atom_site_fract_z
 _atom_site_occupancy
  O  O1  1  0.250013  0.087527  0.290813  1
  O  O2  1  0.250008  0.585870  0.290493  1
  O  O3  1  0.250029  0.912449  0.356931  1
  O  O4  1  0.249991  0.414180  0.355374  1
  O  O5  1  0.491524  0.042693  0.294414  1
  O  O6  1  0.498290  0.542765  0.295064  1
  O  O7  1  0.491434  0.957346  0.326671  1
  O  O8  1  0.498286  0.457283  0.327364  1
  O  O9  1  0.008744  0.957602  0.327448  1
  O  O10  1  0.001646  0.457289  0.327428  1
  O  O11  1  0.008624  0.042443  0.295383  1
  O  O12  1  0.001660  0.542759  0.295131  1
  O  O13  1  0.501048  0.095700  0.322750  1
  O  O14  1  0.497420  0.595848  0.322870  1
  O  O15  1  -0.000000  0.095701  0.323275  1
  O  O16  1  0.002799  0.595846  0.322946  1
  O  O17  1  0.493802  0.117442  0.249461  1
  O  O18  1  0.493566  0.617464  0.249513  1
  O  O19  1  0.494069  0.882603  0.338219  1
  O  O20  1  0.493514  0.382583  0.338267  1
  O  O21  1  0.004743  0.882939  0.338453  1
  O  O22  1  0.006267  0.382593  0.338349  1
  O  O23  1  0.004951  0.117112  0.249952  1
  O  O24  1  0.006282  0.617453  0.249597  1
  O  O25  1  0.250081  0.219175  0.237331  1
  O  O26  1  0.250041  0.719156  0.237554  1
  O  O27  1  0.750083  0.219171  0.315065  1
  O  O28  1  0.750040  0.719139  0.315299  1
  O  O29  1  0.492516  0.266524  0.213570  1
  O  O30  1  0.492361  0.766526  0.213587  1
  O  O31  1  0.992523  0.266494  0.303181  1
  O  O32  1  0.992648  0.766412  0.303383  1
  O  O33  1  0.507298  0.266391  0.303148  1
  O  O34  1  0.507220  0.766369  0.303175  1
  O  O35  1  0.007309  0.266422  0.213681  1
  O  O36  1  0.007519  0.766486  0.213826  1
  O  O37  1  0.500068  0.213013  0.278536  1
  O  O38  1  0.500606  0.713003  0.278568  1
  O  O39  1  0.000000  0.213015  0.278704  1
  O  O40  1  -0.000000  0.713004  0.278714  1
  O  O41  1  0.518924  0.192454  0.223648  1
  O  O42  1  0.518525  0.692463  0.223660  1
  O  O43  1  0.018381  0.192455  0.349191  1
  O  O44  1  0.018661  0.692212  0.349144  1
  O  O45  1  0.481745  0.192218  0.349016  1
  O  O46  1  0.481257  0.692190  0.349041  1
  O  O47  1  0.981198  0.192219  0.224002  1
  O  O48  1  0.981383  0.692447  0.223778  1
  O  O49  1  0.249894  0.806195  0.279858  1
  O  O50  1  0.250007  0.306255  0.279817  1
  O  O51  1  0.749895  0.806216  0.207075  1
  O  O52  1  0.750007  0.306214  0.207034  1
  O  O53  1  0.499626  0.820853  0.237806  1
  O  O54  1  0.499834  0.320863  0.237813  1
  O  O55  1  -0.000000  0.820855  0.238080  1
  O  O56  1  0.000000  0.320863  0.237859  1
  O  O57  1  0.494481  0.162362  0.176005  1
  O  O58  1  0.494589  0.662345  0.176044  1
  O  O59  1  0.494417  0.837671  0.298726  1
  O  O60  1  0.494570  0.337696  0.298727  1
  O  O61  1  0.994349  0.837716  0.164383  1
  O  O62  1  0.993835  0.337798  0.164182  1
  O  O63  1  0.506476  0.837854  0.164046  1
  O  O64  1  0.506386  0.337840  0.164081  1
  O  O65  1  0.006410  0.837813  0.298958  1
  O  O66  1  0.005650  0.337739  0.298797  1
  O  O67  1  0.006278  0.162224  0.176349  1
  O  O68  1  0.005697  0.662302  0.176139  1
  O  O69  1  0.750117  0.150824  0.215623  1
  O  O70  1  0.750030  0.650863  0.215722  1
  O  O71  1  0.750156  0.849144  0.329611  1
  O  O72  1  0.749993  0.349189  0.329728  1
  O  O73  1  0.748910  0.000000  0.320665  1
  O  O74  1  0.749911  0.500023  0.327254  1
  O  O75  1  0.494466  0.000000  0.358496  1
  O  O76  1  0.750007  0.087731  0.361556  1
  O  O77  1  0.750017  0.588781  0.360322  1
  O  O78  1  0.750026  0.912410  0.427756  1
  O  O79  1  0.750000  0.411246  0.427415  1
  O  O80  1  0.991295  0.042680  0.391688  1
  O  O81  1  0.986490  0.542411  0.391286  1
  O  O82  1  0.991484  0.957358  0.423936  1
  O  O83  1  0.986457  0.457629  0.423322  1
  O  O84  1  0.508692  0.957611  0.422967  1
  O  O85  1  0.513487  0.457635  0.423246  1
  O  O86  1  0.508867  0.042427  0.390907  1
  O  O87  1  0.513481  0.542400  0.391217  1
  O  O88  1  0.500936  0.904339  0.395078  1
  O  O89  1  0.497420  0.404193  0.395289  1
  O  O90  1  0.000000  0.904340  0.395598  1
  O  O91  1  0.002777  0.404198  0.395367  1
  O  O92  1  0.994757  0.117408  0.380141  1
  O  O93  1  0.995349  0.617058  0.380116  1
  O  O94  1  0.994471  0.882621  0.468873  1
  O  O95  1  0.995360  0.382984  0.468571  1
  O  O96  1  0.504346  0.882953  0.468386  1
  O  O97  1  0.504424  0.382997  0.468483  1
  O  O98  1  0.503992  0.117077  0.379897  1
  O  O99  1  0.504495  0.617040  0.380046  1
  O  O100  1  0.250123  0.780876  0.403043  1
  O  O101  1  0.250000  0.280886  0.403174  1
  O  O102  1  0.750124  0.780868  0.480780  1
  O  O103  1  0.749999  0.280901  0.480907  1
  O  O104  1  0.492503  0.733518  0.415029  1
  O  O105  1  0.492333  0.233518  0.415021  1
  O  O106  1  0.992606  0.733548  0.504611  1
  O  O107  1  0.992596  0.233628  0.504738  1
  O  O108  1  0.507301  0.733650  0.504506  1
  O  O109  1  0.507197  0.233668  0.504493  1
  O  O110  1  0.007397  0.733623  0.415056  1
  O  O111  1  0.007461  0.233559  0.415236  1
  O  O112  1  0.500261  0.787029  0.439548  1
  O  O113  1  0.500536  0.287037  0.439546  1
  O  O114  1  0.000000  0.787029  0.439711  1
  O  O115  1  0.000000  0.287038  0.439698  1
  O  O116  1  0.518874  0.807583  0.369116  1
  O  O117  1  0.518493  0.307583  0.369110  1
  O  O118  1  0.018551  0.807588  0.494653  1
  O  O119  1  0.018588  0.307828  0.494413  1
  O  O120  1  0.481666  0.807825  0.494304  1
  O  O121  1  0.481230  0.307846  0.494288  1
  O  O122  1  0.981348  0.807823  0.369285  1
  O  O123  1  0.981323  0.307599  0.369221  1
  O  O124  1  0.249854  0.193840  0.511318  1
  O  O125  1  0.250050  0.693776  0.511288  1
  O  O126  1  0.749851  0.193834  0.438548  1
  O  O127  1  0.750049  0.693843  0.438462  1
  O  O128  1  0.499485  0.179187  0.480306  1
  O  O129  1  0.499944  0.679179  0.480341  1
  O  O130  1  0.000000  0.179187  0.480587  1
  O  O131  1  -0.000000  0.679180  0.480380  1
  O  O132  1  0.494481  0.162362  0.553939  1
  O  O133  1  0.494589  0.662345  0.553978  1
  O  O134  1  0.994195  0.162332  0.419629  1
  O  O135  1  0.993886  0.662248  0.419501  1
  O  O136  1  0.994349  0.837716  0.542316  1
  O  O137  1  0.993835  0.337798  0.542115  1
  O  O138  1  0.506476  0.837854  0.541979  1
  O  O139  1  0.506386  0.337840  0.542014  1
  O  O140  1  0.506566  0.162193  0.419390  1
  O  O141  1  0.506402  0.662202  0.419440  1
  O  O142  1  0.006278  0.162224  0.554282  1
  O  O143  1  0.005697  0.662302  0.554073  1
  O  O144  1  0.250122  0.151133  0.388683  1
  O  O145  1  0.250032  0.650938  0.388784  1
  O  O146  1  0.250157  0.849001  0.502833  1
  O  O147  1  0.249995  0.349089  0.502858  1
  O  O148  1  0.248914  0.000000  0.397699  1
  O  O149  1  0.249945  0.500015  0.402541  1
  O  O150  1  0.480238  0.500021  0.359295  1
  O  O151  1  0.994507  -0.000000  0.359856  1
  O  O152  1  0.019408  0.500022  0.359364  1
  Si  Si153  1  0.435986  0.086641  0.288724  1
  Si  Si154  1  0.436269  0.586458  0.288717  1
  Si  Si155  1  0.436006  0.913388  0.354196  1
  Si  Si156  1  0.436252  0.413589  0.354038  1
  Si  Si157  1  0.063974  0.913535  0.354572  1
  Si  Si158  1  0.063720  0.413599  0.354098  1
  Si  Si159  1  0.063958  0.086499  0.289213  1
  Si  Si160  1  0.063737  0.586447  0.288781  1
  Si  Si161  1  0.437744  0.222454  0.237701  1
  Si  Si162  1  0.437732  0.722456  0.237772  1
  Si  Si163  1  0.937760  0.222428  0.312373  1
  Si  Si164  1  0.937697  0.722364  0.312468  1
  Si  Si165  1  0.562407  0.222354  0.312289  1
  Si  Si166  1  0.562397  0.722324  0.312372  1
  Si  Si167  1  0.062421  0.222381  0.237840  1
  Si  Si168  1  0.062364  0.722419  0.237897  1
  Si  Si169  1  0.437134  0.809253  0.279353  1
  Si  Si170  1  0.437270  0.309286  0.279347  1
  Si  Si171  1  0.937138  0.809330  0.205254  1
  Si  Si172  1  0.937222  0.309310  0.205082  1
  Si  Si173  1  0.562687  0.809386  0.204994  1
  Si  Si174  1  0.562812  0.309378  0.205006  1
  Si  Si175  1  0.062690  0.809312  0.279570  1
  Si  Si176  1  0.062764  0.309356  0.279371  1
  Si  Si177  1  0.936487  0.154433  0.216567  1
  Si  Si178  1  0.936413  0.654660  0.216362  1
  Si  Si179  1  0.936529  0.845592  0.333285  1
  Si  Si180  1  0.936375  0.345387  0.333240  1
  Si  Si181  1  0.563798  0.845368  0.333132  1
  Si  Si182  1  0.563593  0.345386  0.333167  1
  Si  Si183  1  0.563761  0.154653  0.216241  1
  Si  Si184  1  0.563631  0.654660  0.216294  1
  Si  Si185  1  0.937921  0.000000  0.322085  1
  Si  Si186  1  0.938774  0.500023  0.323434  1
  Si  Si187  1  0.559827  -0.000000  0.321337  1
  Si  Si188  1  0.561067  0.500023  0.323380  1
  Si  Si189  1  0.936004  0.086658  0.364193  1
  Si  Si190  1  0.935958  0.586677  0.363715  1
  Si  Si191  1  0.936021  0.913396  0.429664  1
  Si  Si192  1  0.935940  0.413362  0.429208  1
  Si  Si193  1  0.563958  0.913541  0.429176  1
  Si  Si194  1  0.564043  0.413370  0.429141  1
  Si  Si195  1  0.563940  0.086514  0.363811  1
  Si  Si196  1  0.564061  0.586665  0.363658  1
  Si  Si197  1  0.437787  0.777589  0.405859  1
  Si  Si198  1  0.437691  0.277589  0.405890  1
  Si  Si199  1  0.937800  0.777613  0.480508  1
  Si  Si200  1  0.937657  0.277675  0.480524  1
  Si  Si201  1  0.562448  0.777687  0.480373  1
  Si  Si202  1  0.562357  0.277713  0.480394  1
  Si  Si203  1  0.062460  0.777665  0.405938  1
  Si  Si204  1  0.062324  0.277626  0.405992  1
  Si  Si205  1  0.437096  0.190783  0.513095  1
  Si  Si206  1  0.437313  0.690754  0.513120  1
  Si  Si207  1  0.937090  0.190716  0.439056  1
  Si  Si208  1  0.937263  0.690737  0.438866  1
  Si  Si209  1  0.562649  0.190659  0.438834  1
  Si  Si210  1  0.562854  0.690666  0.438847  1
  Si  Si211  1  0.062647  0.190727  0.513360  1
  Si  Si212  1  0.062805  0.690684  0.513192  1
  Si  Si213  1  0.436505  0.154507  0.385025  1
  Si  Si214  1  0.436374  0.654476  0.385095  1
  Si  Si215  1  0.436540  0.845555  0.501791  1
  Si  Si216  1  0.436336  0.345561  0.501833  1
  Si  Si217  1  0.063787  0.845333  0.502112  1
  Si  Si218  1  0.063636  0.345560  0.501906  1
  Si  Si219  1  0.063749  0.154730  0.385183  1
  Si  Si220  1  0.063675  0.654480  0.385162  1
  Si  Si221  1  0.437926  0.000000  0.396266  1
  Si  Si222  1  0.438402  0.500018  0.397997  1
  Si  Si223  1  0.059829  0.000000  0.397015  1
  Si  Si224  1  0.061457  0.500019  0.398054  1
  H  H225  1  0.494481  0.162362  0.152795  1
  H  H226  1  0.494589  0.662345  0.152834  1
  H  H227  1  0.994349  0.837716  0.141173  1
  H  H228  1  0.993835  0.337798  0.140972  1
  H  H229  1  0.506476  0.837854  0.140836  1
  H  H230  1  0.506386  0.337840  0.140871  1
  H  H231  1  0.006278  0.162224  0.153139  1
  H  H232  1  0.005697  0.662302  0.152929  1
  H  H233  1  0.494481  0.162362  0.577149  1
  H  H234  1  0.494589  0.662345  0.577188  1
  H  H235  1  0.994349  0.837716  0.565526  1
  H  H236  1  0.993835  0.337798  0.565325  1
  H  H237  1  0.506476  0.837854  0.565189  1
  H  H238  1  0.506386  0.337840  0.565224  1
  H  H239  1  0.006278  0.162224  0.577492  1
  H  H240  1  0.005697  0.662302  0.577283  1
