# generated using pymatgen
data_Si16H2O33
_symmetry_space_group_name_H-M   'P 1'
_cell_length_a   8.32030442
_cell_length_b   13.45714247
_cell_length_c   51.72735879
_cell_angle_alpha   90.00000000
_cell_angle_beta   90.00000000
_cell_angle_gamma   90.00000000
_symmetry_Int_Tables_number   1
_chemical_formula_structural   Si16H2O33
_chemical_formula_sum   'Si64 H8 O132'
_cell_volume   5791.78418215
_cell_formula_units_Z   4
loop_
 _symmetry_equiv_pos_site_id
 _symmetry_equiv_pos_as_xyz
  1  'x, y, z'
loop_
 _atom_site_type_symbol
 _atom_site_label
 _atom_site_symmetry_multiplicity
 _atom_site_fract_x
 _atom_site_fract_y
 _atom_site_fract_z
 _atom_site_occupancy
  O  O1  1  0.735034  0.382462  0.241346  1
  O  O2  1  0.264732  0.382443  0.241351  1
  O  O3  1  0.235487  0.882462  0.212335  1
  O  O4  1  0.738053  0.382066  0.388510  1
  O  O5  1  0.764324  0.882483  0.212333  1
  O  O6  1  0.261577  0.382027  0.388513  1
  O  O7  1  0.757642  0.116458  0.388348  1
  O  O8  1  0.255041  0.617338  0.212017  1
  O  O9  1  0.242291  0.116430  0.388350  1
  O  O10  1  0.744705  0.617356  0.212012  1
  O  O11  1  0.755752  0.117362  0.241683  1
  O  O12  1  0.244020  0.117344  0.241686  1
  O  O13  1  0.251308  0.749039  0.383584  1
  O  O14  1  0.751527  0.249601  0.206796  1
  O  O15  1  0.748509  0.749075  0.383586  1
  O  O16  1  0.248259  0.249583  0.206799  1
  O  O17  1  0.251298  0.749669  0.246889  1
  O  O18  1  0.748466  0.749689  0.246885  1
  O  O19  1  0.264318  0.940824  0.372561  1
  O  O20  1  0.764499  0.441876  0.195866  1
  O  O21  1  0.735675  0.940838  0.372557  1
  O  O22  1  0.235229  0.441857  0.195872  1
  O  O23  1  0.264523  0.941940  0.257818  1
  O  O24  1  0.735291  0.941959  0.257816  1
  O  O25  1  0.240697  0.557206  0.257647  1
  O  O26  1  0.759091  0.557226  0.257641  1
  O  O27  1  0.739713  0.057179  0.196083  1
  O  O28  1  0.237050  0.557185  0.372731  1
  O  O29  1  0.260068  0.057164  0.196086  1
  O  O30  1  0.762669  0.557232  0.372727  1
  O  O31  1  -0.000000  0.861093  0.387545  1
  O  O32  1  0.499879  0.361472  0.210438  1
  O  O33  1  -0.000000  0.861738  0.243173  1
  O  O34  1  0.499883  0.636757  0.240797  1
  O  O35  1  -0.000000  0.136344  0.212701  1
  O  O36  1  0.499871  0.635358  0.388819  1
  O  O37  1  0.759576  0.085527  0.339652  1
  O  O38  1  0.261962  0.587526  0.163344  1
  O  O39  1  0.240321  0.085514  0.339658  1
  O  O40  1  0.737798  0.587564  0.163340  1
  O  O41  1  0.761212  0.087674  0.290374  1
  O  O42  1  0.259222  0.585624  0.114066  1
  O  O43  1  0.238623  0.087635  0.290379  1
  O  O44  1  0.740439  0.585641  0.114061  1
  O  O45  1  0.251936  0.911680  0.114061  1
  O  O46  1  0.759915  0.409520  0.290404  1
  O  O47  1  0.747998  0.911734  0.114060  1
  O  O48  1  0.239791  0.409496  0.290410  1
  O  O49  1  0.257444  0.909858  0.163304  1
  O  O50  1  0.748222  0.412240  0.339652  1
  O  O51  1  0.742377  0.909857  0.163303  1
  O  O52  1  0.251460  0.412190  0.339658  1
  O  O53  1  0.499982  0.062495  0.366071  1
  O  O54  1  -0.000000  0.563477  0.188993  1
  O  O55  1  0.499902  0.063648  0.264515  1
  O  O56  1  -0.000000  0.438822  0.260315  1
  O  O57  1  0.499901  0.937945  0.192987  1
  O  O58  1  -0.000000  0.436096  0.367772  1
  O  O59  1  0.265859  0.248513  0.315538  1
  O  O60  1  0.766341  0.748515  0.138295  1
  O  O61  1  0.733975  0.248543  0.315536  1
  O  O62  1  0.233398  0.748490  0.138305  1
  O  O63  1  0.000000  0.157170  0.315430  1
  O  O64  1  0.499855  0.657575  0.138175  1
  O  O65  1  0.000000  0.868793  0.139393  1
  O  O66  1  0.499867  0.368109  0.313479  1
  O  O67  1  0.236931  0.882054  0.418114  1
  O  O68  1  0.735034  0.382462  0.594308  1
  O  O69  1  0.763047  0.882085  0.418115  1
  O  O70  1  0.264732  0.382443  0.594312  1
  O  O71  1  0.235487  0.882462  0.565296  1
  O  O72  1  0.764324  0.882483  0.565295  1
  O  O73  1  0.255041  0.617338  0.564979  1
  O  O74  1  0.744705  0.617356  0.564973  1
  O  O75  1  0.755752  0.117362  0.594644  1
  O  O76  1  0.257602  0.616461  0.418325  1
  O  O77  1  0.244020  0.117344  0.594648  1
  O  O78  1  0.742099  0.616495  0.418324  1
  O  O79  1  0.751527  0.249601  0.559758  1
  O  O80  1  0.248259  0.249583  0.559761  1
  O  O81  1  0.251298  0.749669  0.599851  1
  O  O82  1  0.750484  0.249152  0.423060  1
  O  O83  1  0.748466  0.749689  0.599846  1
  O  O84  1  0.249325  0.249119  0.423067  1
  O  O85  1  0.764499  0.441876  0.548828  1
  O  O86  1  0.235229  0.441857  0.548834  1
  O  O87  1  0.264523  0.941940  0.610779  1
  O  O88  1  0.764040  0.440907  0.434082  1
  O  O89  1  0.735291  0.941959  0.610778  1
  O  O90  1  0.235609  0.440894  0.434091  1
  O  O91  1  0.738145  0.057231  0.433960  1
  O  O92  1  0.240697  0.557206  0.610609  1
  O  O93  1  0.261731  0.057182  0.433970  1
  O  O94  1  0.759091  0.557226  0.610603  1
  O  O95  1  0.739713  0.057179  0.549044  1
  O  O96  1  0.260068  0.057164  0.549047  1
  O  O97  1  0.499879  0.361472  0.563399  1
  O  O98  1  -0.000000  0.861738  0.596134  1
  O  O99  1  0.499829  0.361820  0.418846  1
  O  O100  1  -0.000000  0.136165  0.417793  1
  O  O101  1  0.499883  0.636757  0.593759  1
  O  O102  1  0.000000  0.136344  0.565662  1
  O  O103  1  0.759576  0.085527  0.692613  1
  O  O104  1  0.261962  0.587526  0.516306  1
  O  O105  1  0.240321  0.085514  0.692619  1
  O  O106  1  0.737798  0.587564  0.516301  1
  O  O107  1  0.761212  0.087674  0.643335  1
  O  O108  1  0.259222  0.585624  0.467027  1
  O  O109  1  0.238623  0.087635  0.643340  1
  O  O110  1  0.740439  0.585641  0.467023  1
  O  O111  1  0.251936  0.911680  0.467023  1
  O  O112  1  0.759915  0.409520  0.643366  1
  O  O113  1  0.747998  0.911734  0.467021  1
  O  O114  1  0.239791  0.409496  0.643371  1
  O  O115  1  0.257444  0.909858  0.516265  1
  O  O116  1  0.748222  0.412240  0.692614  1
  O  O117  1  0.742377  0.909857  0.516264  1
  O  O118  1  0.251460  0.412190  0.692619  1
  O  O119  1  -0.000000  0.563477  0.541954  1
  O  O120  1  0.499902  0.063648  0.617476  1
  O  O121  1  -0.000000  0.562480  0.440551  1
  O  O122  1  0.499981  0.936755  0.438220  1
  O  O123  1  -0.000000  0.438822  0.613277  1
  O  O124  1  0.499901  0.937945  0.545949  1
  O  O125  1  0.265859  0.248513  0.668500  1
  O  O126  1  0.766341  0.748515  0.491256  1
  O  O127  1  0.733975  0.248543  0.668497  1
  O  O128  1  0.233398  0.748490  0.491267  1
  O  O129  1  -0.000000  0.157170  0.668392  1
  O  O130  1  0.499855  0.657575  0.491136  1
  O  O131  1  -0.000000  0.868793  0.492354  1
  O  O132  1  0.499867  0.368109  0.666441  1
  Si  Si133  1  0.187128  0.856333  0.389553  1
  Si  Si134  1  0.686948  0.356942  0.212678  1
  Si  Si135  1  0.812814  0.856342  0.389553  1
  Si  Si136  1  0.312814  0.356928  0.212682  1
  Si  Si137  1  0.186977  0.857063  0.240985  1
  Si  Si138  1  0.812816  0.857077  0.240983  1
  Si  Si139  1  0.312583  0.642299  0.240217  1
  Si  Si140  1  0.687183  0.642317  0.240213  1
  Si  Si141  1  0.812607  0.142164  0.213436  1
  Si  Si142  1  0.312583  0.641490  0.389992  1
  Si  Si143  1  0.187172  0.142148  0.213439  1
  Si  Si144  1  0.687156  0.641539  0.389990  1
  Si  Si145  1  0.686824  0.050976  0.365958  1
  Si  Si146  1  0.186679  0.552162  0.189386  1
  Si  Si147  1  0.313138  0.050966  0.365960  1
  Si  Si148  1  0.813061  0.552179  0.189381  1
  Si  Si149  1  0.686705  0.052282  0.264282  1
  Si  Si150  1  0.313102  0.052264  0.264283  1
  Si  Si151  1  0.813575  0.447146  0.263270  1
  Si  Si152  1  0.186180  0.447129  0.263274  1
  Si  Si153  1  0.313530  0.946997  0.190347  1
  Si  Si154  1  0.813213  0.447109  0.366388  1
  Si  Si155  1  0.686272  0.947007  0.190344  1
  Si  Si156  1  0.186442  0.447076  0.366390  1
  Si  Si157  1  0.185853  0.144181  0.315229  1
  Si  Si158  1  0.685771  0.644325  0.138478  1
  Si  Si159  1  0.813997  0.144214  0.315223  1
  Si  Si160  1  0.313949  0.644294  0.138482  1
  Si  Si161  1  0.813913  0.860074  0.138751  1
  Si  Si162  1  0.313905  0.359967  0.314808  1
  Si  Si163  1  0.185919  0.860063  0.138753  1
  Si  Si164  1  0.685834  0.359983  0.314804  1
  Si  Si165  1  0.686948  0.356942  0.565640  1
  Si  Si166  1  0.312814  0.356928  0.565643  1
  Si  Si167  1  0.186977  0.857063  0.593947  1
  Si  Si168  1  0.687017  0.356564  0.417020  1
  Si  Si169  1  0.812816  0.857077  0.593945  1
  Si  Si170  1  0.312651  0.356561  0.417025  1
  Si  Si171  1  0.812640  0.141769  0.416659  1
  Si  Si172  1  0.312583  0.642299  0.593179  1
  Si  Si173  1  0.187259  0.141715  0.416663  1
  Si  Si174  1  0.687183  0.642317  0.593174  1
  Si  Si175  1  0.812607  0.142164  0.566398  1
  Si  Si176  1  0.187172  0.142148  0.566400  1
  Si  Si177  1  0.186679  0.552162  0.542348  1
  Si  Si178  1  0.813061  0.552179  0.542342  1
  Si  Si179  1  0.686705  0.052282  0.617243  1
  Si  Si180  1  0.186671  0.551009  0.440713  1
  Si  Si181  1  0.313102  0.052264  0.617244  1
  Si  Si182  1  0.812981  0.551014  0.440710  1
  Si  Si183  1  0.313440  0.947098  0.440128  1
  Si  Si184  1  0.813575  0.447146  0.616232  1
  Si  Si185  1  0.686512  0.947142  0.440125  1
  Si  Si186  1  0.186180  0.447129  0.616235  1
  Si  Si187  1  0.313530  0.946997  0.543308  1
  Si  Si188  1  0.686272  0.947007  0.543305  1
  Si  Si189  1  0.185853  0.144181  0.668190  1
  Si  Si190  1  0.685771  0.644325  0.491440  1
  Si  Si191  1  0.813997  0.144214  0.668185  1
  Si  Si192  1  0.313949  0.644294  0.491443  1
  Si  Si193  1  0.813913  0.860074  0.491713  1
  Si  Si194  1  0.313905  0.359967  0.667770  1
  Si  Si195  1  0.185919  0.860063  0.491715  1
  Si  Si196  1  0.685834  0.359983  0.667765  1
  H  H197  1  0.259222  0.585624  0.096667  1
  H  H198  1  0.740439  0.585641  0.096662  1
  H  H199  1  0.251936  0.911680  0.096662  1
  H  H200  1  0.747998  0.911734  0.096661  1
  H  H201  1  0.759576  0.085527  0.710012  1
  H  H202  1  0.240321  0.085514  0.710018  1
  H  H203  1  0.748222  0.412240  0.710013  1
  H  H204  1  0.251460  0.412190  0.710018  1
