# generated using pymatgen
data_Si24H2O49
_symmetry_space_group_name_H-M   'P 1'
_cell_length_a   8.32030442
_cell_length_b   13.45714247
_cell_length_c   64.89043931
_cell_angle_alpha   90.00000000
_cell_angle_beta   90.00000000
_cell_angle_gamma   90.00000000
_symmetry_Int_Tables_number   1
_chemical_formula_structural   Si24H2O49
_chemical_formula_sum   'Si96 H8 O196'
_cell_volume   7265.62168957
_cell_formula_units_Z   4
loop_
 _symmetry_equiv_pos_site_id
 _symmetry_equiv_pos_as_xyz
  1  'x, y, z'
loop_
 _atom_site_type_symbol
 _atom_site_label
 _atom_site_symmetry_multiplicity
 _atom_site_fract_x
 _atom_site_fract_y
 _atom_site_fract_z
 _atom_site_occupancy
  O  O1  1  0.735034  0.382462  0.153135  1
  O  O2  1  0.264732  0.382443  0.153138  1
  O  O3  1  0.235487  0.882462  0.130008  1
  O  O4  1  0.738053  0.382066  0.270446  1
  O  O5  1  0.764324  0.882483  0.130007  1
  O  O6  1  0.261577  0.382027  0.270449  1
  O  O7  1  0.757642  0.116458  0.270317  1
  O  O8  1  0.255041  0.617338  0.129755  1
  O  O9  1  0.242291  0.116430  0.270318  1
  O  O10  1  0.744705  0.617356  0.129751  1
  O  O11  1  0.755752  0.117362  0.153403  1
  O  O12  1  0.244020  0.117344  0.153406  1
  O  O13  1  0.251308  0.749039  0.266520  1
  O  O14  1  0.751527  0.249601  0.125593  1
  O  O15  1  0.748509  0.749075  0.266521  1
  O  O16  1  0.248259  0.249583  0.125596  1
  O  O17  1  0.251298  0.749669  0.157553  1
  O  O18  1  0.748466  0.749689  0.157550  1
  O  O19  1  0.264318  0.940824  0.257732  1
  O  O20  1  0.764499  0.441876  0.116880  1
  O  O21  1  0.735675  0.940838  0.257729  1
  O  O22  1  0.235229  0.441857  0.116885  1
  O  O23  1  0.264523  0.941940  0.166265  1
  O  O24  1  0.735291  0.941959  0.166264  1
  O  O25  1  0.240697  0.557206  0.166129  1
  O  O26  1  0.759091  0.557226  0.166124  1
  O  O27  1  0.739713  0.057179  0.117053  1
  O  O28  1  0.237050  0.557185  0.257868  1
  O  O29  1  0.260068  0.057164  0.117055  1
  O  O30  1  0.762669  0.557232  0.257865  1
  O  O31  1  -0.000000  0.861093  0.269677  1
  O  O32  1  0.499879  0.361472  0.128496  1
  O  O33  1  -0.000000  0.861738  0.154591  1
  O  O34  1  0.499883  0.636757  0.152697  1
  O  O35  1  -0.000000  0.136344  0.130300  1
  O  O36  1  0.499871  0.635358  0.270692  1
  O  O37  1  0.759576  0.085527  0.231499  1
  O  O38  1  0.261962  0.587526  0.090955  1
  O  O39  1  0.240321  0.085514  0.231503  1
  O  O40  1  0.737798  0.587564  0.090952  1
  O  O41  1  0.761212  0.087674  0.192217  1
  O  O42  1  0.238623  0.087635  0.192221  1
  O  O43  1  0.759915  0.409520  0.192241  1
  O  O44  1  0.239791  0.409496  0.192246  1
  O  O45  1  0.257444  0.909858  0.090923  1
  O  O46  1  0.748222  0.412240  0.231499  1
  O  O47  1  0.742377  0.909857  0.090922  1
  O  O48  1  0.251460  0.412190  0.231503  1
  O  O49  1  0.499982  0.062495  0.252559  1
  O  O50  1  -0.000000  0.563477  0.111401  1
  O  O51  1  0.499902  0.063648  0.171603  1
  O  O52  1  -0.000000  0.438822  0.168256  1
  O  O53  1  0.499901  0.937945  0.114585  1
  O  O54  1  -0.000000  0.436096  0.253915  1
  O  O55  1  0.265859  0.248513  0.212277  1
  O  O56  1  0.733975  0.248543  0.212275  1
  O  O57  1  -0.000000  0.157170  0.212191  1
  O  O58  1  0.499867  0.368109  0.210635  1
  O  O59  1  0.236931  0.882054  0.294045  1
  O  O60  1  0.735034  0.382462  0.434498  1
  O  O61  1  0.763047  0.882085  0.294046  1
  O  O62  1  0.264732  0.382443  0.434501  1
  O  O63  1  0.235487  0.882462  0.411371  1
  O  O64  1  0.738053  0.382066  0.551809  1
  O  O65  1  0.764324  0.882483  0.411370  1
  O  O66  1  0.261577  0.382027  0.551812  1
  O  O67  1  0.757642  0.116458  0.551680  1
  O  O68  1  0.255041  0.617338  0.411118  1
  O  O69  1  0.242291  0.116430  0.551681  1
  O  O70  1  0.744705  0.617356  0.411114  1
  O  O71  1  0.755752  0.117362  0.434766  1
  O  O72  1  0.257602  0.616461  0.294213  1
  O  O73  1  0.244020  0.117344  0.434769  1
  O  O74  1  0.742099  0.616495  0.294212  1
  O  O75  1  0.251308  0.749039  0.547883  1
  O  O76  1  0.751527  0.249601  0.406956  1
  O  O77  1  0.748509  0.749075  0.547884  1
  O  O78  1  0.248259  0.249583  0.406959  1
  O  O79  1  0.251298  0.749669  0.438916  1
  O  O80  1  0.750484  0.249152  0.297988  1
  O  O81  1  0.748466  0.749689  0.438912  1
  O  O82  1  0.249325  0.249119  0.297993  1
  O  O83  1  0.264318  0.940824  0.539095  1
  O  O84  1  0.764499  0.441876  0.398243  1
  O  O85  1  0.735675  0.940838  0.539092  1
  O  O86  1  0.235229  0.441857  0.398248  1
  O  O87  1  0.264523  0.941940  0.447628  1
  O  O88  1  0.764040  0.440907  0.306774  1
  O  O89  1  0.735291  0.941959  0.447627  1
  O  O90  1  0.235609  0.440894  0.306781  1
  O  O91  1  0.738145  0.057231  0.306677  1
  O  O92  1  0.240697  0.557206  0.447492  1
  O  O93  1  0.261731  0.057182  0.306685  1
  O  O94  1  0.759091  0.557226  0.447487  1
  O  O95  1  0.739713  0.057179  0.398416  1
  O  O96  1  0.237050  0.557185  0.539231  1
  O  O97  1  0.260068  0.057164  0.398418  1
  O  O98  1  0.762669  0.557232  0.539228  1
  O  O99  1  -0.000000  0.861093  0.551040  1
  O  O100  1  0.499879  0.361472  0.409859  1
  O  O101  1  -0.000000  0.861738  0.435954  1
  O  O102  1  0.499829  0.361820  0.294628  1
  O  O103  1  -0.000000  0.136165  0.293789  1
  O  O104  1  0.499883  0.636757  0.434060  1
  O  O105  1  -0.000000  0.136344  0.411663  1
  O  O106  1  0.499871  0.635358  0.552055  1
  O  O107  1  0.759576  0.085527  0.512862  1
  O  O108  1  0.261962  0.587526  0.372318  1
  O  O109  1  0.240321  0.085514  0.512866  1
  O  O110  1  0.737798  0.587564  0.372315  1
  O  O111  1  0.761212  0.087674  0.473580  1
  O  O112  1  0.259222  0.585624  0.333036  1
  O  O113  1  0.238623  0.087635  0.473584  1
  O  O114  1  0.740439  0.585641  0.333032  1
  O  O115  1  0.251936  0.911680  0.333032  1
  O  O116  1  0.759915  0.409520  0.473604  1
  O  O117  1  0.747998  0.911734  0.333031  1
  O  O118  1  0.239791  0.409496  0.473609  1
  O  O119  1  0.257444  0.909858  0.372286  1
  O  O120  1  0.748222  0.412240  0.512862  1
  O  O121  1  0.742377  0.909857  0.372285  1
  O  O122  1  0.251460  0.412190  0.512866  1
  O  O123  1  0.499982  0.062495  0.533922  1
  O  O124  1  -0.000000  0.563477  0.392764  1
  O  O125  1  0.499902  0.063648  0.452966  1
  O  O126  1  -0.000000  0.562480  0.311931  1
  O  O127  1  0.499981  0.936755  0.310072  1
  O  O128  1  -0.000000  0.438822  0.449619  1
  O  O129  1  0.499901  0.937945  0.395948  1
  O  O130  1  -0.000000  0.436096  0.535278  1
  O  O131  1  0.265859  0.248513  0.493639  1
  O  O132  1  0.766341  0.748515  0.352350  1
  O  O133  1  0.733975  0.248543  0.493638  1
  O  O134  1  0.233398  0.748490  0.352358  1
  O  O135  1  -0.000000  0.157170  0.493554  1
  O  O136  1  0.499855  0.657575  0.352254  1
  O  O137  1  -0.000000  0.868793  0.353226  1
  O  O138  1  0.499867  0.368109  0.491998  1
  O  O139  1  0.236931  0.882054  0.575408  1
  O  O140  1  0.735034  0.382462  0.715860  1
  O  O141  1  0.763047  0.882085  0.575409  1
  O  O142  1  0.264732  0.382443  0.715864  1
  O  O143  1  0.235487  0.882462  0.692734  1
  O  O144  1  0.764324  0.882483  0.692733  1
  O  O145  1  0.255041  0.617338  0.692481  1
  O  O146  1  0.744705  0.617356  0.692477  1
  O  O147  1  0.755752  0.117362  0.716129  1
  O  O148  1  0.257602  0.616461  0.575576  1
  O  O149  1  0.244020  0.117344  0.716131  1
  O  O150  1  0.742099  0.616495  0.575575  1
  O  O151  1  0.751527  0.249601  0.688319  1
  O  O152  1  0.248259  0.249583  0.688322  1
  O  O153  1  0.251298  0.749669  0.720279  1
  O  O154  1  0.750484  0.249152  0.579351  1
  O  O155  1  0.748466  0.749689  0.720275  1
  O  O156  1  0.249325  0.249119  0.579356  1
  O  O157  1  0.764499  0.441876  0.679606  1
  O  O158  1  0.235229  0.441857  0.679611  1
  O  O159  1  0.264523  0.941940  0.728991  1
  O  O160  1  0.764040  0.440907  0.588137  1
  O  O161  1  0.735291  0.941959  0.728989  1
  O  O162  1  0.235609  0.440894  0.588144  1
  O  O163  1  0.738145  0.057231  0.588040  1
  O  O164  1  0.240697  0.557206  0.728855  1
  O  O165  1  0.261731  0.057182  0.588048  1
  O  O166  1  0.759091  0.557226  0.728850  1
  O  O167  1  0.739713  0.057179  0.679778  1
  O  O168  1  0.260068  0.057164  0.679781  1
  O  O169  1  0.499879  0.361472  0.691222  1
  O  O170  1  -0.000000  0.861738  0.717317  1
  O  O171  1  0.499829  0.361820  0.575991  1
  O  O172  1  -0.000000  0.136165  0.575152  1
  O  O173  1  0.499883  0.636757  0.715423  1
  O  O174  1  -0.000000  0.136344  0.693026  1
  O  O175  1  0.261962  0.587526  0.653681  1
  O  O176  1  0.737798  0.587564  0.653678  1
  O  O177  1  0.761212  0.087674  0.754943  1
  O  O178  1  0.259222  0.585624  0.614399  1
  O  O179  1  0.238623  0.087635  0.754947  1
  O  O180  1  0.740439  0.585641  0.614395  1
  O  O181  1  0.251936  0.911680  0.614395  1
  O  O182  1  0.759915  0.409520  0.754967  1
  O  O183  1  0.747998  0.911734  0.614394  1
  O  O184  1  0.239791  0.409496  0.754972  1
  O  O185  1  0.257444  0.909858  0.653649  1
  O  O186  1  0.742377  0.909857  0.653648  1
  O  O187  1  -0.000000  0.563477  0.674127  1
  O  O188  1  0.499902  0.063648  0.734329  1
  O  O189  1  -0.000000  0.562480  0.593293  1
  O  O190  1  0.499981  0.936755  0.591435  1
  O  O191  1  -0.000000  0.438822  0.730982  1
  O  O192  1  0.499901  0.937945  0.677311  1
  O  O193  1  0.766341  0.748515  0.633713  1
  O  O194  1  0.233398  0.748490  0.633721  1
  O  O195  1  0.499855  0.657575  0.633617  1
  O  O196  1  -0.000000  0.868793  0.634589  1
  Si  Si197  1  0.187128  0.856333  0.271277  1
  Si  Si198  1  0.686948  0.356942  0.130282  1
  Si  Si199  1  0.812814  0.856342  0.271278  1
  Si  Si200  1  0.312814  0.356928  0.130285  1
  Si  Si201  1  0.186977  0.857063  0.152847  1
  Si  Si202  1  0.812816  0.857077  0.152845  1
  Si  Si203  1  0.312583  0.642299  0.152235  1
  Si  Si204  1  0.687183  0.642317  0.152231  1
  Si  Si205  1  0.812607  0.142164  0.130886  1
  Si  Si206  1  0.312583  0.641490  0.271628  1
  Si  Si207  1  0.187172  0.142148  0.130888  1
  Si  Si208  1  0.687156  0.641539  0.271626  1
  Si  Si209  1  0.686824  0.050976  0.252469  1
  Si  Si210  1  0.186679  0.552162  0.111715  1
  Si  Si211  1  0.313138  0.050966  0.252470  1
  Si  Si212  1  0.813061  0.552179  0.111710  1
  Si  Si213  1  0.686705  0.052282  0.171418  1
  Si  Si214  1  0.313102  0.052264  0.171418  1
  Si  Si215  1  0.813575  0.447146  0.170611  1
  Si  Si216  1  0.186180  0.447129  0.170614  1
  Si  Si217  1  0.313530  0.946997  0.112481  1
  Si  Si218  1  0.813213  0.447109  0.252812  1
  Si  Si219  1  0.686272  0.947007  0.112478  1
  Si  Si220  1  0.186442  0.447076  0.252813  1
  Si  Si221  1  0.185853  0.144181  0.212030  1
  Si  Si222  1  0.813997  0.144214  0.212026  1
  Si  Si223  1  0.313905  0.359967  0.211695  1
  Si  Si224  1  0.685834  0.359983  0.211691  1
  Si  Si225  1  0.187128  0.856333  0.552640  1
  Si  Si226  1  0.686948  0.356942  0.411645  1
  Si  Si227  1  0.812814  0.856342  0.552641  1
  Si  Si228  1  0.312814  0.356928  0.411648  1
  Si  Si229  1  0.186977  0.857063  0.434210  1
  Si  Si230  1  0.687017  0.356564  0.293173  1
  Si  Si231  1  0.812816  0.857077  0.434208  1
  Si  Si232  1  0.312651  0.356561  0.293177  1
  Si  Si233  1  0.812640  0.141769  0.292885  1
  Si  Si234  1  0.312583  0.642299  0.433597  1
  Si  Si235  1  0.187259  0.141715  0.292888  1
  Si  Si236  1  0.687183  0.642317  0.433594  1
  Si  Si237  1  0.812607  0.142164  0.412249  1
  Si  Si238  1  0.312583  0.641490  0.552990  1
  Si  Si239  1  0.187172  0.142148  0.412251  1
  Si  Si240  1  0.687156  0.641539  0.552989  1
  Si  Si241  1  0.686824  0.050976  0.533832  1
  Si  Si242  1  0.186679  0.552162  0.393078  1
  Si  Si243  1  0.313138  0.050966  0.533833  1
  Si  Si244  1  0.813061  0.552179  0.393073  1
  Si  Si245  1  0.686705  0.052282  0.452781  1
  Si  Si246  1  0.186671  0.551009  0.312060  1
  Si  Si247  1  0.313102  0.052264  0.452781  1
  Si  Si248  1  0.812981  0.551014  0.312057  1
  Si  Si249  1  0.313440  0.947098  0.311593  1
  Si  Si250  1  0.813575  0.447146  0.451974  1
  Si  Si251  1  0.686512  0.947142  0.311591  1
  Si  Si252  1  0.186180  0.447129  0.451977  1
  Si  Si253  1  0.313530  0.946997  0.393843  1
  Si  Si254  1  0.813213  0.447109  0.534175  1
  Si  Si255  1  0.686272  0.947007  0.393841  1
  Si  Si256  1  0.186442  0.447076  0.534176  1
  Si  Si257  1  0.185853  0.144181  0.493393  1
  Si  Si258  1  0.685771  0.644325  0.352496  1
  Si  Si259  1  0.813997  0.144214  0.493389  1
  Si  Si260  1  0.313949  0.644294  0.352499  1
  Si  Si261  1  0.813913  0.860074  0.352714  1
  Si  Si262  1  0.313905  0.359967  0.493058  1
  Si  Si263  1  0.185919  0.860063  0.352716  1
  Si  Si264  1  0.685834  0.359983  0.493054  1
  Si  Si265  1  0.686948  0.356942  0.693008  1
  Si  Si266  1  0.312814  0.356928  0.693011  1
  Si  Si267  1  0.186977  0.857063  0.715573  1
  Si  Si268  1  0.687017  0.356564  0.574536  1
  Si  Si269  1  0.812816  0.857077  0.715571  1
  Si  Si270  1  0.312651  0.356561  0.574539  1
  Si  Si271  1  0.812640  0.141769  0.574248  1
  Si  Si272  1  0.312583  0.642299  0.714960  1
  Si  Si273  1  0.187259  0.141715  0.574251  1
  Si  Si274  1  0.687183  0.642317  0.714957  1
  Si  Si275  1  0.812607  0.142164  0.693612  1
  Si  Si276  1  0.187172  0.142148  0.693614  1
  Si  Si277  1  0.186679  0.552162  0.674441  1
  Si  Si278  1  0.813061  0.552179  0.674436  1
  Si  Si279  1  0.686705  0.052282  0.734143  1
  Si  Si280  1  0.186671  0.551009  0.593423  1
  Si  Si281  1  0.313102  0.052264  0.734144  1
  Si  Si282  1  0.812981  0.551014  0.593420  1
  Si  Si283  1  0.313440  0.947098  0.592956  1
  Si  Si284  1  0.813575  0.447146  0.733337  1
  Si  Si285  1  0.686512  0.947142  0.592954  1
  Si  Si286  1  0.186180  0.447129  0.733340  1
  Si  Si287  1  0.313530  0.946997  0.675206  1
  Si  Si288  1  0.686272  0.947007  0.675204  1
  Si  Si289  1  0.685771  0.644325  0.633859  1
  Si  Si290  1  0.313949  0.644294  0.633862  1
  Si  Si291  1  0.813913  0.860074  0.634077  1
  Si  Si292  1  0.185919  0.860063  0.634079  1
  H  H293  1  0.261962  0.587526  0.077086  1
  H  H294  1  0.737798  0.587564  0.077082  1
  H  H295  1  0.257444  0.909858  0.077054  1
  H  H296  1  0.742377  0.909857  0.077053  1
  H  H297  1  0.761212  0.087674  0.768812  1
  H  H298  1  0.238623  0.087635  0.768816  1
  H  H299  1  0.759915  0.409520  0.768837  1
  H  H300  1  0.239791  0.409496  0.768841  1
