# generated using pymatgen
data_Si24H2O49
_symmetry_space_group_name_H-M   'P 1'
_cell_length_a   13.90613991
_cell_length_b   9.56864993
_cell_length_c   57.26116751
_cell_angle_alpha   90.00000000
_cell_angle_beta   90.00000000
_cell_angle_gamma   90.00000000
_symmetry_Int_Tables_number   1
_chemical_formula_structural   Si24H2O49
_chemical_formula_sum   'Si96 H8 O196'
_cell_volume   7619.34185432
_cell_formula_units_Z   4
loop_
 _symmetry_equiv_pos_site_id
 _symmetry_equiv_pos_as_xyz
  1  'x, y, z'
loop_
 _atom_site_type_symbol
 _atom_site_label
 _atom_site_symmetry_multiplicity
 _atom_site_fract_x
 _atom_site_fract_y
 _atom_site_fract_z
 _atom_site_occupancy
  O  O1  1  0.589928  0.361881  0.103038  1
  O  O2  1  0.909876  0.861881  0.103037  1
  O  O3  1  0.517681  0.236067  0.138966  1
  O  O4  1  0.016592  0.236682  0.293669  1
  O  O5  1  0.517213  0.236713  0.376768  1
  O  O6  1  0.017746  0.236082  0.222029  1
  O  O7  1  0.982116  0.736066  0.138966  1
  O  O8  1  0.483220  0.736683  0.293670  1
  O  O9  1  0.982599  0.736714  0.376768  1
  O  O10  1  0.482051  0.736080  0.222030  1
  O  O11  1  0.482695  0.760194  0.376857  1
  O  O12  1  0.983682  0.759567  0.222149  1
  O  O13  1  0.483769  0.759613  0.138854  1
  O  O14  1  0.983290  0.760349  0.293615  1
  O  O15  1  0.017117  0.260196  0.376858  1
  O  O16  1  0.516114  0.259567  0.222149  1
  O  O17  1  0.016027  0.259612  0.138854  1
  O  O18  1  0.516522  0.260350  0.293615  1
  O  O19  1  0.500091  0.497574  0.134186  1
  O  O20  1  -0.000000  0.498436  0.288962  1
  O  O21  1  0.499824  0.498376  0.381577  1
  O  O22  1  -0.000000  0.497587  0.226794  1
  O  O23  1  -0.000000  0.997574  0.134186  1
  O  O24  1  0.499996  0.998436  0.288961  1
  O  O25  1  -0.000000  0.998376  0.381577  1
  O  O26  1  0.499722  0.997587  0.226794  1
  O  O27  1  0.589928  0.361881  0.412646  1
  O  O28  1  0.090532  0.362218  0.257904  1
  O  O29  1  0.909876  0.861881  0.412645  1
  O  O30  1  0.409271  0.862218  0.257905  1
  O  O31  1  0.409853  0.634252  0.103107  1
  O  O32  1  0.909183  0.633742  0.257842  1
  O  O33  1  0.089952  0.134252  0.103108  1
  O  O34  1  0.590621  0.133742  0.257841  1
  O  O35  1  0.665814  0.391747  0.144118  1
  O  O36  1  0.164824  0.390994  0.299322  1
  O  O37  1  0.665535  0.392025  0.371668  1
  O  O38  1  0.165878  0.391827  0.216845  1
  O  O39  1  0.833980  0.891739  0.144117  1
  O  O40  1  0.334991  0.891000  0.299324  1
  O  O41  1  0.834279  0.892031  0.371667  1
  O  O42  1  0.333917  0.891819  0.216846  1
  O  O43  1  0.334199  0.605360  0.371713  1
  O  O44  1  0.835176  0.606018  0.216446  1
  O  O45  1  0.335187  0.606143  0.144462  1
  O  O46  1  0.834904  0.606428  0.299290  1
  O  O47  1  0.165614  0.105367  0.371714  1
  O  O48  1  0.664618  0.106011  0.216445  1
  O  O49  1  0.164607  0.106136  0.144464  1
  O  O50  1  0.664910  0.106435  0.299289  1
  O  O51  1  0.649439  0.852531  0.154449  1
  O  O52  1  0.149813  0.850040  0.309059  1
  O  O53  1  0.649535  0.851567  0.361459  1
  O  O54  1  0.149445  0.852365  0.206533  1
  O  O55  1  0.850357  0.352534  0.154449  1
  O  O56  1  0.350000  0.350037  0.309059  1
  O  O57  1  0.850278  0.351565  0.361459  1
  O  O58  1  0.350350  0.352368  0.206533  1
  O  O59  1  0.350292  0.145634  0.361439  1
  O  O60  1  0.850021  0.148127  0.206843  1
  O  O61  1  0.349994  0.148040  0.154141  1
  O  O62  1  0.850035  0.147113  0.309079  1
  O  O63  1  0.149521  0.645632  0.361439  1
  O  O64  1  0.649775  0.648129  0.206843  1
  O  O65  1  0.149802  0.648043  0.154141  1
  O  O66  1  0.649778  0.647110  0.309079  1
  O  O67  1  0.523946  0.748087  0.180505  1
  O  O68  1  0.023992  0.748287  0.335210  1
  O  O69  1  0.523978  0.748416  0.335289  1
  O  O70  1  0.023956  0.748112  0.180490  1
  O  O71  1  0.975849  0.248088  0.180505  1
  O  O72  1  0.475821  0.248287  0.335210  1
  O  O73  1  0.975836  0.248417  0.335289  1
  O  O74  1  0.475839  0.248113  0.180490  1
  O  O75  1  0.498566  0.997875  0.162198  1
  O  O76  1  -0.000000  0.998443  0.316962  1
  O  O77  1  0.499820  0.998375  0.353560  1
  O  O78  1  0.998593  0.997846  0.198814  1
  O  O79  1  0.001231  0.497875  0.162198  1
  O  O80  1  0.499946  0.498444  0.316962  1
  O  O81  1  -0.000000  0.498376  0.353560  1
  O  O82  1  0.501204  0.497846  0.198814  1
  O  O83  1  0.747204  0.018253  0.178252  1
  O  O84  1  0.252953  0.979738  0.337573  1
  O  O85  1  0.746543  0.018010  0.337603  1
  O  O86  1  0.247037  0.017899  0.182665  1
  O  O87  1  0.752595  0.518253  0.178253  1
  O  O88  1  0.246856  0.479738  0.337571  1
  O  O89  1  0.753266  0.518011  0.337604  1
  O  O90  1  0.252762  0.517899  0.182663  1
  O  O91  1  0.721379  0.267842  0.182455  1
  O  O92  1  0.221318  0.230003  0.333428  1
  O  O93  1  0.721404  0.267815  0.333375  1
  O  O94  1  0.221322  0.267515  0.178519  1
  O  O95  1  0.778418  0.767842  0.182455  1
  O  O96  1  0.278494  0.730003  0.333428  1
  O  O97  1  0.778408  0.767814  0.333375  1
  O  O98  1  0.278474  0.767515  0.178519  1
  O  O99  1  0.517681  0.236067  0.448575  1
  O  O100  1  0.016592  0.236682  0.603278  1
  O  O101  1  0.517213  0.236713  0.686377  1
  O  O102  1  0.017746  0.236082  0.531638  1
  O  O103  1  0.982116  0.736066  0.448574  1
  O  O104  1  0.483220  0.736683  0.603278  1
  O  O105  1  0.982599  0.736714  0.686377  1
  O  O106  1  0.482051  0.736080  0.531638  1
  O  O107  1  0.482695  0.760194  0.686466  1
  O  O108  1  0.983682  0.759567  0.531757  1
  O  O109  1  0.483769  0.759613  0.448463  1
  O  O110  1  0.983290  0.760349  0.603224  1
  O  O111  1  0.017117  0.260196  0.686466  1
  O  O112  1  0.516114  0.259567  0.531757  1
  O  O113  1  0.016027  0.259612  0.448463  1
  O  O114  1  0.516522  0.260350  0.603223  1
  O  O115  1  0.500091  0.497574  0.443794  1
  O  O116  1  -0.000000  0.498436  0.598570  1
  O  O117  1  0.499824  0.498376  0.691185  1
  O  O118  1  -0.000000  0.497587  0.536402  1
  O  O119  1  -0.000000  0.997574  0.443794  1
  O  O120  1  0.499996  0.998436  0.598570  1
  O  O121  1  -0.000000  0.998376  0.691185  1
  O  O122  1  0.499722  0.997587  0.536402  1
  O  O123  1  0.589928  0.361881  0.722255  1
  O  O124  1  0.090532  0.362218  0.567513  1
  O  O125  1  0.909876  0.861881  0.722254  1
  O  O126  1  0.409271  0.862218  0.567514  1
  O  O127  1  0.409853  0.634252  0.412715  1
  O  O128  1  0.909183  0.633742  0.567450  1
  O  O129  1  0.089952  0.134252  0.412716  1
  O  O130  1  0.590621  0.133742  0.567449  1
  O  O131  1  0.665814  0.391747  0.453727  1
  O  O132  1  0.164824  0.390994  0.608930  1
  O  O133  1  0.665535  0.392025  0.681277  1
  O  O134  1  0.165878  0.391827  0.526453  1
  O  O135  1  0.833980  0.891739  0.453726  1
  O  O136  1  0.334991  0.891000  0.608932  1
  O  O137  1  0.834279  0.892031  0.681275  1
  O  O138  1  0.333917  0.891819  0.526454  1
  O  O139  1  0.334199  0.605360  0.681321  1
  O  O140  1  0.835176  0.606018  0.526055  1
  O  O141  1  0.335187  0.606143  0.454071  1
  O  O142  1  0.834904  0.606428  0.608899  1
  O  O143  1  0.165614  0.105367  0.681323  1
  O  O144  1  0.664618  0.106011  0.526054  1
  O  O145  1  0.164607  0.106136  0.454072  1
  O  O146  1  0.664910  0.106435  0.608897  1
  O  O147  1  0.649439  0.852531  0.464058  1
  O  O148  1  0.149813  0.850040  0.618667  1
  O  O149  1  0.649535  0.851567  0.671068  1
  O  O150  1  0.149445  0.852365  0.516141  1
  O  O151  1  0.850357  0.352534  0.464058  1
  O  O152  1  0.350000  0.350037  0.618667  1
  O  O153  1  0.850278  0.351565  0.671068  1
  O  O154  1  0.350350  0.352368  0.516141  1
  O  O155  1  0.350292  0.145634  0.671047  1
  O  O156  1  0.850021  0.148127  0.516451  1
  O  O157  1  0.349994  0.148040  0.463749  1
  O  O158  1  0.850035  0.147113  0.618687  1
  O  O159  1  0.149521  0.645632  0.671047  1
  O  O160  1  0.649775  0.648129  0.516451  1
  O  O161  1  0.149802  0.648043  0.463749  1
  O  O162  1  0.649778  0.647110  0.618687  1
  O  O163  1  0.523946  0.748087  0.490114  1
  O  O164  1  0.023992  0.748287  0.644818  1
  O  O165  1  0.523978  0.748416  0.644898  1
  O  O166  1  0.023956  0.748112  0.490099  1
  O  O167  1  0.975849  0.248088  0.490114  1
  O  O168  1  0.475821  0.248287  0.644818  1
  O  O169  1  0.975836  0.248417  0.644898  1
  O  O170  1  0.475839  0.248113  0.490099  1
  O  O171  1  0.498566  0.997875  0.471806  1
  O  O172  1  -0.000000  0.998443  0.626570  1
  O  O173  1  0.499820  0.998375  0.663169  1
  O  O174  1  0.998593  0.997846  0.508422  1
  O  O175  1  0.001231  0.497875  0.471806  1
  O  O176  1  0.499946  0.498444  0.626570  1
  O  O177  1  -0.000000  0.498376  0.663169  1
  O  O178  1  0.501204  0.497846  0.508423  1
  O  O179  1  0.747204  0.018253  0.487861  1
  O  O180  1  0.252953  0.979738  0.647181  1
  O  O181  1  0.746543  0.018010  0.647211  1
  O  O182  1  0.247037  0.017899  0.492273  1
  O  O183  1  0.752595  0.518253  0.487862  1
  O  O184  1  0.246856  0.479738  0.647180  1
  O  O185  1  0.753266  0.518011  0.647213  1
  O  O186  1  0.252762  0.517899  0.492272  1
  O  O187  1  0.721379  0.267842  0.492063  1
  O  O188  1  0.221318  0.230003  0.643037  1
  O  O189  1  0.721404  0.267815  0.642983  1
  O  O190  1  0.221322  0.267515  0.488127  1
  O  O191  1  0.778418  0.767842  0.492063  1
  O  O192  1  0.278494  0.730003  0.643037  1
  O  O193  1  0.778408  0.767814  0.642983  1
  O  O194  1  0.278474  0.767515  0.488127  1
  O  O195  1  0.409853  0.634252  0.722324  1
  O  O196  1  0.089952  0.134252  0.722325  1
  Si  Si197  1  0.570175  0.372053  0.129866  1
  Si  Si198  1  0.069743  0.372560  0.284707  1
  Si  Si199  1  0.569745  0.372644  0.385857  1
  Si  Si200  1  0.070270  0.372157  0.231093  1
  Si  Si201  1  0.929622  0.872051  0.129865  1
  Si  Si202  1  0.430069  0.872562  0.284708  1
  Si  Si203  1  0.930066  0.872646  0.385857  1
  Si  Si204  1  0.429527  0.872156  0.231093  1
  Si  Si205  1  0.430035  0.624211  0.385908  1
  Si  Si206  1  0.930351  0.623666  0.231053  1
  Si  Si207  1  0.430512  0.623790  0.129906  1
  Si  Si208  1  0.930017  0.624417  0.284667  1
  Si  Si209  1  0.069776  0.124213  0.385908  1
  Si  Si210  1  0.569446  0.123664  0.231052  1
  Si  Si211  1  0.069285  0.123788  0.129907  1
  Si  Si212  1  0.569795  0.124419  0.284667  1
  Si  Si213  1  0.537209  0.844608  0.158601  1
  Si  Si214  1  0.037560  0.844727  0.313306  1
  Si  Si215  1  0.537268  0.844598  0.357227  1
  Si  Si216  1  0.037195  0.844555  0.202404  1
  Si  Si217  1  0.962587  0.344607  0.158601  1
  Si  Si218  1  0.462252  0.344726  0.313306  1
  Si  Si219  1  0.962545  0.344597  0.357227  1
  Si  Si220  1  0.462601  0.344554  0.202404  1
  Si  Si221  1  0.462541  0.152289  0.357168  1
  Si  Si222  1  0.962270  0.152208  0.202475  1
  Si  Si223  1  0.462229  0.152227  0.158525  1
  Si  Si224  1  0.962274  0.152251  0.313351  1
  Si  Si225  1  0.037271  0.652289  0.357168  1
  Si  Si226  1  0.537526  0.652209  0.202475  1
  Si  Si227  1  0.037567  0.652227  0.158525  1
  Si  Si228  1  0.537538  0.652251  0.313351  1
  Si  Si229  1  0.743627  0.134030  0.197344  1
  Si  Si230  1  0.244954  0.115827  0.352250  1
  Si  Si231  1  0.743549  0.133832  0.318512  1
  Si  Si232  1  0.243557  0.133820  0.163599  1
  Si  Si233  1  0.756169  0.634033  0.197345  1
  Si  Si234  1  0.254857  0.615824  0.352249  1
  Si  Si235  1  0.756263  0.633829  0.318513  1
  Si  Si236  1  0.256240  0.633824  0.163598  1
  Si  Si237  1  0.256230  0.863742  0.318519  1
  Si  Si238  1  0.754793  0.881956  0.163620  1
  Si  Si239  1  0.254769  0.881746  0.197330  1
  Si  Si240  1  0.754781  0.881776  0.352239  1
  Si  Si241  1  0.243582  0.363738  0.318519  1
  Si  Si242  1  0.745004  0.381959  0.163620  1
  Si  Si243  1  0.245027  0.381748  0.197329  1
  Si  Si244  1  0.745031  0.381772  0.352240  1
  Si  Si245  1  0.570175  0.372053  0.439474  1
  Si  Si246  1  0.069743  0.372560  0.594315  1
  Si  Si247  1  0.569745  0.372644  0.695466  1
  Si  Si248  1  0.070270  0.372157  0.540701  1
  Si  Si249  1  0.929622  0.872051  0.439474  1
  Si  Si250  1  0.430069  0.872562  0.594316  1
  Si  Si251  1  0.930066  0.872646  0.695465  1
  Si  Si252  1  0.429527  0.872156  0.540702  1
  Si  Si253  1  0.430035  0.624211  0.695516  1
  Si  Si254  1  0.930351  0.623666  0.540661  1
  Si  Si255  1  0.430512  0.623790  0.439515  1
  Si  Si256  1  0.930017  0.624417  0.594276  1
  Si  Si257  1  0.069776  0.124213  0.695517  1
  Si  Si258  1  0.569446  0.123664  0.540661  1
  Si  Si259  1  0.069285  0.123788  0.439516  1
  Si  Si260  1  0.569795  0.124419  0.594275  1
  Si  Si261  1  0.537209  0.844608  0.468210  1
  Si  Si262  1  0.037560  0.844727  0.622915  1
  Si  Si263  1  0.537268  0.844598  0.666835  1
  Si  Si264  1  0.037195  0.844555  0.512012  1
  Si  Si265  1  0.962587  0.344607  0.468210  1
  Si  Si266  1  0.462252  0.344726  0.622915  1
  Si  Si267  1  0.962545  0.344597  0.666835  1
  Si  Si268  1  0.462601  0.344554  0.512012  1
  Si  Si269  1  0.462541  0.152289  0.666776  1
  Si  Si270  1  0.962270  0.152208  0.512083  1
  Si  Si271  1  0.462229  0.152227  0.468133  1
  Si  Si272  1  0.962274  0.152251  0.622959  1
  Si  Si273  1  0.037271  0.652289  0.666776  1
  Si  Si274  1  0.537526  0.652209  0.512083  1
  Si  Si275  1  0.037567  0.652227  0.468133  1
  Si  Si276  1  0.537538  0.652251  0.622959  1
  Si  Si277  1  0.743627  0.134030  0.506953  1
  Si  Si278  1  0.244954  0.115827  0.661858  1
  Si  Si279  1  0.743549  0.133832  0.628121  1
  Si  Si280  1  0.243557  0.133820  0.473207  1
  Si  Si281  1  0.756169  0.634033  0.506954  1
  Si  Si282  1  0.254857  0.615824  0.661858  1
  Si  Si283  1  0.756263  0.633829  0.628122  1
  Si  Si284  1  0.256240  0.633824  0.473206  1
  Si  Si285  1  0.256230  0.863742  0.628128  1
  Si  Si286  1  0.754793  0.881956  0.473228  1
  Si  Si287  1  0.254769  0.881746  0.506938  1
  Si  Si288  1  0.754781  0.881776  0.661847  1
  Si  Si289  1  0.243582  0.363738  0.628127  1
  Si  Si290  1  0.745004  0.381959  0.473229  1
  Si  Si291  1  0.245027  0.381748  0.506938  1
  Si  Si292  1  0.745031  0.381772  0.661848  1
  H  H293  1  0.589928  0.361881  0.087320  1
  H  H294  1  0.909876  0.861881  0.087319  1
  H  H295  1  0.409853  0.634252  0.087389  1
  H  H296  1  0.089952  0.134252  0.087390  1
  H  H297  1  0.589928  0.361881  0.737972  1
  H  H298  1  0.909876  0.861881  0.737971  1
  H  H299  1  0.409853  0.634252  0.738041  1
  H  H300  1  0.089952  0.134252  0.738042  1
