# generated using pymatgen
data_Si24H2O49
_symmetry_space_group_name_H-M   'P 1'
_cell_length_a   12.71631753
_cell_length_b   12.70113620
_cell_length_c   47.39748947
_cell_angle_alpha   90.00000000
_cell_angle_beta   90.00000000
_cell_angle_gamma   120.00000000
_symmetry_Int_Tables_number   1
_chemical_formula_structural   Si24H2O49
_chemical_formula_sum   'Si48 H4 O98'
_cell_volume   6629.639409
_cell_formula_units_Z   2
loop_
 _symmetry_equiv_pos_site_id
 _symmetry_equiv_pos_as_xyz
  1  'x, y, z'
loop_
 _atom_site_type_symbol
 _atom_site_label
 _atom_site_symmetry_multiplicity
 _atom_site_fract_x
 _atom_site_fract_y
 _atom_site_fract_z
 _atom_site_occupancy
  O  O1  1  0.335933  0.664677  0.124479  1
  O  O2  1  0.332823  0.779608  0.169658  1
  O  O3  1  0.226350  0.547481  0.169767  1
  O  O4  1  0.458248  0.673045  0.169496  1
  O  O5  1  0.785091  0.326305  0.169711  1
  O  O6  1  0.553254  0.220131  0.169492  1
  O  O7  1  0.678629  0.452067  0.169773  1
  O  O8  1  0.678034  0.219982  0.259377  1
  O  O9  1  0.785066  0.452042  0.259160  1
  O  O10  1  0.553277  0.327000  0.259398  1
  O  O11  1  0.226268  0.672791  0.259253  1
  O  O12  1  0.457998  0.779515  0.259422  1
  O  O13  1  0.333112  0.547629  0.259205  1
  O  O14  1  0.378804  0.000000  0.189403  1
  O  O15  1  0.005721  0.372731  0.189403  1
  O  O16  1  0.632469  0.626771  0.189331  1
  O  O17  1  0.631945  0.000000  0.239562  1
  O  O18  1  0.005640  0.626335  0.239587  1
  O  O19  1  0.379347  0.373389  0.239562  1
  O  O20  1  0.219156  0.786090  0.214519  1
  O  O21  1  0.219555  0.427230  0.214478  1
  O  O22  1  0.578072  0.786223  0.214444  1
  O  O23  1  0.791810  0.213274  0.214507  1
  O  O24  1  0.433302  0.213901  0.214417  1
  O  O25  1  0.792205  0.572527  0.214418  1
  O  O26  1  0.438293  0.865823  0.214537  1
  O  O27  1  0.139387  0.566499  0.214515  1
  O  O28  1  0.438742  0.566830  0.214291  1
  O  O29  1  0.871998  0.432800  0.214406  1
  O  O30  1  0.572614  0.133944  0.214401  1
  O  O31  1  0.573083  0.433401  0.214618  1
  O  O32  1  0.674790  0.336238  0.124497  1
  O  O33  1  0.335933  0.664677  0.304493  1
  O  O34  1  0.332823  0.779608  0.349672  1
  O  O35  1  0.226350  0.547481  0.349781  1
  O  O36  1  0.458248  0.673045  0.349510  1
  O  O37  1  0.785091  0.326305  0.349725  1
  O  O38  1  0.553254  0.220131  0.349506  1
  O  O39  1  0.678629  0.452067  0.349787  1
  O  O40  1  0.678034  0.219982  0.439392  1
  O  O41  1  0.785066  0.452042  0.439174  1
  O  O42  1  0.553277  0.327000  0.439412  1
  O  O43  1  0.226268  0.672791  0.439267  1
  O  O44  1  0.457998  0.779515  0.439436  1
  O  O45  1  0.333112  0.547629  0.439219  1
  O  O46  1  0.378804  0.000000  0.369417  1
  O  O47  1  0.005721  0.372731  0.369418  1
  O  O48  1  0.632469  0.626771  0.369346  1
  O  O49  1  0.631945  0.000000  0.419576  1
  O  O50  1  0.005640  0.626335  0.419601  1
  O  O51  1  0.379347  0.373389  0.419576  1
  O  O52  1  0.219156  0.786090  0.394533  1
  O  O53  1  0.219555  0.427230  0.394492  1
  O  O54  1  0.578072  0.786223  0.394458  1
  O  O55  1  0.791810  0.213274  0.394521  1
  O  O56  1  0.433302  0.213901  0.394431  1
  O  O57  1  0.792205  0.572527  0.394432  1
  O  O58  1  0.438293  0.865823  0.394551  1
  O  O59  1  0.139387  0.566499  0.394530  1
  O  O60  1  0.438742  0.566830  0.394305  1
  O  O61  1  0.871998  0.432800  0.394420  1
  O  O62  1  0.572614  0.133944  0.394415  1
  O  O63  1  0.573083  0.433401  0.394632  1
  O  O64  1  0.674790  0.336238  0.304511  1
  O  O65  1  0.335933  0.664677  0.484507  1
  O  O66  1  0.332823  0.779608  0.529686  1
  O  O67  1  0.226350  0.547481  0.529795  1
  O  O68  1  0.458248  0.673045  0.529524  1
  O  O69  1  0.785091  0.326305  0.529739  1
  O  O70  1  0.553254  0.220131  0.529520  1
  O  O71  1  0.678629  0.452067  0.529801  1
  O  O72  1  0.678034  0.219982  0.619406  1
  O  O73  1  0.785066  0.452042  0.619188  1
  O  O74  1  0.553277  0.327000  0.619426  1
  O  O75  1  0.226268  0.672791  0.619281  1
  O  O76  1  0.457998  0.779515  0.619450  1
  O  O77  1  0.333112  0.547629  0.619233  1
  O  O78  1  0.378804  0.000000  0.549431  1
  O  O79  1  0.005721  0.372731  0.549432  1
  O  O80  1  0.632469  0.626771  0.549360  1
  O  O81  1  0.631945  0.000000  0.599590  1
  O  O82  1  0.005640  0.626335  0.599615  1
  O  O83  1  0.379347  0.373389  0.599590  1
  O  O84  1  0.219156  0.786090  0.574547  1
  O  O85  1  0.219555  0.427230  0.574506  1
  O  O86  1  0.578072  0.786223  0.574473  1
  O  O87  1  0.791810  0.213274  0.574535  1
  O  O88  1  0.433302  0.213901  0.574446  1
  O  O89  1  0.792205  0.572527  0.574446  1
  O  O90  1  0.438293  0.865823  0.574565  1
  O  O91  1  0.139387  0.566499  0.574544  1
  O  O92  1  0.438742  0.566830  0.574319  1
  O  O93  1  0.871998  0.432800  0.574434  1
  O  O94  1  0.572614  0.133944  0.574429  1
  O  O95  1  0.573083  0.433401  0.574646  1
  O  O96  1  0.674790  0.336238  0.484525  1
  O  O97  1  0.335933  0.664677  0.664522  1
  O  O98  1  0.674790  0.336238  0.664539  1
  Si  Si99  1  0.336238  0.861010  0.195293  1
  Si  Si100  1  0.144520  0.469300  0.195281  1
  Si  Si101  1  0.536095  0.669328  0.195134  1
  Si  Si102  1  0.866889  0.330241  0.195259  1
  Si  Si103  1  0.475360  0.138908  0.195182  1
  Si  Si104  1  0.674955  0.530346  0.195276  1
  Si  Si105  1  0.674519  0.138680  0.233693  1
  Si  Si106  1  0.866875  0.530025  0.233630  1
  Si  Si107  1  0.475638  0.330810  0.233740  1
  Si  Si108  1  0.144442  0.668887  0.233722  1
  Si  Si109  1  0.535612  0.860813  0.233716  1
  Si  Si110  1  0.336860  0.469757  0.233616  1
  Si  Si111  1  0.672695  0.333226  0.157388  1
  Si  Si112  1  0.338827  0.666549  0.157371  1
  Si  Si113  1  0.338828  0.666386  0.271603  1
  Si  Si114  1  0.672447  0.333325  0.271622  1
  Si  Si115  1  0.336238  0.861010  0.375307  1
  Si  Si116  1  0.144520  0.469300  0.375295  1
  Si  Si117  1  0.536095  0.669328  0.375148  1
  Si  Si118  1  0.866889  0.330241  0.375273  1
  Si  Si119  1  0.475360  0.138908  0.375196  1
  Si  Si120  1  0.674955  0.530346  0.375290  1
  Si  Si121  1  0.674519  0.138680  0.413707  1
  Si  Si122  1  0.866875  0.530025  0.413645  1
  Si  Si123  1  0.475638  0.330810  0.413754  1
  Si  Si124  1  0.144442  0.668887  0.413736  1
  Si  Si125  1  0.535612  0.860813  0.413730  1
  Si  Si126  1  0.336860  0.469757  0.413630  1
  Si  Si127  1  0.672695  0.333226  0.337402  1
  Si  Si128  1  0.338827  0.666549  0.337385  1
  Si  Si129  1  0.338828  0.666386  0.451617  1
  Si  Si130  1  0.672447  0.333325  0.451636  1
  Si  Si131  1  0.336238  0.861010  0.555321  1
  Si  Si132  1  0.144520  0.469300  0.555309  1
  Si  Si133  1  0.536095  0.669328  0.555162  1
  Si  Si134  1  0.866889  0.330241  0.555288  1
  Si  Si135  1  0.475360  0.138908  0.555210  1
  Si  Si136  1  0.674955  0.530346  0.555304  1
  Si  Si137  1  0.674519  0.138680  0.593721  1
  Si  Si138  1  0.866875  0.530025  0.593659  1
  Si  Si139  1  0.475638  0.330810  0.593769  1
  Si  Si140  1  0.144442  0.668887  0.593750  1
  Si  Si141  1  0.535612  0.860813  0.593744  1
  Si  Si142  1  0.336860  0.469757  0.593644  1
  Si  Si143  1  0.672695  0.333226  0.517416  1
  Si  Si144  1  0.338827  0.666549  0.517399  1
  Si  Si145  1  0.338828  0.666386  0.631631  1
  Si  Si146  1  0.672447  0.333325  0.631650  1
  H  H147  1  0.335933  0.664677  0.105491  1
  H  H148  1  0.674790  0.336238  0.105508  1
  H  H149  1  0.335933  0.664677  0.683510  1
  H  H150  1  0.674790  0.336238  0.683528  1
