# generated using pymatgen
data_Si16H2O33
_symmetry_space_group_name_H-M   'P 1'
_cell_length_a   13.66911044
_cell_length_b   8.35476497
_cell_length_c   60.00969582
_cell_angle_alpha   90.00000000
_cell_angle_beta   120.00000000
_cell_angle_gamma   90.00000000
_symmetry_Int_Tables_number   1
_chemical_formula_structural   Si16H2O33
_chemical_formula_sum   'Si64 H8 O132'
_cell_volume   5935.07958221
_cell_formula_units_Z   4
loop_
 _symmetry_equiv_pos_site_id
 _symmetry_equiv_pos_as_xyz
  1  'x, y, z'
loop_
 _atom_site_type_symbol
 _atom_site_label
 _atom_site_symmetry_multiplicity
 _atom_site_fract_x
 _atom_site_fract_y
 _atom_site_fract_z
 _atom_site_occupancy
  O  O1  1  0.336864  0.000000  0.167122  1
  O  O2  1  0.122721  -0.000000  0.213356  1
  O  O3  1  0.541704  0.000000  0.262908  1
  O  O4  1  0.662304  0.000000  0.185742  1
  O  O5  1  0.878720  0.000000  0.139269  1
  O  O6  1  0.540854  0.500109  0.213788  1
  O  O7  1  0.337987  0.500103  0.262683  1
  O  O8  1  0.121416  0.500093  0.166809  1
  O  O9  1  0.458547  0.500091  0.139540  1
  O  O10  1  0.878568  0.500110  0.185597  1
  O  O11  1  0.369501  0.248336  0.146388  1
  O  O12  1  -0.000000  0.249402  0.205813  1
  O  O13  1  0.630137  0.252393  0.289919  1
  O  O14  1  0.630615  0.251808  0.205832  1
  O  O15  1  0.000000  0.250245  0.146337  1
  O  O16  1  0.369065  0.248262  0.289904  1
  O  O17  1  0.630605  0.748447  0.205842  1
  O  O18  1  0.369060  0.751896  0.289914  1
  O  O19  1  -0.000000  0.749949  0.146345  1
  O  O20  1  0.369492  0.751811  0.146398  1
  O  O21  1  0.630132  0.747856  0.289929  1
  O  O22  1  -0.000000  0.750808  0.205822  1
  O  O23  1  0.215169  0.250643  0.160253  1
  O  O24  1  0.214859  0.251263  0.240922  1
  O  O25  1  0.569520  0.247505  0.240929  1
  O  O26  1  0.784748  0.249706  0.191965  1
  O  O27  1  0.784424  0.248928  0.111213  1
  O  O28  1  0.430160  0.252667  0.111207  1
  O  O29  1  0.569514  0.752665  0.240939  1
  O  O30  1  0.214855  0.748952  0.240931  1
  O  O31  1  0.215158  0.749578  0.160262  1
  O  O32  1  0.430152  0.747569  0.111217  1
  O  O33  1  0.784420  0.751264  0.111223  1
  O  O34  1  0.784736  0.750476  0.191973  1
  O  O35  1  0.425769  0.250921  0.193025  1
  O  O36  1  0.148258  0.249881  0.192985  1
  O  O37  1  0.425442  0.250263  0.256114  1
  O  O38  1  0.574239  0.249562  0.159208  1
  O  O39  1  0.851358  0.250692  0.159191  1
  O  O40  1  0.425762  0.749303  0.193035  1
  O  O41  1  0.425435  0.749977  0.256124  1
  O  O42  1  0.148250  0.750265  0.192994  1
  O  O43  1  0.574231  0.750617  0.159218  1
  O  O44  1  0.851350  0.749567  0.159200  1
  O  O45  1  0.336864  0.000000  0.394840  1
  O  O46  1  0.122721  -0.000000  0.441074  1
  O  O47  1  0.541704  0.000000  0.490625  1
  O  O48  1  0.662304  0.000000  0.413459  1
  O  O49  1  0.878720  0.000000  0.366987  1
  O  O50  1  0.458911  0.000000  0.318325  1
  O  O51  1  0.540854  0.500109  0.441505  1
  O  O52  1  0.337987  0.500103  0.490400  1
  O  O53  1  0.121416  0.500093  0.394526  1
  O  O54  1  0.458547  0.500091  0.367257  1
  O  O55  1  0.663370  0.500102  0.318261  1
  O  O56  1  0.878568  0.500110  0.413314  1
  O  O57  1  0.369501  0.248336  0.374106  1
  O  O58  1  0.000000  0.249402  0.433530  1
  O  O59  1  0.630137  0.252393  0.517636  1
  O  O60  1  0.630615  0.251808  0.433549  1
  O  O61  1  0.000000  0.250245  0.374054  1
  O  O62  1  0.369065  0.248262  0.517622  1
  O  O63  1  0.630605  0.748447  0.433559  1
  O  O64  1  0.369060  0.751896  0.517632  1
  O  O65  1  0.000000  0.749949  0.374063  1
  O  O66  1  0.369492  0.751811  0.374116  1
  O  O67  1  0.630132  0.747856  0.517646  1
  O  O68  1  0.000000  0.750808  0.433539  1
  O  O69  1  0.215169  0.250643  0.387971  1
  O  O70  1  0.214859  0.251263  0.468639  1
  O  O71  1  0.569520  0.247505  0.468646  1
  O  O72  1  0.784748  0.249706  0.419682  1
  O  O73  1  0.784424  0.248928  0.338930  1
  O  O74  1  0.430160  0.252667  0.338924  1
  O  O75  1  0.569514  0.752665  0.468657  1
  O  O76  1  0.214855  0.748952  0.468648  1
  O  O77  1  0.215158  0.749578  0.387979  1
  O  O78  1  0.430152  0.747569  0.338935  1
  O  O79  1  0.784420  0.751264  0.338940  1
  O  O80  1  0.784736  0.750476  0.419691  1
  O  O81  1  0.425769  0.250921  0.420742  1
  O  O82  1  0.148258  0.249881  0.420702  1
  O  O83  1  0.425442  0.250263  0.483832  1
  O  O84  1  0.574239  0.249562  0.386925  1
  O  O85  1  0.851358  0.250692  0.386908  1
  O  O86  1  0.573890  0.249346  0.323751  1
  O  O87  1  0.425762  0.749303  0.420752  1
  O  O88  1  0.425435  0.749977  0.483842  1
  O  O89  1  0.148250  0.750265  0.420711  1
  O  O90  1  0.574231  0.750617  0.386935  1
  O  O91  1  0.573883  0.750822  0.323761  1
  O  O92  1  0.851350  0.749567  0.386918  1
  O  O93  1  0.336864  0.000000  0.622557  1
  O  O94  1  0.122721  -0.000000  0.668791  1
  O  O95  1  0.662304  0.000000  0.641177  1
  O  O96  1  0.878720  0.000000  0.594704  1
  O  O97  1  0.458911  0.000000  0.546042  1
  O  O98  1  0.540854  0.500109  0.669223  1
  O  O99  1  0.121416  0.500093  0.622244  1
  O  O100  1  0.458547  0.500091  0.594974  1
  O  O101  1  0.663370  0.500102  0.545978  1
  O  O102  1  0.878568  0.500110  0.641032  1
  O  O103  1  0.369501  0.248336  0.601823  1
  O  O104  1  0.000000  0.249402  0.661247  1
  O  O105  1  0.630615  0.251808  0.661266  1
  O  O106  1  0.000000  0.250245  0.601771  1
  O  O107  1  0.630605  0.748447  0.661276  1
  O  O108  1  0.000000  0.749949  0.601780  1
  O  O109  1  0.369492  0.751811  0.601833  1
  O  O110  1  0.000000  0.750808  0.661256  1
  O  O111  1  0.215169  0.250643  0.615688  1
  O  O112  1  0.214859  0.251263  0.696356  1
  O  O113  1  0.569520  0.247505  0.696363  1
  O  O114  1  0.784748  0.249706  0.647399  1
  O  O115  1  0.784424  0.248928  0.566648  1
  O  O116  1  0.430160  0.252667  0.566642  1
  O  O117  1  0.569514  0.752665  0.696374  1
  O  O118  1  0.214855  0.748952  0.696366  1
  O  O119  1  0.215158  0.749578  0.615697  1
  O  O120  1  0.430152  0.747569  0.566652  1
  O  O121  1  0.784420  0.751264  0.566657  1
  O  O122  1  0.784736  0.750476  0.647408  1
  O  O123  1  0.425769  0.250921  0.648459  1
  O  O124  1  0.148258  0.249881  0.648420  1
  O  O125  1  0.574239  0.249562  0.614642  1
  O  O126  1  0.851358  0.250692  0.614626  1
  O  O127  1  0.573890  0.249346  0.551468  1
  O  O128  1  0.425762  0.749303  0.648470  1
  O  O129  1  0.148250  0.750265  0.648429  1
  O  O130  1  0.574231  0.750617  0.614652  1
  O  O131  1  0.573883  0.750822  0.551478  1
  O  O132  1  0.851350  0.749567  0.614635  1
  Si  Si133  1  0.333424  0.186590  0.166018  1
  Si  Si134  1  0.121811  0.186649  0.214046  1
  Si  Si135  1  0.544520  0.186621  0.262298  1
  Si  Si136  1  0.666517  0.186670  0.186346  1
  Si  Si137  1  0.878023  0.186609  0.138205  1
  Si  Si138  1  0.544740  0.686671  0.214145  1
  Si  Si139  1  0.333293  0.686652  0.262262  1
  Si  Si140  1  0.121675  0.686598  0.165925  1
  Si  Si141  1  0.455270  0.686595  0.138287  1
  Si  Si142  1  0.878044  0.686676  0.186321  1
  Si  Si143  1  0.666509  0.813535  0.186353  1
  Si  Si144  1  0.878018  0.813604  0.138213  1
  Si  Si145  1  0.333416  0.813606  0.166025  1
  Si  Si146  1  0.121806  0.813543  0.214053  1
  Si  Si147  1  0.544514  0.813598  0.262307  1
  Si  Si148  1  0.455277  0.313592  0.138279  1
  Si  Si149  1  0.878052  0.313539  0.186314  1
  Si  Si150  1  0.544745  0.313545  0.214137  1
  Si  Si151  1  0.333297  0.313550  0.262254  1
  Si  Si152  1  0.121683  0.313589  0.165918  1
  Si  Si153  1  0.333424  0.186590  0.393735  1
  Si  Si154  1  0.121811  0.186649  0.441763  1
  Si  Si155  1  0.544520  0.186621  0.490016  1
  Si  Si156  1  0.666517  0.186670  0.414063  1
  Si  Si157  1  0.878023  0.186609  0.365922  1
  Si  Si158  1  0.454950  0.186652  0.317775  1
  Si  Si159  1  0.544740  0.686671  0.441863  1
  Si  Si160  1  0.333293  0.686652  0.489979  1
  Si  Si161  1  0.121675  0.686598  0.393643  1
  Si  Si162  1  0.455270  0.686595  0.366004  1
  Si  Si163  1  0.666299  0.686597  0.317803  1
  Si  Si164  1  0.878044  0.686676  0.414038  1
  Si  Si165  1  0.666509  0.813535  0.414071  1
  Si  Si166  1  0.878018  0.813604  0.365930  1
  Si  Si167  1  0.454944  0.813534  0.317784  1
  Si  Si168  1  0.333416  0.813606  0.393742  1
  Si  Si169  1  0.121806  0.813543  0.441770  1
  Si  Si170  1  0.544514  0.813598  0.490024  1
  Si  Si171  1  0.455277  0.313592  0.365996  1
  Si  Si172  1  0.666303  0.313605  0.317796  1
  Si  Si173  1  0.878052  0.313539  0.414031  1
  Si  Si174  1  0.544745  0.313545  0.441854  1
  Si  Si175  1  0.333297  0.313550  0.489972  1
  Si  Si176  1  0.121683  0.313589  0.393636  1
  Si  Si177  1  0.333424  0.186590  0.621452  1
  Si  Si178  1  0.121811  0.186649  0.669480  1
  Si  Si179  1  0.666517  0.186670  0.641781  1
  Si  Si180  1  0.878023  0.186609  0.593640  1
  Si  Si181  1  0.454950  0.186652  0.545493  1
  Si  Si182  1  0.544740  0.686671  0.669580  1
  Si  Si183  1  0.121675  0.686598  0.621360  1
  Si  Si184  1  0.455270  0.686595  0.593722  1
  Si  Si185  1  0.666299  0.686597  0.545520  1
  Si  Si186  1  0.878044  0.686676  0.641755  1
  Si  Si187  1  0.666509  0.813535  0.641788  1
  Si  Si188  1  0.878018  0.813604  0.593647  1
  Si  Si189  1  0.454944  0.813534  0.545501  1
  Si  Si190  1  0.333416  0.813606  0.621460  1
  Si  Si191  1  0.121806  0.813543  0.669487  1
  Si  Si192  1  0.455277  0.313592  0.593714  1
  Si  Si193  1  0.666303  0.313605  0.545513  1
  Si  Si194  1  0.878052  0.313539  0.641748  1
  Si  Si195  1  0.544745  0.313545  0.669572  1
  Si  Si196  1  0.121683  0.313589  0.621353  1
  H  H197  1  0.784424  0.248928  0.096216  1
  H  H198  1  0.430160  0.252667  0.096209  1
  H  H199  1  0.430152  0.747569  0.096220  1
  H  H200  1  0.784420  0.751264  0.096225  1
  H  H201  1  0.214859  0.251263  0.711354  1
  H  H202  1  0.569520  0.247505  0.711361  1
  H  H203  1  0.569514  0.752665  0.711372  1
  H  H204  1  0.214855  0.748952  0.711363  1
