# generated using pymatgen
data_Si26H2O53
_symmetry_space_group_name_H-M   'P 1'
_cell_length_a   8.32030442
_cell_length_b   13.45714247
_cell_length_c   69.98512210
_cell_angle_alpha   90.00000000
_cell_angle_beta   90.00000000
_cell_angle_gamma   90.00000000
_symmetry_Int_Tables_number   1
_chemical_formula_structural   Si26H2O53
_chemical_formula_sum   'Si104 H8 O212'
_cell_volume   7836.06069675
_cell_formula_units_Z   4
loop_
 _symmetry_equiv_pos_site_id
 _symmetry_equiv_pos_as_xyz
  1  'x, y, z'
loop_
 _atom_site_type_symbol
 _atom_site_label
 _atom_site_symmetry_multiplicity
 _atom_site_fract_x
 _atom_site_fract_y
 _atom_site_fract_z
 _atom_site_occupancy
  O  O1  1  0.735034  0.382462  0.178384  1
  O  O2  1  0.264732  0.382443  0.178387  1
  O  O3  1  0.235487  0.882462  0.156941  1
  O  O4  1  0.738053  0.382066  0.287156  1
  O  O5  1  0.764324  0.882483  0.156940  1
  O  O6  1  0.261577  0.382027  0.287158  1
  O  O7  1  0.757642  0.116458  0.287035  1
  O  O8  1  0.255041  0.617338  0.156706  1
  O  O9  1  0.242291  0.116430  0.287037  1
  O  O10  1  0.744705  0.617356  0.156702  1
  O  O11  1  0.755752  0.117362  0.178633  1
  O  O12  1  0.244020  0.117344  0.178635  1
  O  O13  1  0.251308  0.749039  0.283515  1
  O  O14  1  0.751527  0.249601  0.152847  1
  O  O15  1  0.748509  0.749075  0.283516  1
  O  O16  1  0.248259  0.249583  0.152849  1
  O  O17  1  0.251298  0.749669  0.182481  1
  O  O18  1  0.748466  0.749689  0.182477  1
  O  O19  1  0.264318  0.940824  0.275367  1
  O  O20  1  0.764499  0.441876  0.144769  1
  O  O21  1  0.735675  0.940838  0.275364  1
  O  O22  1  0.235229  0.441857  0.144773  1
  O  O23  1  0.264523  0.941940  0.190558  1
  O  O24  1  0.735291  0.941959  0.190557  1
  O  O25  1  0.240697  0.557206  0.190432  1
  O  O26  1  0.759091  0.557226  0.190428  1
  O  O27  1  0.739713  0.057179  0.144928  1
  O  O28  1  0.237050  0.557185  0.275493  1
  O  O29  1  0.260068  0.057164  0.144931  1
  O  O30  1  0.762669  0.557232  0.275490  1
  O  O31  1  0.000000  0.861093  0.286442  1
  O  O32  1  0.499879  0.361472  0.155539  1
  O  O33  1  -0.000000  0.861738  0.179734  1
  O  O34  1  0.499883  0.636757  0.177978  1
  O  O35  1  -0.000000  0.136344  0.157211  1
  O  O36  1  0.499871  0.635358  0.287383  1
  O  O37  1  0.759576  0.085527  0.251043  1
  O  O38  1  0.261962  0.587526  0.120731  1
  O  O39  1  0.240321  0.085514  0.251048  1
  O  O40  1  0.737798  0.587564  0.120728  1
  O  O41  1  0.761212  0.087674  0.214621  1
  O  O42  1  0.259222  0.585624  0.084308  1
  O  O43  1  0.238623  0.087635  0.214625  1
  O  O44  1  0.740439  0.585641  0.084305  1
  O  O45  1  0.251936  0.911680  0.084305  1
  O  O46  1  0.759915  0.409520  0.214644  1
  O  O47  1  0.747998  0.911734  0.084304  1
  O  O48  1  0.239791  0.409496  0.214648  1
  O  O49  1  0.257444  0.909858  0.120701  1
  O  O50  1  0.748222  0.412240  0.251044  1
  O  O51  1  0.742377  0.909857  0.120700  1
  O  O52  1  0.251460  0.412190  0.251048  1
  O  O53  1  0.499982  0.062495  0.270570  1
  O  O54  1  0.000000  0.563477  0.139688  1
  O  O55  1  0.499902  0.063648  0.195508  1
  O  O56  1  0.000000  0.438822  0.192404  1
  O  O57  1  0.499901  0.937945  0.142641  1
  O  O58  1  0.000000  0.436096  0.271827  1
  O  O59  1  0.265859  0.248513  0.233220  1
  O  O60  1  0.766341  0.748515  0.102216  1
  O  O61  1  0.733975  0.248543  0.233219  1
  O  O62  1  0.233398  0.748490  0.102224  1
  O  O63  1  0.000000  0.157170  0.233141  1
  O  O64  1  0.499855  0.657575  0.102128  1
  O  O65  1  0.000000  0.868793  0.103028  1
  O  O66  1  0.499867  0.368109  0.231699  1
  O  O67  1  0.236931  0.882054  0.309036  1
  O  O68  1  0.735034  0.382462  0.439264  1
  O  O69  1  0.763047  0.882085  0.309037  1
  O  O70  1  0.264732  0.382443  0.439267  1
  O  O71  1  0.235487  0.882462  0.417822  1
  O  O72  1  0.738053  0.382066  0.548036  1
  O  O73  1  0.764324  0.882483  0.417820  1
  O  O74  1  0.261577  0.382027  0.548038  1
  O  O75  1  0.757642  0.116458  0.547916  1
  O  O76  1  0.255041  0.617338  0.417587  1
  O  O77  1  0.242291  0.116430  0.547917  1
  O  O78  1  0.744705  0.617356  0.417583  1
  O  O79  1  0.755752  0.117362  0.439513  1
  O  O80  1  0.257602  0.616461  0.309192  1
  O  O81  1  0.244020  0.117344  0.439516  1
  O  O82  1  0.742099  0.616495  0.309191  1
  O  O83  1  0.251308  0.749039  0.544395  1
  O  O84  1  0.751527  0.249601  0.413728  1
  O  O85  1  0.748509  0.749075  0.544396  1
  O  O86  1  0.248259  0.249583  0.413730  1
  O  O87  1  0.251298  0.749669  0.443361  1
  O  O88  1  0.750484  0.249152  0.312692  1
  O  O89  1  0.748466  0.749689  0.443358  1
  O  O90  1  0.249325  0.249119  0.312697  1
  O  O91  1  0.264318  0.940824  0.536248  1
  O  O92  1  0.764499  0.441876  0.405649  1
  O  O93  1  0.735675  0.940838  0.536245  1
  O  O94  1  0.235229  0.441857  0.405654  1
  O  O95  1  0.264523  0.941940  0.451439  1
  O  O96  1  0.764040  0.440907  0.320839  1
  O  O97  1  0.735291  0.941959  0.451438  1
  O  O98  1  0.235609  0.440894  0.320845  1
  O  O99  1  0.738145  0.057231  0.320748  1
  O  O100  1  0.240697  0.557206  0.451313  1
  O  O101  1  0.261731  0.057182  0.320756  1
  O  O102  1  0.759091  0.557226  0.451308  1
  O  O103  1  0.739713  0.057179  0.405809  1
  O  O104  1  0.237050  0.557185  0.536374  1
  O  O105  1  0.260068  0.057164  0.405811  1
  O  O106  1  0.762669  0.557232  0.536370  1
  O  O107  1  -0.000000  0.861093  0.547323  1
  O  O108  1  0.499879  0.361472  0.416419  1
  O  O109  1  0.000000  0.861738  0.440614  1
  O  O110  1  0.499829  0.361820  0.309577  1
  O  O111  1  0.000000  0.136165  0.308799  1
  O  O112  1  0.499883  0.636757  0.438858  1
  O  O113  1  -0.000000  0.136344  0.418092  1
  O  O114  1  0.499871  0.635358  0.548264  1
  O  O115  1  0.759576  0.085527  0.511924  1
  O  O116  1  0.261962  0.587526  0.381612  1
  O  O117  1  0.240321  0.085514  0.511928  1
  O  O118  1  0.737798  0.587564  0.381608  1
  O  O119  1  0.761212  0.087674  0.475502  1
  O  O120  1  0.259222  0.585624  0.345189  1
  O  O121  1  0.238623  0.087635  0.475505  1
  O  O122  1  0.740439  0.585641  0.345186  1
  O  O123  1  0.251936  0.911680  0.345186  1
  O  O124  1  0.759915  0.409520  0.475524  1
  O  O125  1  0.747998  0.911734  0.345184  1
  O  O126  1  0.239791  0.409496  0.475528  1
  O  O127  1  0.257444  0.909858  0.381582  1
  O  O128  1  0.748222  0.412240  0.511924  1
  O  O129  1  0.742377  0.909857  0.381581  1
  O  O130  1  0.251460  0.412190  0.511928  1
  O  O131  1  0.499982  0.062495  0.531451  1
  O  O132  1  0.000000  0.563477  0.400569  1
  O  O133  1  0.499902  0.063648  0.456389  1
  O  O134  1  -0.000000  0.562480  0.325620  1
  O  O135  1  0.499981  0.936755  0.323897  1
  O  O136  1  -0.000000  0.438822  0.453285  1
  O  O137  1  0.499901  0.937945  0.403521  1
  O  O138  1  0.000000  0.436096  0.532708  1
  O  O139  1  0.265859  0.248513  0.494101  1
  O  O140  1  0.766341  0.748515  0.363097  1
  O  O141  1  0.733975  0.248543  0.494099  1
  O  O142  1  0.233398  0.748490  0.363105  1
  O  O143  1  -0.000000  0.157170  0.494021  1
  O  O144  1  0.499855  0.657575  0.363008  1
  O  O145  1  -0.000000  0.868793  0.363909  1
  O  O146  1  0.499867  0.368109  0.492579  1
  O  O147  1  0.236931  0.882054  0.569917  1
  O  O148  1  0.735034  0.382462  0.700145  1
  O  O149  1  0.763047  0.882085  0.569918  1
  O  O150  1  0.264732  0.382443  0.700148  1
  O  O151  1  0.235487  0.882462  0.678702  1
  O  O152  1  0.764324  0.882483  0.678701  1
  O  O153  1  0.255041  0.617338  0.678467  1
  O  O154  1  0.744705  0.617356  0.678463  1
  O  O155  1  0.755752  0.117362  0.700394  1
  O  O156  1  0.257602  0.616461  0.570073  1
  O  O157  1  0.244020  0.117344  0.700396  1
  O  O158  1  0.742099  0.616495  0.570072  1
  O  O159  1  0.751527  0.249601  0.674608  1
  O  O160  1  0.248259  0.249583  0.674611  1
  O  O161  1  0.251298  0.749669  0.704242  1
  O  O162  1  0.750484  0.249152  0.573572  1
  O  O163  1  0.748466  0.749689  0.704238  1
  O  O164  1  0.249325  0.249119  0.573577  1
  O  O165  1  0.764499  0.441876  0.666530  1
  O  O166  1  0.235229  0.441857  0.666534  1
  O  O167  1  0.264523  0.941940  0.712319  1
  O  O168  1  0.764040  0.440907  0.581719  1
  O  O169  1  0.735291  0.941959  0.712318  1
  O  O170  1  0.235609  0.440894  0.581726  1
  O  O171  1  0.738145  0.057231  0.581629  1
  O  O172  1  0.240697  0.557206  0.712193  1
  O  O173  1  0.261731  0.057182  0.581637  1
  O  O174  1  0.759091  0.557226  0.712189  1
  O  O175  1  0.739713  0.057179  0.666690  1
  O  O176  1  0.260068  0.057164  0.666692  1
  O  O177  1  0.499879  0.361472  0.677300  1
  O  O178  1  0.000000  0.861738  0.701495  1
  O  O179  1  0.499829  0.361820  0.570458  1
  O  O180  1  -0.000000  0.136165  0.569680  1
  O  O181  1  0.499883  0.636757  0.699739  1
  O  O182  1  0.000000  0.136344  0.678973  1
  O  O183  1  0.759576  0.085527  0.772804  1
  O  O184  1  0.261962  0.587526  0.642492  1
  O  O185  1  0.240321  0.085514  0.772809  1
  O  O186  1  0.737798  0.587564  0.642489  1
  O  O187  1  0.761212  0.087674  0.736382  1
  O  O188  1  0.259222  0.585624  0.606070  1
  O  O189  1  0.238623  0.087635  0.736386  1
  O  O190  1  0.740439  0.585641  0.606066  1
  O  O191  1  0.251936  0.911680  0.606066  1
  O  O192  1  0.759915  0.409520  0.736405  1
  O  O193  1  0.747998  0.911734  0.606065  1
  O  O194  1  0.239791  0.409496  0.736409  1
  O  O195  1  0.257444  0.909858  0.642462  1
  O  O196  1  0.748222  0.412240  0.772805  1
  O  O197  1  0.742377  0.909857  0.642462  1
  O  O198  1  0.251460  0.412190  0.772809  1
  O  O199  1  0.000000  0.563477  0.661449  1
  O  O200  1  0.499902  0.063648  0.717269  1
  O  O201  1  0.000000  0.562480  0.586500  1
  O  O202  1  0.499981  0.936755  0.584778  1
  O  O203  1  -0.000000  0.438822  0.714165  1
  O  O204  1  0.499901  0.937945  0.664402  1
  O  O205  1  0.265859  0.248513  0.754982  1
  O  O206  1  0.766341  0.748515  0.623977  1
  O  O207  1  0.733975  0.248543  0.754980  1
  O  O208  1  0.233398  0.748490  0.623985  1
  O  O209  1  0.000000  0.157170  0.754902  1
  O  O210  1  0.499855  0.657575  0.623889  1
  O  O211  1  0.000000  0.868793  0.624789  1
  O  O212  1  0.499867  0.368109  0.753460  1
  Si  Si213  1  0.187128  0.856333  0.287926  1
  Si  Si214  1  0.686948  0.356942  0.157195  1
  Si  Si215  1  0.812814  0.856342  0.287926  1
  Si  Si216  1  0.312814  0.356928  0.157197  1
  Si  Si217  1  0.186977  0.857063  0.178117  1
  Si  Si218  1  0.812816  0.857077  0.178116  1
  Si  Si219  1  0.312583  0.642299  0.177549  1
  Si  Si220  1  0.687183  0.642317  0.177546  1
  Si  Si221  1  0.812607  0.142164  0.157755  1
  Si  Si222  1  0.312583  0.641490  0.288251  1
  Si  Si223  1  0.187172  0.142148  0.157757  1
  Si  Si224  1  0.687156  0.641539  0.288249  1
  Si  Si225  1  0.686824  0.050976  0.270487  1
  Si  Si226  1  0.186679  0.552162  0.139979  1
  Si  Si227  1  0.313138  0.050966  0.270488  1
  Si  Si228  1  0.813061  0.552179  0.139975  1
  Si  Si229  1  0.686705  0.052282  0.195336  1
  Si  Si230  1  0.313102  0.052264  0.195337  1
  Si  Si231  1  0.813575  0.447146  0.194588  1
  Si  Si232  1  0.186180  0.447129  0.194591  1
  Si  Si233  1  0.313530  0.946997  0.140689  1
  Si  Si234  1  0.813213  0.447109  0.270805  1
  Si  Si235  1  0.686272  0.947007  0.140687  1
  Si  Si236  1  0.186442  0.447076  0.270806  1
  Si  Si237  1  0.185853  0.144181  0.232992  1
  Si  Si238  1  0.685771  0.644325  0.102352  1
  Si  Si239  1  0.813997  0.144214  0.232988  1
  Si  Si240  1  0.313949  0.644294  0.102355  1
  Si  Si241  1  0.813913  0.860074  0.102554  1
  Si  Si242  1  0.313905  0.359967  0.232681  1
  Si  Si243  1  0.185919  0.860063  0.102555  1
  Si  Si244  1  0.685834  0.359983  0.232678  1
  Si  Si245  1  0.187128  0.856333  0.548807  1
  Si  Si246  1  0.686948  0.356942  0.418075  1
  Si  Si247  1  0.812814  0.856342  0.548807  1
  Si  Si248  1  0.312814  0.356928  0.418078  1
  Si  Si249  1  0.186977  0.857063  0.438997  1
  Si  Si250  1  0.687017  0.356564  0.308227  1
  Si  Si251  1  0.812816  0.857077  0.438996  1
  Si  Si252  1  0.312651  0.356561  0.308231  1
  Si  Si253  1  0.812640  0.141769  0.307961  1
  Si  Si254  1  0.312583  0.642299  0.438430  1
  Si  Si255  1  0.187259  0.141715  0.307964  1
  Si  Si256  1  0.687183  0.642317  0.438426  1
  Si  Si257  1  0.812607  0.142164  0.418635  1
  Si  Si258  1  0.312583  0.641490  0.549131  1
  Si  Si259  1  0.187172  0.142148  0.418637  1
  Si  Si260  1  0.687156  0.641539  0.549130  1
  Si  Si261  1  0.686824  0.050976  0.531367  1
  Si  Si262  1  0.186679  0.552162  0.400860  1
  Si  Si263  1  0.313138  0.050966  0.531369  1
  Si  Si264  1  0.813061  0.552179  0.400856  1
  Si  Si265  1  0.686705  0.052282  0.456216  1
  Si  Si266  1  0.186671  0.551009  0.325740  1
  Si  Si267  1  0.313102  0.052264  0.456217  1
  Si  Si268  1  0.812981  0.551014  0.325737  1
  Si  Si269  1  0.313440  0.947098  0.325307  1
  Si  Si270  1  0.813575  0.447146  0.455469  1
  Si  Si271  1  0.686512  0.947142  0.325305  1
  Si  Si272  1  0.186180  0.447129  0.455471  1
  Si  Si273  1  0.313530  0.946997  0.401570  1
  Si  Si274  1  0.813213  0.447109  0.531685  1
  Si  Si275  1  0.686272  0.947007  0.401567  1
  Si  Si276  1  0.186442  0.447076  0.531687  1
  Si  Si277  1  0.185853  0.144181  0.493872  1
  Si  Si278  1  0.685771  0.644325  0.363233  1
  Si  Si279  1  0.813997  0.144214  0.493868  1
  Si  Si280  1  0.313949  0.644294  0.363235  1
  Si  Si281  1  0.813913  0.860074  0.363434  1
  Si  Si282  1  0.313905  0.359967  0.493561  1
  Si  Si283  1  0.185919  0.860063  0.363436  1
  Si  Si284  1  0.685834  0.359983  0.493558  1
  Si  Si285  1  0.686948  0.356942  0.678956  1
  Si  Si286  1  0.312814  0.356928  0.678959  1
  Si  Si287  1  0.186977  0.857063  0.699878  1
  Si  Si288  1  0.687017  0.356564  0.569108  1
  Si  Si289  1  0.812816  0.857077  0.699877  1
  Si  Si290  1  0.312651  0.356561  0.569112  1
  Si  Si291  1  0.812640  0.141769  0.568842  1
  Si  Si292  1  0.312583  0.642299  0.699310  1
  Si  Si293  1  0.187259  0.141715  0.568845  1
  Si  Si294  1  0.687183  0.642317  0.699307  1
  Si  Si295  1  0.812607  0.142164  0.679516  1
  Si  Si296  1  0.187172  0.142148  0.679518  1
  Si  Si297  1  0.186679  0.552162  0.661740  1
  Si  Si298  1  0.813061  0.552179  0.661736  1
  Si  Si299  1  0.686705  0.052282  0.717097  1
  Si  Si300  1  0.186671  0.551009  0.586620  1
  Si  Si301  1  0.313102  0.052264  0.717098  1
  Si  Si302  1  0.812981  0.551014  0.586618  1
  Si  Si303  1  0.313440  0.947098  0.586188  1
  Si  Si304  1  0.813575  0.447146  0.716349  1
  Si  Si305  1  0.686512  0.947142  0.586185  1
  Si  Si306  1  0.186180  0.447129  0.716352  1
  Si  Si307  1  0.313530  0.946997  0.662450  1
  Si  Si308  1  0.686272  0.947007  0.662448  1
  Si  Si309  1  0.185853  0.144181  0.754753  1
  Si  Si310  1  0.685771  0.644325  0.624113  1
  Si  Si311  1  0.813997  0.144214  0.754749  1
  Si  Si312  1  0.313949  0.644294  0.624116  1
  Si  Si313  1  0.813913  0.860074  0.624315  1
  Si  Si314  1  0.313905  0.359967  0.754442  1
  Si  Si315  1  0.185919  0.860063  0.624317  1
  Si  Si316  1  0.685834  0.359983  0.754439  1
  H  H317  1  0.259222  0.585624  0.071448  1
  H  H318  1  0.740439  0.585641  0.071445  1
  H  H319  1  0.251936  0.911680  0.071445  1
  H  H320  1  0.747998  0.911734  0.071444  1
  H  H321  1  0.759576  0.085527  0.785664  1
  H  H322  1  0.240321  0.085514  0.785669  1
  H  H323  1  0.748222  0.412240  0.785665  1
  H  H324  1  0.251460  0.412190  0.785669  1
