# generated using pymatgen
data_Si9(HO5)4
_symmetry_space_group_name_H-M   'P 1'
_cell_length_a   8.49308350
_cell_length_b   14.48572599
_cell_length_c   28.34114334
_cell_angle_alpha   90.00000000
_cell_angle_beta   90.00000000
_cell_angle_gamma   90.00000000
_symmetry_Int_Tables_number   1
_chemical_formula_structural   Si9(HO5)4
_chemical_formula_sum   'Si18 H8 O40'
_cell_volume   3486.76779765
_cell_formula_units_Z   2
loop_
 _symmetry_equiv_pos_site_id
 _symmetry_equiv_pos_as_xyz
  1  'x, y, z'
loop_
 _atom_site_type_symbol
 _atom_site_label
 _atom_site_symmetry_multiplicity
 _atom_site_fract_x
 _atom_site_fract_y
 _atom_site_fract_z
 _atom_site_occupancy
  O  O1  1  0.589889  0.319704  0.208181  1
  O  O2  1  0.114822  0.319703  0.296610  1
  O  O3  1  0.409899  0.319706  0.438978  1
  O  O4  1  0.884964  0.319707  0.350550  1
  O  O5  1  0.589887  0.819703  0.438975  1
  O  O6  1  0.114820  0.819703  0.350545  1
  O  O7  1  0.409897  0.819707  0.208178  1
  O  O8  1  0.884963  0.819706  0.296606  1
  O  O9  1  0.409893  0.680267  0.438975  1
  O  O10  1  0.884959  0.680268  0.350546  1
  O  O11  1  0.589883  0.680265  0.208179  1
  O  O12  1  0.114816  0.680264  0.296606  1
  O  O13  1  0.409896  0.180268  0.208181  1
  O  O14  1  0.884960  0.180267  0.296610  1
  O  O15  1  0.589885  0.180264  0.438978  1
  O  O16  1  0.114819  0.180264  0.350550  1
  O  O17  1  0.416842  0.000000  0.235081  1
  O  O18  1  0.204586  0.000000  0.348466  1
  O  O19  1  0.582939  0.000000  0.412075  1
  O  O20  1  0.795196  0.000000  0.298690  1
  O  O21  1  0.416842  0.499987  0.412075  1
  O  O22  1  0.204586  0.499982  0.298690  1
  O  O23  1  0.582939  0.499984  0.235081  1
  O  O24  1  0.795195  0.499987  0.348466  1
  O  O25  1  0.317576  0.119939  0.293271  1
  O  O26  1  0.398749  0.119937  0.378215  1
  O  O27  1  0.682202  0.119939  0.353889  1
  O  O28  1  0.601030  0.119941  0.268944  1
  O  O29  1  0.317576  0.619939  0.353886  1
  O  O30  1  0.398749  0.619937  0.268941  1
  O  O31  1  0.682199  0.619940  0.293267  1
  O  O32  1  0.601026  0.619941  0.378212  1
  O  O33  1  0.682204  0.880031  0.353886  1
  O  O34  1  0.601031  0.880034  0.268940  1
  O  O35  1  0.317580  0.880032  0.293267  1
  O  O36  1  0.398754  0.880029  0.378212  1
  O  O37  1  0.682207  0.380032  0.293270  1
  O  O38  1  0.601034  0.380034  0.378215  1
  O  O39  1  0.317581  0.380031  0.353889  1
  O  O40  1  0.398753  0.380030  0.268944  1
  Si  Si41  1  0.428265  0.105954  0.249359  1
  Si  Si42  1  0.252226  0.105950  0.345044  1
  Si  Si43  1  0.571513  0.105950  0.397800  1
  Si  Si44  1  0.747553  0.105953  0.302115  1
  Si  Si45  1  0.428264  0.605952  0.397797  1
  Si  Si46  1  0.252224  0.605950  0.302112  1
  Si  Si47  1  0.571511  0.605951  0.249356  1
  Si  Si48  1  0.747552  0.605954  0.345041  1
  Si  Si49  1  0.571516  0.894017  0.397796  1
  Si  Si50  1  0.747555  0.894021  0.302112  1
  Si  Si51  1  0.428268  0.894021  0.249356  1
  Si  Si52  1  0.252228  0.894018  0.345040  1
  Si  Si53  1  0.571517  0.394018  0.249359  1
  Si  Si54  1  0.747557  0.394021  0.345043  1
  Si  Si55  1  0.428269  0.394020  0.397800  1
  Si  Si56  1  0.252230  0.394017  0.302115  1
  Si  Si57  1  0.000000  0.249985  0.323581  1
  Si  Si58  1  0.000000  0.749985  0.323575  1
  H  H59  1  0.589889  0.319704  0.176425  1
  H  H60  1  0.409899  0.319706  0.470734  1
  H  H61  1  0.589887  0.819703  0.470731  1
  H  H62  1  0.409897  0.819707  0.176422  1
  H  H63  1  0.409893  0.680267  0.470731  1
  H  H64  1  0.589883  0.680265  0.176423  1
  H  H65  1  0.409896  0.180268  0.176425  1
  H  H66  1  0.589885  0.180264  0.470734  1
