# generated using pymatgen
data_Si18H2O37
_symmetry_space_group_name_H-M   'P 1'
_cell_length_a   9.64820297
_cell_length_b   7.59048876
_cell_length_c   49.82358384
_cell_angle_alpha   90.00000000
_cell_angle_beta   90.00000000
_cell_angle_gamma   90.00000000
_symmetry_Int_Tables_number   1
_chemical_formula_structural   Si18H2O37
_chemical_formula_sum   'Si36 H4 O74'
_cell_volume   3648.80904698
_cell_formula_units_Z   2
loop_
 _symmetry_equiv_pos_site_id
 _symmetry_equiv_pos_as_xyz
  1  'x, y, z'
loop_
 _atom_site_type_symbol
 _atom_site_label
 _atom_site_symmetry_multiplicity
 _atom_site_fract_x
 _atom_site_fract_y
 _atom_site_fract_z
 _atom_site_occupancy
  O  O1  1  0.009188  0.499873  0.118418  1
  O  O2  1  0.061957  0.332700  0.162825  1
  O  O3  1  0.439984  0.332591  0.164686  1
  O  O4  1  0.061944  0.667108  0.162823  1
  O  O5  1  0.439996  0.667202  0.164685  1
  O  O6  1  0.939989  0.667208  0.261688  1
  O  O7  1  0.561946  0.667090  0.263549  1
  O  O8  1  0.939994  0.332594  0.261686  1
  O  O9  1  0.561953  0.332690  0.263549  1
  O  O10  1  0.247048  0.223934  0.194476  1
  O  O11  1  0.247033  0.775863  0.194478  1
  O  O12  1  0.747038  0.775866  0.231894  1
  O  O13  1  0.747039  0.223927  0.231894  1
  O  O14  1  0.068551  0.000000  0.179822  1
  O  O15  1  0.429029  0.000000  0.181574  1
  O  O16  1  0.929018  0.000000  0.244797  1
  O  O17  1  0.568542  0.000000  0.246552  1
  O  O18  1  0.995629  0.245664  0.212065  1
  O  O19  1  0.495630  0.245658  0.214306  1
  O  O20  1  0.995624  0.754148  0.212066  1
  O  O21  1  0.495621  0.754131  0.214308  1
  O  O22  1  0.009188  0.499873  0.304877  1
  O  O23  1  0.509187  0.499921  0.121496  1
  O  O24  1  0.254539  0.499907  0.139331  1
  O  O25  1  0.754541  0.499900  0.287041  1
  O  O26  1  0.061957  0.332700  0.349285  1
  O  O27  1  0.439984  0.332591  0.351145  1
  O  O28  1  0.061944  0.667108  0.349282  1
  O  O29  1  0.439996  0.667202  0.351144  1
  O  O30  1  0.939989  0.667208  0.448148  1
  O  O31  1  0.561946  0.667090  0.450009  1
  O  O32  1  0.939994  0.332594  0.448146  1
  O  O33  1  0.561953  0.332690  0.450008  1
  O  O34  1  0.247048  0.223934  0.380936  1
  O  O35  1  0.247033  0.775863  0.380937  1
  O  O36  1  0.747038  0.775866  0.418353  1
  O  O37  1  0.747039  0.223927  0.418353  1
  O  O38  1  0.068551  0.000000  0.366281  1
  O  O39  1  0.429029  0.000000  0.368033  1
  O  O40  1  0.929018  0.000000  0.431257  1
  O  O41  1  0.568542  0.000000  0.433011  1
  O  O42  1  0.995629  0.245664  0.398524  1
  O  O43  1  0.495630  0.245658  0.400766  1
  O  O44  1  0.995624  0.754148  0.398525  1
  O  O45  1  0.495621  0.754131  0.400767  1
  O  O46  1  0.009188  0.499873  0.491336  1
  O  O47  1  0.509187  0.499921  0.307956  1
  O  O48  1  0.254539  0.499907  0.325790  1
  O  O49  1  0.754541  0.499900  0.473500  1
  O  O50  1  0.061957  0.332700  0.535744  1
  O  O51  1  0.439984  0.332591  0.537604  1
  O  O52  1  0.061944  0.667108  0.535741  1
  O  O53  1  0.439996  0.667202  0.537603  1
  O  O54  1  0.939989  0.667208  0.634607  1
  O  O55  1  0.561946  0.667090  0.636468  1
  O  O56  1  0.939994  0.332594  0.634605  1
  O  O57  1  0.561953  0.332690  0.636467  1
  O  O58  1  0.247048  0.223934  0.567395  1
  O  O59  1  0.247033  0.775863  0.567396  1
  O  O60  1  0.747038  0.775866  0.604812  1
  O  O61  1  0.747039  0.223927  0.604812  1
  O  O62  1  0.068551  0.000000  0.552740  1
  O  O63  1  0.429029  0.000000  0.554493  1
  O  O64  1  0.929018  0.000000  0.617716  1
  O  O65  1  0.568542  0.000000  0.619470  1
  O  O66  1  0.995629  0.245664  0.584984  1
  O  O67  1  0.495630  0.245658  0.587225  1
  O  O68  1  0.995624  0.754148  0.584984  1
  O  O69  1  0.495621  0.754131  0.587226  1
  O  O70  1  0.009188  0.499873  0.677796  1
  O  O71  1  0.509187  0.499921  0.494415  1
  O  O72  1  0.254539  0.499907  0.512249  1
  O  O73  1  0.754541  0.499900  0.659959  1
  O  O74  1  0.509187  0.499921  0.680874  1
  Si  Si75  1  0.088926  0.202036  0.186918  1
  Si  Si76  1  0.407048  0.202030  0.188497  1
  Si  Si77  1  0.088884  0.797759  0.186916  1
  Si  Si78  1  0.407024  0.797789  0.188496  1
  Si  Si79  1  0.907055  0.797781  0.237876  1
  Si  Si80  1  0.588928  0.797764  0.239456  1
  Si  Si81  1  0.907036  0.202009  0.237876  1
  Si  Si82  1  0.588909  0.202050  0.239454  1
  Si  Si83  1  0.093994  0.499908  0.145029  1
  Si  Si84  1  0.413274  0.499874  0.146627  1
  Si  Si85  1  0.913281  0.499918  0.279741  1
  Si  Si86  1  0.593984  0.499881  0.281346  1
  Si  Si87  1  0.088926  0.202036  0.373378  1
  Si  Si88  1  0.407048  0.202030  0.374956  1
  Si  Si89  1  0.088884  0.797759  0.373376  1
  Si  Si90  1  0.407024  0.797789  0.374955  1
  Si  Si91  1  0.907055  0.797781  0.424336  1
  Si  Si92  1  0.588928  0.797764  0.425915  1
  Si  Si93  1  0.907036  0.202009  0.424335  1
  Si  Si94  1  0.588909  0.202050  0.425913  1
  Si  Si95  1  0.093994  0.499908  0.331489  1
  Si  Si96  1  0.413274  0.499874  0.333086  1
  Si  Si97  1  0.913281  0.499918  0.466201  1
  Si  Si98  1  0.593984  0.499881  0.467805  1
  Si  Si99  1  0.088926  0.202036  0.559837  1
  Si  Si100  1  0.407048  0.202030  0.561416  1
  Si  Si101  1  0.088884  0.797759  0.559835  1
  Si  Si102  1  0.407024  0.797789  0.561414  1
  Si  Si103  1  0.907055  0.797781  0.610795  1
  Si  Si104  1  0.588928  0.797764  0.612374  1
  Si  Si105  1  0.907036  0.202009  0.610794  1
  Si  Si106  1  0.588909  0.202050  0.612372  1
  Si  Si107  1  0.093994  0.499908  0.517948  1
  Si  Si108  1  0.413274  0.499874  0.519546  1
  Si  Si109  1  0.913281  0.499918  0.652660  1
  Si  Si110  1  0.593984  0.499881  0.654264  1
  H  H111  1  0.009188  0.499873  0.100354  1
  H  H112  1  0.509187  0.499921  0.103433  1
  H  H113  1  0.009188  0.499873  0.695859  1
  H  H114  1  0.509187  0.499921  0.698938  1
