# generated using pymatgen
data_Si18H2O37
_symmetry_space_group_name_H-M   'P 1'
_cell_length_a   13.50435003
_cell_length_b   12.57013567
_cell_length_c   49.35165981
_cell_angle_alpha   90.00000000
_cell_angle_beta   90.00000000
_cell_angle_gamma   90.00000000
_symmetry_Int_Tables_number   1
_chemical_formula_structural   Si18H2O37
_chemical_formula_sum   'Si72 H8 O148'
_cell_volume   8377.51887289
_cell_formula_units_Z   4
loop_
 _symmetry_equiv_pos_site_id
 _symmetry_equiv_pos_as_xyz
  1  'x, y, z'
loop_
 _atom_site_type_symbol
 _atom_site_label
 _atom_site_symmetry_multiplicity
 _atom_site_fract_x
 _atom_site_fract_y
 _atom_site_fract_z
 _atom_site_occupancy
  O  O1  1  0.138453  0.041023  0.119551  1
  O  O2  1  0.361710  0.541020  0.119551  1
  O  O3  1  0.127870  0.851696  0.260081  1
  O  O4  1  0.372308  0.351690  0.260078  1
  O  O5  1  0.372307  0.648119  0.165112  1
  O  O6  1  0.127880  0.148112  0.165114  1
  O  O7  1  0.175575  0.047783  0.257842  1
  O  O8  1  0.324608  0.547782  0.257838  1
  O  O9  1  0.324583  0.452030  0.167352  1
  O  O10  1  0.175598  0.952027  0.167353  1
  O  O11  1  0.150512  0.164158  0.215370  1
  O  O12  1  0.349676  0.664161  0.215367  1
  O  O13  1  0.349662  0.335645  0.209823  1
  O  O14  1  0.150520  0.835646  0.209826  1
  O  O15  1  0.000000  0.011639  0.153929  1
  O  O16  1  0.181035  0.330226  0.186789  1
  O  O17  1  0.319149  0.830230  0.186789  1
  O  O18  1  0.319134  0.169582  0.238406  1
  O  O19  1  0.181055  0.669589  0.238407  1
  O  O20  1  0.245349  0.499908  0.212596  1
  O  O21  1  0.254832  -0.000000  0.212599  1
  O  O22  1  0.000000  0.988153  0.271262  1
  O  O23  1  0.000000  0.747812  0.232822  1
  O  O24  1  0.000000  0.251973  0.192372  1
  O  O25  1  0.138421  0.958792  0.305643  1
  O  O26  1  0.361721  0.458791  0.305639  1
  O  O27  1  0.372276  0.351700  0.351201  1
  O  O28  1  0.127836  0.851699  0.351204  1
  O  O29  1  0.324571  0.547788  0.353440  1
  O  O30  1  0.175540  0.047787  0.353443  1
  O  O31  1  0.349643  0.664163  0.395912  1
  O  O32  1  0.150482  0.164163  0.395914  1
  O  O33  1  0.181018  0.669591  0.372875  1
  O  O34  1  0.319098  0.169591  0.372874  1
  O  O35  1  0.000000  0.747819  0.378462  1
  O  O36  1  0.000000  0.988158  0.340020  1
  O  O37  1  0.638436  0.541008  0.119550  1
  O  O38  1  0.861726  0.041012  0.119551  1
  O  O39  1  0.627878  0.351669  0.260078  1
  O  O40  1  0.872300  0.851670  0.260078  1
  O  O41  1  0.872310  0.148100  0.165113  1
  O  O42  1  0.627875  0.648096  0.165113  1
  O  O43  1  0.675603  0.547755  0.257840  1
  O  O44  1  0.824573  0.047757  0.257839  1
  O  O45  1  0.824605  0.952008  0.167351  1
  O  O46  1  0.675586  0.452010  0.167350  1
  O  O47  1  0.650520  0.664141  0.215369  1
  O  O48  1  0.849664  0.164142  0.215368  1
  O  O49  1  0.849679  0.835626  0.209823  1
  O  O50  1  0.650512  0.335632  0.209822  1
  O  O51  1  0.681055  0.830200  0.186785  1
  O  O52  1  0.819139  0.330208  0.186786  1
  O  O53  1  0.819151  0.669558  0.238403  1
  O  O54  1  0.681030  0.169558  0.238400  1
  O  O55  1  0.745352  -0.000000  0.212593  1
  O  O56  1  0.754835  0.499885  0.212594  1
  O  O57  1  0.500101  0.488148  0.271261  1
  O  O58  1  0.500085  0.247815  0.232818  1
  O  O59  1  0.500081  0.511637  0.153930  1
  O  O60  1  0.500100  0.751977  0.192371  1
  O  O61  1  0.638448  0.458760  0.305641  1
  O  O62  1  0.861695  0.958764  0.305639  1
  O  O63  1  0.872270  0.851676  0.351203  1
  O  O64  1  0.627845  0.351674  0.351203  1
  O  O65  1  0.824536  0.047758  0.353440  1
  O  O66  1  0.675570  0.547762  0.353441  1
  O  O67  1  0.849631  0.164143  0.395911  1
  O  O68  1  0.650488  0.664147  0.395913  1
  O  O69  1  0.680994  0.169562  0.372880  1
  O  O70  1  0.819116  0.669566  0.372879  1
  O  O71  1  0.500073  0.488156  0.340018  1
  O  O72  1  0.500048  0.247821  0.378461  1
  O  O73  1  0.138453  0.041023  0.491731  1
  O  O74  1  0.361710  0.541020  0.491731  1
  O  O75  1  0.127853  0.148125  0.446169  1
  O  O76  1  0.372281  0.648114  0.446168  1
  O  O77  1  0.175578  0.952036  0.443929  1
  O  O78  1  0.324558  0.452031  0.443929  1
  O  O79  1  0.150488  0.835649  0.401459  1
  O  O80  1  0.349627  0.335654  0.401457  1
  O  O81  1  0.319119  0.830227  0.424493  1
  O  O82  1  0.181002  0.330238  0.424492  1
  O  O83  1  0.254806  -0.000000  0.398684  1
  O  O84  1  0.000000  0.251975  0.418908  1
  O  O85  1  0.245318  0.499914  0.398684  1
  O  O86  1  0.000000  0.011643  0.457352  1
  O  O87  1  0.127870  0.851696  0.632260  1
  O  O88  1  0.372308  0.351690  0.632257  1
  O  O89  1  0.372307  0.648119  0.537292  1
  O  O90  1  0.127880  0.148112  0.537293  1
  O  O91  1  0.175575  0.047783  0.630022  1
  O  O92  1  0.324608  0.547782  0.630017  1
  O  O93  1  0.324583  0.452030  0.539531  1
  O  O94  1  0.175598  0.952027  0.539532  1
  O  O95  1  0.150512  0.164158  0.587549  1
  O  O96  1  0.349676  0.664161  0.587547  1
  O  O97  1  0.349662  0.335645  0.582003  1
  O  O98  1  0.150520  0.835646  0.582005  1
  O  O99  1  0.000000  0.011639  0.526109  1
  O  O100  1  0.181035  0.330226  0.558968  1
  O  O101  1  0.319149  0.830230  0.558968  1
  O  O102  1  0.319134  0.169582  0.610586  1
  O  O103  1  0.181055  0.669589  0.610587  1
  O  O104  1  0.245349  0.499908  0.584776  1
  O  O105  1  0.254832  -0.000000  0.584778  1
  O  O106  1  0.000000  0.988153  0.643442  1
  O  O107  1  -0.000000  0.747812  0.605001  1
  O  O108  1  0.000000  0.251973  0.564551  1
  O  O109  1  0.138421  0.958792  0.677822  1
  O  O110  1  0.361721  0.458791  0.677818  1
  O  O111  1  0.638436  0.541008  0.491729  1
  O  O112  1  0.861726  0.041012  0.491731  1
  O  O113  1  0.627849  0.648102  0.446168  1
  O  O114  1  0.872284  0.148099  0.446167  1
  O  O115  1  0.675561  0.452013  0.443929  1
  O  O116  1  0.824578  0.952012  0.443930  1
  O  O117  1  0.650477  0.335633  0.401458  1
  O  O118  1  0.849640  0.835636  0.401458  1
  O  O119  1  0.500067  0.751978  0.418910  1
  O  O120  1  0.819107  0.330205  0.424493  1
  O  O121  1  0.681019  0.830210  0.424496  1
  O  O122  1  0.754803  0.499887  0.398686  1
  O  O123  1  0.500063  0.511637  0.457351  1
  O  O124  1  0.745315  -0.000000  0.398688  1
  O  O125  1  0.627878  0.351669  0.632257  1
  O  O126  1  0.872300  0.851670  0.632257  1
  O  O127  1  0.872310  0.148100  0.537292  1
  O  O128  1  0.627875  0.648096  0.537292  1
  O  O129  1  0.675603  0.547755  0.630020  1
  O  O130  1  0.824573  0.047757  0.630018  1
  O  O131  1  0.824605  0.952008  0.539530  1
  O  O132  1  0.675586  0.452010  0.539530  1
  O  O133  1  0.650520  0.664141  0.587548  1
  O  O134  1  0.849664  0.164142  0.587547  1
  O  O135  1  0.849679  0.835626  0.582002  1
  O  O136  1  0.650512  0.335632  0.582001  1
  O  O137  1  0.681055  0.830200  0.558965  1
  O  O138  1  0.819139  0.330208  0.558965  1
  O  O139  1  0.819151  0.669558  0.610582  1
  O  O140  1  0.681030  0.169558  0.610579  1
  O  O141  1  0.745352  -0.000000  0.584772  1
  O  O142  1  0.754835  0.499885  0.584773  1
  O  O143  1  0.500101  0.488148  0.643440  1
  O  O144  1  0.500085  0.247815  0.604998  1
  O  O145  1  0.500081  0.511637  0.526109  1
  O  O146  1  0.500100  0.751977  0.564550  1
  O  O147  1  0.638448  0.458760  0.677821  1
  O  O148  1  0.861695  0.958764  0.677819  1
  Si  Si149  1  0.272583  0.595771  0.231961  1
  Si  Si150  1  0.272568  0.404042  0.193231  1
  Si  Si151  1  0.227614  0.904041  0.193233  1
  Si  Si152  1  0.227602  0.095766  0.231964  1
  Si  Si153  1  0.114277  0.227796  0.189627  1
  Si  Si154  1  0.385912  0.727802  0.189625  1
  Si  Si155  1  0.385900  0.272005  0.235565  1
  Si  Si156  1  0.114284  0.772009  0.235568  1
  Si  Si157  1  0.113974  0.963274  0.274391  1
  Si  Si158  1  0.386197  0.463269  0.274388  1
  Si  Si159  1  0.386181  0.536537  0.150802  1
  Si  Si160  1  0.114000  0.036534  0.150803  1
  Si  Si161  1  0.385864  0.272014  0.375714  1
  Si  Si162  1  0.114248  0.772011  0.375717  1
  Si  Si163  1  0.227571  0.095771  0.379320  1
  Si  Si164  1  0.113946  0.963276  0.336894  1
  Si  Si165  1  0.272549  0.595775  0.379318  1
  Si  Si166  1  0.386169  0.463278  0.336891  1
  Si  Si167  1  0.772586  0.904016  0.193229  1
  Si  Si168  1  0.727607  0.404023  0.193229  1
  Si  Si169  1  0.727615  0.595746  0.231961  1
  Si  Si170  1  0.772565  0.095746  0.231959  1
  Si  Si171  1  0.614273  0.271991  0.235563  1
  Si  Si172  1  0.885912  0.771987  0.235565  1
  Si  Si173  1  0.614284  0.727781  0.189626  1
  Si  Si174  1  0.885904  0.227784  0.189626  1
  Si  Si175  1  0.613984  0.536520  0.150802  1
  Si  Si176  1  0.886171  0.963251  0.274389  1
  Si  Si177  1  0.614001  0.463247  0.274389  1
  Si  Si178  1  0.886197  0.036524  0.150802  1
  Si  Si179  1  0.772530  0.095749  0.379320  1
  Si  Si180  1  0.727582  0.595752  0.379320  1
  Si  Si181  1  0.886143  0.963255  0.336891  1
  Si  Si182  1  0.613973  0.463253  0.336892  1
  Si  Si183  1  0.614237  0.271993  0.375717  1
  Si  Si184  1  0.885875  0.771995  0.375716  1
  Si  Si185  1  0.272537  0.404050  0.418050  1
  Si  Si186  1  0.227587  0.904043  0.418050  1
  Si  Si187  1  0.114245  0.227805  0.421656  1
  Si  Si188  1  0.113981  0.036543  0.460480  1
  Si  Si189  1  0.386162  0.536534  0.460479  1
  Si  Si190  1  0.385880  0.727799  0.421655  1
  Si  Si191  1  0.272583  0.595771  0.604141  1
  Si  Si192  1  0.272568  0.404042  0.565410  1
  Si  Si193  1  0.227614  0.904041  0.565412  1
  Si  Si194  1  0.227602  0.095766  0.604144  1
  Si  Si195  1  0.114277  0.227796  0.561806  1
  Si  Si196  1  0.385912  0.727802  0.561804  1
  Si  Si197  1  0.385900  0.272005  0.607744  1
  Si  Si198  1  0.114284  0.772009  0.607747  1
  Si  Si199  1  0.113974  0.963274  0.646570  1
  Si  Si200  1  0.386197  0.463269  0.646568  1
  Si  Si201  1  0.386181  0.536537  0.522981  1
  Si  Si202  1  0.114000  0.036534  0.522982  1
  Si  Si203  1  0.727576  0.404023  0.418051  1
  Si  Si204  1  0.772550  0.904027  0.418053  1
  Si  Si205  1  0.885872  0.227782  0.421653  1
  Si  Si206  1  0.614252  0.727787  0.421656  1
  Si  Si207  1  0.613965  0.536524  0.460479  1
  Si  Si208  1  0.886178  0.036524  0.460479  1
  Si  Si209  1  0.772586  0.904016  0.565408  1
  Si  Si210  1  0.727607  0.404023  0.565408  1
  Si  Si211  1  0.727615  0.595746  0.604140  1
  Si  Si212  1  0.772565  0.095746  0.604138  1
  Si  Si213  1  0.614273  0.271991  0.607743  1
  Si  Si214  1  0.885912  0.771987  0.607744  1
  Si  Si215  1  0.614284  0.727781  0.561806  1
  Si  Si216  1  0.885904  0.227784  0.561806  1
  Si  Si217  1  0.613984  0.536520  0.522981  1
  Si  Si218  1  0.886171  0.963251  0.646568  1
  Si  Si219  1  0.614001  0.463247  0.646568  1
  Si  Si220  1  0.886197  0.036524  0.522981  1
  H  H221  1  0.138453  0.041023  0.101315  1
  H  H222  1  0.361710  0.541020  0.101315  1
  H  H223  1  0.638436  0.541008  0.101314  1
  H  H224  1  0.861726  0.041012  0.101315  1
  H  H225  1  0.138421  0.958792  0.696059  1
  H  H226  1  0.361721  0.458791  0.696054  1
  H  H227  1  0.638448  0.458760  0.696057  1
  H  H228  1  0.861695  0.958764  0.696055  1
