# generated using pymatgen
data_Si4H2O9
_symmetry_space_group_name_H-M   'P 1'
_cell_length_a   8.32030442
_cell_length_b   13.45714247
_cell_length_c   28.37491269
_cell_angle_alpha   90.00000000
_cell_angle_beta   90.00000000
_cell_angle_gamma   90.00000000
_symmetry_Int_Tables_number   1
_chemical_formula_structural   Si4H2O9
_chemical_formula_sum   'Si16 H8 O36'
_cell_volume   3177.06866036
_cell_formula_units_Z   4
loop_
 _symmetry_equiv_pos_site_id
 _symmetry_equiv_pos_as_xyz
  1  'x, y, z'
loop_
 _atom_site_type_symbol
 _atom_site_label
 _atom_site_symmetry_multiplicity
 _atom_site_fract_x
 _atom_site_fract_y
 _atom_site_fract_z
 _atom_site_occupancy
  O  O1  1  0.735034  0.382462  0.350203  1
  O  O2  1  0.264732  0.382443  0.350211  1
  O  O3  1  0.235487  0.882462  0.297315  1
  O  O4  1  0.764324  0.882483  0.297312  1
  O  O5  1  0.255041  0.617338  0.296736  1
  O  O6  1  0.744705  0.617356  0.296727  1
  O  O7  1  0.755752  0.117362  0.350817  1
  O  O8  1  0.244020  0.117344  0.350822  1
  O  O9  1  0.751527  0.249601  0.287218  1
  O  O10  1  0.248259  0.249583  0.287224  1
  O  O11  1  0.251298  0.749669  0.360308  1
  O  O12  1  0.748466  0.749689  0.360299  1
  O  O13  1  0.764499  0.441876  0.267293  1
  O  O14  1  0.235229  0.441857  0.267304  1
  O  O15  1  0.264523  0.941940  0.380230  1
  O  O16  1  0.735291  0.941959  0.380227  1
  O  O17  1  0.240697  0.557206  0.379919  1
  O  O18  1  0.759091  0.557226  0.379908  1
  O  O19  1  0.739713  0.057179  0.267687  1
  O  O20  1  0.260068  0.057164  0.267693  1
  O  O21  1  0.499879  0.361472  0.293857  1
  O  O22  1  -0.000000  0.861738  0.353533  1
  O  O23  1  0.499883  0.636757  0.349202  1
  O  O24  1  0.000000  0.136344  0.297983  1
  O  O25  1  0.261962  0.587526  0.208005  1
  O  O26  1  0.737798  0.587564  0.207997  1
  O  O27  1  0.761212  0.087674  0.439580  1
  O  O28  1  0.238623  0.087635  0.439589  1
  O  O29  1  0.759915  0.409520  0.439636  1
  O  O30  1  0.239791  0.409496  0.439646  1
  O  O31  1  0.257444  0.909858  0.207931  1
  O  O32  1  0.742377  0.909857  0.207930  1
  O  O33  1  -0.000000  0.563477  0.254762  1
  O  O34  1  0.499902  0.063648  0.392439  1
  O  O35  1  0.000000  0.438822  0.384784  1
  O  O36  1  0.499901  0.937945  0.262045  1
  Si  Si37  1  0.686948  0.356942  0.297941  1
  Si  Si38  1  0.312814  0.356928  0.297948  1
  Si  Si39  1  0.186977  0.857063  0.349545  1
  Si  Si40  1  0.812816  0.857077  0.349541  1
  Si  Si41  1  0.312583  0.642299  0.348144  1
  Si  Si42  1  0.687183  0.642317  0.348136  1
  Si  Si43  1  0.812607  0.142164  0.299323  1
  Si  Si44  1  0.187172  0.142148  0.299327  1
  Si  Si45  1  0.186679  0.552162  0.255480  1
  Si  Si46  1  0.813061  0.552179  0.255470  1
  Si  Si47  1  0.686705  0.052282  0.392014  1
  Si  Si48  1  0.313102  0.052264  0.392016  1
  Si  Si49  1  0.813575  0.447146  0.390170  1
  Si  Si50  1  0.186180  0.447129  0.390176  1
  Si  Si51  1  0.313530  0.946997  0.257231  1
  Si  Si52  1  0.686272  0.947007  0.257225  1
  H  H53  1  0.261962  0.587526  0.176287  1
  H  H54  1  0.737798  0.587564  0.176279  1
  H  H55  1  0.761212  0.087674  0.471298  1
  H  H56  1  0.238623  0.087635  0.471307  1
  H  H57  1  0.759915  0.409520  0.471354  1
  H  H58  1  0.239791  0.409496  0.471364  1
  H  H59  1  0.257444  0.909858  0.176213  1
  H  H60  1  0.742377  0.909857  0.176212  1
