# generated using pymatgen
data_Si8H2O17
_symmetry_space_group_name_H-M   'P 1'
_cell_length_a   5.14486249
_cell_length_b   12.83257430
_cell_length_c   45.84932520
_cell_angle_alpha   48.15432052
_cell_angle_beta   90.00000000
_cell_angle_gamma   90.00000000
_symmetry_Int_Tables_number   1
_chemical_formula_structural   Si8H2O17
_chemical_formula_sum   'Si16 H4 O34'
_cell_volume   2254.98857827
_cell_formula_units_Z   2
loop_
 _symmetry_equiv_pos_site_id
 _symmetry_equiv_pos_as_xyz
  1  'x, y, z'
loop_
 _atom_site_type_symbol
 _atom_site_label
 _atom_site_symmetry_multiplicity
 _atom_site_fract_x
 _atom_site_fract_y
 _atom_site_fract_z
 _atom_site_occupancy
  O  O1  1  0.249592  0.511841  0.232201  1
  O  O2  1  0.749599  0.988275  0.236599  1
  O  O3  1  0.007250  0.689158  0.229456  1
  O  O4  1  0.492176  0.189153  0.220418  1
  O  O5  1  0.507326  0.689816  0.227623  1
  O  O6  1  0.992099  0.189821  0.222020  1
  O  O7  1  0.243572  0.771336  0.167760  1
  O  O8  1  0.755986  0.228761  0.166020  1
  O  O9  1  0.255981  0.271330  0.251434  1
  O  O10  1  0.249592  0.511841  0.418920  1
  O  O11  1  0.749599  0.988275  0.423318  1
  O  O12  1  0.749897  0.488264  0.288300  1
  O  O13  1  0.249895  0.011838  0.283898  1
  O  O14  1  0.007250  0.689158  0.416175  1
  O  O15  1  0.492176  0.189153  0.407138  1
  O  O16  1  0.992177  0.310960  0.291035  1
  O  O17  1  0.507233  0.810966  0.300068  1
  O  O18  1  0.507326  0.689816  0.414343  1
  O  O19  1  0.992099  0.189821  0.408740  1
  O  O20  1  0.492097  0.310289  0.292886  1
  O  O21  1  0.007316  0.810300  0.298485  1
  O  O22  1  0.243572  0.771336  0.354479  1
  O  O23  1  0.755986  0.228761  0.352739  1
  O  O24  1  0.255981  0.271330  0.438154  1
  O  O25  1  0.743590  0.728762  0.269071  1
  O  O26  1  0.749897  0.488264  0.475019  1
  O  O27  1  0.249895  0.011838  0.470617  1
  O  O28  1  0.992177  0.310960  0.477754  1
  O  O29  1  0.507233  0.810966  0.486788  1
  O  O30  1  0.492097  0.310289  0.479605  1
  O  O31  1  0.007316  0.810300  0.485204  1
  O  O32  1  0.243572  0.771336  0.541199  1
  O  O33  1  0.755986  0.228761  0.539459  1
  O  O34  1  0.743590  0.728762  0.455790  1
  Si  Si35  1  0.252250  0.668555  0.213390  1
  Si  Si36  1  0.747206  0.151597  0.210397  1
  Si  Si37  1  0.752272  0.651588  0.253513  1
  Si  Si38  1  0.247226  0.168552  0.244186  1
  Si  Si39  1  0.252250  0.668555  0.400109  1
  Si  Si40  1  0.747206  0.151597  0.397116  1
  Si  Si41  1  0.247202  0.348514  0.266988  1
  Si  Si42  1  0.752248  0.831559  0.276312  1
  Si  Si43  1  0.747222  0.331549  0.307110  1
  Si  Si44  1  0.252266  0.848514  0.310102  1
  Si  Si45  1  0.752272  0.651588  0.440232  1
  Si  Si46  1  0.247226  0.168552  0.430905  1
  Si  Si47  1  0.247202  0.348514  0.453708  1
  Si  Si48  1  0.752248  0.831559  0.463031  1
  Si  Si49  1  0.747222  0.331549  0.493829  1
  Si  Si50  1  0.252266  0.848514  0.496821  1
  H  H51  1  0.243572  0.771336  0.148131  1
  H  H52  1  0.755986  0.228761  0.146391  1
  H  H53  1  0.243572  0.771336  0.560828  1
  H  H54  1  0.755986  0.228761  0.559088  1
