# generated using pymatgen
data_Si12H2O25
_symmetry_space_group_name_H-M   'P 1'
_cell_length_a   12.26212939
_cell_length_b   20.51521873
_cell_length_c   50.38909960
_cell_angle_alpha   90.00000000
_cell_angle_beta   120.00000000
_cell_angle_gamma   90.00000000
_symmetry_Int_Tables_number   1
_chemical_formula_structural   Si12H2O25
_chemical_formula_sum   'Si96 H16 O200'
_cell_volume   10977.6473684
_cell_formula_units_Z   8
loop_
 _symmetry_equiv_pos_site_id
 _symmetry_equiv_pos_as_xyz
  1  'x, y, z'
loop_
 _atom_site_type_symbol
 _atom_site_label
 _atom_site_symmetry_multiplicity
 _atom_site_fract_x
 _atom_site_fract_y
 _atom_site_fract_z
 _atom_site_occupancy
  O  O1  1  0.127267  0.253695  0.232758  1
  O  O2  1  0.117981  0.009478  0.234928  1
  O  O3  1  0.020658  0.560329  0.186251  1
  O  O4  1  0.315931  0.561201  0.258467  1
  O  O5  1  0.221692  0.625654  0.209402  1
  O  O6  1  0.461076  0.628103  0.151699  1
  O  O7  1  0.077324  0.628869  0.151340  1
  O  O8  1  0.461203  0.627488  0.244387  1
  O  O9  1  0.117070  0.491670  0.234755  1
  O  O10  1  0.018360  0.936216  0.187868  1
  O  O11  1  0.312811  0.937234  0.259424  1
  O  O12  1  0.015712  0.685442  0.187542  1
  O  O13  1  0.314182  0.686540  0.259102  1
  O  O14  1  0.020651  0.810896  0.186478  1
  O  O15  1  0.316002  0.812083  0.259504  1
  O  O16  1  0.222602  0.874209  0.210000  1
  O  O17  1  0.460813  0.873046  0.151285  1
  O  O18  1  0.079774  0.877763  0.151825  1
  O  O19  1  0.461264  0.875998  0.245222  1
  O  O20  1  0.111747  0.750114  0.236433  1
  O  O21  1  0.682602  0.060922  0.181691  1
  O  O22  1  0.979293  0.060270  0.181795  1
  O  O23  1  0.686626  0.186142  0.183615  1
  O  O24  1  0.984612  0.185539  0.183847  1
  O  O25  1  0.684669  0.311658  0.182040  1
  O  O26  1  0.978997  0.311026  0.181753  1
  O  O27  1  0.778959  0.125812  0.156154  1
  O  O28  1  0.540466  0.128442  0.132439  1
  O  O29  1  0.920542  0.127911  0.132597  1
  O  O30  1  0.888909  0.249868  0.209668  1
  O  O31  1  0.745503  0.253101  0.232807  1
  O  O32  1  0.759951  0.009299  0.234562  1
  O  O33  1  0.662935  0.559762  0.258483  1
  O  O34  1  0.663364  0.560903  0.186524  1
  O  O35  1  0.685759  0.436928  0.182477  1
  O  O36  1  0.981250  0.436325  0.182513  1
  O  O37  1  0.557563  0.625620  0.209782  1
  O  O38  1  0.776892  0.374143  0.155113  1
  O  O39  1  0.537427  0.373562  0.132539  1
  O  O40  1  0.923380  0.373490  0.132443  1
  O  O41  1  0.766264  0.491555  0.234901  1
  O  O42  1  0.880391  0.509305  0.205098  1
  O  O43  1  0.669071  0.935651  0.259321  1
  O  O44  1  0.665712  0.936956  0.187159  1
  O  O45  1  0.671947  0.684935  0.259954  1
  O  O46  1  0.671035  0.686087  0.187498  1
  O  O47  1  0.661479  0.810332  0.258510  1
  O  O48  1  0.664908  0.811611  0.187089  1
  O  O49  1  0.554079  0.874045  0.209508  1
  O  O50  1  0.777600  0.749770  0.236735  1
  O  O51  1  0.873778  0.753038  0.202110  1
  O  O52  1  0.881099  0.991412  0.206475  1
  O  O53  1  0.335707  0.061269  0.268549  1
  O  O54  1  0.335274  0.063704  0.340524  1
  O  O55  1  0.329022  0.186410  0.267408  1
  O  O56  1  0.334857  0.189091  0.340197  1
  O  O57  1  0.338741  0.311825  0.268657  1
  O  O58  1  0.328735  0.314676  0.339832  1
  O  O59  1  0.443995  0.126460  0.317468  1
  O  O60  1  0.223318  0.251143  0.290582  1
  O  O61  1  0.125455  0.247541  0.324718  1
  O  O62  1  0.127267  0.253695  0.476048  1
  O  O63  1  0.117981  0.009478  0.478218  1
  O  O64  1  0.119133  0.010680  0.321885  1
  O  O65  1  0.315127  0.563756  0.344972  1
  O  O66  1  0.020658  0.560329  0.429540  1
  O  O67  1  0.315931  0.561201  0.501756  1
  O  O68  1  0.020203  0.561539  0.345519  1
  O  O69  1  0.331176  0.437178  0.268180  1
  O  O70  1  0.335200  0.439876  0.340387  1
  O  O71  1  0.221557  0.626549  0.371678  1
  O  O72  1  0.221692  0.625654  0.452691  1
  O  O73  1  0.443621  0.374962  0.317825  1
  O  O74  1  0.461076  0.628103  0.394988  1
  O  O75  1  0.077324  0.628869  0.394629  1
  O  O76  1  0.461203  0.627488  0.487676  1
  O  O77  1  0.117070  0.491670  0.478045  1
  O  O78  1  0.118667  0.492351  0.321127  1
  O  O79  1  0.237102  0.510355  0.292361  1
  O  O80  1  0.315900  0.939782  0.345405  1
  O  O81  1  0.018360  0.936216  0.431158  1
  O  O82  1  0.312811  0.937234  0.502713  1
  O  O83  1  0.018549  0.937299  0.344386  1
  O  O84  1  0.314622  0.689073  0.345057  1
  O  O85  1  0.015712  0.685442  0.430831  1
  O  O86  1  0.314182  0.686540  0.502391  1
  O  O87  1  0.015745  0.686566  0.343693  1
  O  O88  1  0.313034  0.814597  0.343724  1
  O  O89  1  0.020651  0.810896  0.429767  1
  O  O90  1  0.316002  0.812083  0.502793  1
  O  O91  1  0.020127  0.811922  0.345870  1
  O  O92  1  0.222376  0.874845  0.371615  1
  O  O93  1  0.222602  0.874209  0.453289  1
  O  O94  1  0.460813  0.873046  0.394574  1
  O  O95  1  0.079774  0.877763  0.395114  1
  O  O96  1  0.461264  0.875998  0.488511  1
  O  O97  1  0.111747  0.750114  0.479722  1
  O  O98  1  0.110489  0.751144  0.317814  1
  O  O99  1  0.252397  0.748037  0.294310  1
  O  O100  1  0.235510  0.992518  0.292679  1
  O  O101  1  0.682602  0.060922  0.424981  1
  O  O102  1  0.978528  0.061367  0.340678  1
  O  O103  1  0.682327  0.059778  0.268770  1
  O  O104  1  0.979293  0.060270  0.425084  1
  O  O105  1  0.686626  0.186142  0.426904  1
  O  O106  1  0.980725  0.186758  0.340021  1
  O  O107  1  0.686637  0.184900  0.267375  1
  O  O108  1  0.984612  0.185539  0.427136  1
  O  O109  1  0.684669  0.311658  0.425329  1
  O  O110  1  0.983285  0.312414  0.340105  1
  O  O111  1  0.681675  0.310391  0.268715  1
  O  O112  1  0.978997  0.311026  0.425043  1
  O  O113  1  0.778959  0.125812  0.399444  1
  O  O114  1  0.776605  0.125542  0.317584  1
  O  O115  1  0.540466  0.128442  0.375729  1
  O  O116  1  0.920542  0.127911  0.375886  1
  O  O117  1  0.537807  0.128123  0.282265  1
  O  O118  1  0.887339  0.249787  0.290638  1
  O  O119  1  0.888909  0.249868  0.452957  1
  O  O120  1  0.745503  0.253101  0.476097  1
  O  O121  1  0.759951  0.009299  0.477851  1
  O  O122  1  0.662935  0.559762  0.501772  1
  O  O123  1  0.663364  0.560903  0.429813  1
  O  O124  1  0.685759  0.436928  0.425767  1
  O  O125  1  0.981902  0.437640  0.340125  1
  O  O126  1  0.688902  0.435733  0.267992  1
  O  O127  1  0.981250  0.436325  0.425803  1
  O  O128  1  0.557563  0.625620  0.453071  1
  O  O129  1  0.776892  0.374143  0.398403  1
  O  O130  1  0.779280  0.374027  0.317720  1
  O  O131  1  0.537427  0.373562  0.375828  1
  O  O132  1  0.923380  0.373490  0.375732  1
  O  O133  1  0.540339  0.378313  0.283143  1
  O  O134  1  0.766264  0.491555  0.478190  1
  O  O135  1  0.881565  0.509540  0.292579  1
  O  O136  1  0.880391  0.509305  0.448387  1
  O  O137  1  0.669071  0.935651  0.502610  1
  O  O138  1  0.665712  0.936956  0.430448  1
  O  O139  1  0.671947  0.684935  0.503243  1
  O  O140  1  0.671035  0.686087  0.430787  1
  O  O141  1  0.661479  0.810332  0.501799  1
  O  O142  1  0.664908  0.811611  0.430378  1
  O  O143  1  0.554079  0.874045  0.452797  1
  O  O144  1  0.777600  0.749770  0.480025  1
  O  O145  1  0.873778  0.753038  0.445399  1
  O  O146  1  0.872377  0.753735  0.294654  1
  O  O147  1  0.882602  0.991984  0.292234  1
  O  O148  1  0.881099  0.991412  0.449764  1
  O  O149  1  0.335707  0.061269  0.511838  1
  O  O150  1  0.335274  0.063704  0.583814  1
  O  O151  1  0.329022  0.186410  0.510697  1
  O  O152  1  0.334857  0.189091  0.583486  1
  O  O153  1  0.338741  0.311825  0.511946  1
  O  O154  1  0.328735  0.314676  0.583121  1
  O  O155  1  0.443995  0.126460  0.560757  1
  O  O156  1  0.223318  0.251143  0.533872  1
  O  O157  1  0.125455  0.247541  0.568007  1
  O  O158  1  0.119133  0.010680  0.565174  1
  O  O159  1  0.315127  0.563756  0.588261  1
  O  O160  1  0.020203  0.561539  0.588809  1
  O  O161  1  0.331176  0.437178  0.511469  1
  O  O162  1  0.335200  0.439876  0.583676  1
  O  O163  1  0.221557  0.626549  0.614967  1
  O  O164  1  0.443621  0.374962  0.561114  1
  O  O165  1  0.461076  0.628103  0.638277  1
  O  O166  1  0.077324  0.628869  0.637918  1
  O  O167  1  0.118667  0.492351  0.564416  1
  O  O168  1  0.237102  0.510355  0.535651  1
  O  O169  1  0.315900  0.939782  0.588695  1
  O  O170  1  0.018549  0.937299  0.587676  1
  O  O171  1  0.314622  0.689073  0.588347  1
  O  O172  1  0.015745  0.686566  0.586983  1
  O  O173  1  0.313034  0.814597  0.587013  1
  O  O174  1  0.020127  0.811922  0.589159  1
  O  O175  1  0.222376  0.874845  0.614904  1
  O  O176  1  0.460813  0.873046  0.637863  1
  O  O177  1  0.079774  0.877763  0.638404  1
  O  O178  1  0.110489  0.751144  0.561103  1
  O  O179  1  0.252397  0.748037  0.537599  1
  O  O180  1  0.235510  0.992518  0.535968  1
  O  O181  1  0.978528  0.061367  0.583967  1
  O  O182  1  0.682327  0.059778  0.512060  1
  O  O183  1  0.980725  0.186758  0.583311  1
  O  O184  1  0.686637  0.184900  0.510664  1
  O  O185  1  0.983285  0.312414  0.583394  1
  O  O186  1  0.681675  0.310391  0.512004  1
  O  O187  1  0.776605  0.125542  0.560873  1
  O  O188  1  0.540466  0.128442  0.619018  1
  O  O189  1  0.920542  0.127911  0.619176  1
  O  O190  1  0.537807  0.128123  0.525554  1
  O  O191  1  0.887339  0.249787  0.533927  1
  O  O192  1  0.981902  0.437640  0.583414  1
  O  O193  1  0.688902  0.435733  0.511282  1
  O  O194  1  0.779280  0.374027  0.561009  1
  O  O195  1  0.537427  0.373562  0.619118  1
  O  O196  1  0.923380  0.373490  0.619021  1
  O  O197  1  0.540339  0.378313  0.526432  1
  O  O198  1  0.881565  0.509540  0.535868  1
  O  O199  1  0.872377  0.753735  0.537943  1
  O  O200  1  0.882602  0.991984  0.535524  1
  Si  Si201  1  0.253812  0.250707  0.263810  1
  Si  Si202  1  0.251378  0.000000  0.263871  1
  Si  Si203  1  0.081113  0.624610  0.182665  1
  Si  Si204  1  0.332408  0.624658  0.243508  1
  Si  Si205  1  0.251388  0.500159  0.263446  1
  Si  Si206  1  0.082489  0.874893  0.183049  1
  Si  Si207  1  0.332221  0.875107  0.244214  1
  Si  Si208  1  0.251966  0.749404  0.263339  1
  Si  Si209  1  0.001198  0.749716  0.202306  1
  Si  Si210  1  0.667980  0.124850  0.163176  1
  Si  Si211  1  0.918952  0.124390  0.163297  1
  Si  Si212  1  0.998951  0.249747  0.202216  1
  Si  Si213  1  0.748282  0.249985  0.202244  1
  Si  Si214  1  0.746830  0.249386  0.263865  1
  Si  Si215  1  0.587113  0.623957  0.243873  1
  Si  Si216  1  0.586954  0.624756  0.182853  1
  Si  Si217  1  0.667283  0.374568  0.162712  1
  Si  Si218  1  0.917604  0.374224  0.162622  1
  Si  Si219  1  0.747865  0.499618  0.202002  1
  Si  Si220  1  0.748946  0.499133  0.263503  1
  Si  Si221  1  0.000000  0.499300  0.201900  1
  Si  Si222  1  0.585142  0.874269  0.243762  1
  Si  Si223  1  0.585128  0.874416  0.182808  1
  Si  Si224  1  0.746700  0.749427  0.263462  1
  Si  Si225  1  0.747704  0.749867  0.202572  1
  Si  Si226  1  0.746291  -0.000000  0.202212  1
  Si  Si227  1  -0.000000  0.000000  0.202513  1
  Si  Si228  1  0.747409  -0.000000  0.263718  1
  Si  Si229  1  0.412872  0.125062  0.283235  1
  Si  Si230  1  0.414951  0.126402  0.344472  1
  Si  Si231  1  0.253812  0.250707  0.507099  1
  Si  Si232  1  0.252300  0.250892  0.324653  1
  Si  Si233  1  0.252511  0.001735  0.325385  1
  Si  Si234  1  0.251378  0.000000  0.507160  1
  Si  Si235  1  0.332272  0.626325  0.364516  1
  Si  Si236  1  0.081113  0.624610  0.425954  1
  Si  Si237  1  0.332408  0.624658  0.486797  1
  Si  Si238  1  0.080970  0.625380  0.364191  1
  Si  Si239  1  0.414697  0.375732  0.283770  1
  Si  Si240  1  0.412458  0.376171  0.344469  1
  Si  Si241  1  0.252528  0.501683  0.324945  1
  Si  Si242  1  0.251388  0.500159  0.506735  1
  Si  Si243  1  0.000000  0.500241  0.325047  1
  Si  Si244  1  0.332137  0.876006  0.364129  1
  Si  Si245  1  0.082489  0.874893  0.426338  1
  Si  Si246  1  0.332221  0.875107  0.487504  1
  Si  Si247  1  0.082400  0.875608  0.364546  1
  Si  Si248  1  0.251966  0.749404  0.506628  1
  Si  Si249  1  0.250772  0.750935  0.325013  1
  Si  Si250  1  0.001198  0.749716  0.445595  1
  Si  Si251  1  0.000000  0.750741  0.325290  1
  Si  Si252  1  0.667980  0.124850  0.406465  1
  Si  Si253  1  0.916799  0.124887  0.344536  1
  Si  Si254  1  0.666891  0.124089  0.283354  1
  Si  Si255  1  0.918952  0.124390  0.406587  1
  Si  Si256  1  0.998951  0.249747  0.445506  1
  Si  Si257  1  0.748282  0.249985  0.445533  1
  Si  Si258  1  0.746830  0.249386  0.507154  1
  Si  Si259  1  -0.000000  0.000000  0.325064  1
  Si  Si260  1  0.998362  0.249276  0.324706  1
  Si  Si261  1  0.587113  0.623957  0.487162  1
  Si  Si262  1  0.586954  0.624756  0.426142  1
  Si  Si263  1  0.667283  0.374568  0.406002  1
  Si  Si264  1  0.919828  0.374782  0.344406  1
  Si  Si265  1  0.668342  0.374742  0.283660  1
  Si  Si266  1  0.917604  0.374224  0.405911  1
  Si  Si267  1  0.747865  0.499618  0.445292  1
  Si  Si268  1  0.748946  0.499133  0.506793  1
  Si  Si269  1  -0.000000  0.499300  0.445189  1
  Si  Si270  1  0.585142  0.874269  0.487051  1
  Si  Si271  1  0.585128  0.874416  0.426097  1
  Si  Si272  1  0.746700  0.749427  0.506751  1
  Si  Si273  1  0.747704  0.749867  0.445861  1
  Si  Si274  1  0.746291  -0.000000  0.445502  1
  Si  Si275  1  -0.000000  0.000000  0.445802  1
  Si  Si276  1  0.747409  -0.000000  0.507007  1
  Si  Si277  1  0.412872  0.125062  0.526524  1
  Si  Si278  1  0.414951  0.126402  0.587761  1
  Si  Si279  1  0.252300  0.250892  0.567942  1
  Si  Si280  1  0.252511  0.001735  0.568674  1
  Si  Si281  1  0.332272  0.626325  0.607806  1
  Si  Si282  1  0.080970  0.625380  0.607480  1
  Si  Si283  1  0.414697  0.375732  0.527060  1
  Si  Si284  1  0.412458  0.376171  0.587758  1
  Si  Si285  1  0.252528  0.501683  0.568235  1
  Si  Si286  1  0.000000  0.500241  0.568336  1
  Si  Si287  1  0.332137  0.876006  0.607418  1
  Si  Si288  1  0.082400  0.875608  0.607835  1
  Si  Si289  1  0.250772  0.750935  0.568302  1
  Si  Si290  1  0.000000  0.750741  0.568580  1
  Si  Si291  1  0.916799  0.124887  0.587825  1
  Si  Si292  1  0.666891  0.124089  0.526644  1
  Si  Si293  1  0.000000  0.000000  0.568353  1
  Si  Si294  1  0.998362  0.249276  0.567995  1
  Si  Si295  1  0.919828  0.374782  0.587695  1
  Si  Si296  1  0.668342  0.374742  0.526950  1
  H  H297  1  0.461076  0.628103  0.133838  1
  H  H298  1  0.077324  0.628869  0.133479  1
  H  H299  1  0.460813  0.873046  0.133424  1
  H  H300  1  0.079774  0.877763  0.133964  1
  H  H301  1  0.540466  0.128442  0.114578  1
  H  H302  1  0.920542  0.127911  0.114736  1
  H  H303  1  0.537427  0.373562  0.114678  1
  H  H304  1  0.923380  0.373490  0.114582  1
  H  H305  1  0.461076  0.628103  0.656138  1
  H  H306  1  0.077324  0.628869  0.655779  1
  H  H307  1  0.460813  0.873046  0.655724  1
  H  H308  1  0.079774  0.877763  0.656265  1
  H  H309  1  0.540466  0.128442  0.636879  1
  H  H310  1  0.920542  0.127911  0.637037  1
  H  H311  1  0.537427  0.373562  0.636979  1
  H  H312  1  0.923380  0.373490  0.636882  1
