# generated using pymatgen
data_Si60H2O121
_symmetry_space_group_name_H-M   'P 1'
_cell_length_a   9.70747760
_cell_length_b   8.31165552
_cell_length_c   97.59074934
_cell_angle_alpha   90.00000000
_cell_angle_beta   90.00000000
_cell_angle_gamma   90.00000000
_symmetry_Int_Tables_number   1
_chemical_formula_structural   Si60H2O121
_chemical_formula_sum   'Si120 H4 O242'
_cell_volume   7874.13008307
_cell_formula_units_Z   2
loop_
 _symmetry_equiv_pos_site_id
 _symmetry_equiv_pos_as_xyz
  1  'x, y, z'
loop_
 _atom_site_type_symbol
 _atom_site_label
 _atom_site_symmetry_multiplicity
 _atom_site_fract_x
 _atom_site_fract_y
 _atom_site_fract_z
 _atom_site_occupancy
  O  O1  1  0.500080  0.011496  0.060457  1
  O  O2  1  0.500098  0.488255  0.060457  1
  O  O3  1  0.801020  0.749883  0.227309  1
  O  O4  1  0.301044  0.749859  0.097875  1
  O  O5  1  0.198783  0.749884  0.227329  1
  O  O6  1  0.698803  0.749860  0.097891  1
  O  O7  1  0.803433  0.249859  0.153503  1
  O  O8  1  0.303407  0.249885  0.282933  1
  O  O9  1  0.195976  0.249858  0.153690  1
  O  O10  1  0.695956  0.249884  0.283132  1
  O  O11  1  0.635969  0.991952  0.226495  1
  O  O12  1  0.135996  0.991925  0.097059  1
  O  O13  1  0.363844  0.991927  0.226504  1
  O  O14  1  0.863869  0.991897  0.097068  1
  O  O15  1  0.636021  0.490799  0.153682  1
  O  O16  1  0.136017  0.490845  0.283119  1
  O  O17  1  0.363916  0.490420  0.153701  1
  O  O18  1  0.863914  0.490433  0.283137  1
  O  O19  1  0.363924  0.009301  0.153700  1
  O  O20  1  0.863916  0.009336  0.283136  1
  O  O21  1  0.636027  0.008910  0.153682  1
  O  O22  1  0.136017  0.008926  0.283117  1
  O  O23  1  0.363835  0.507833  0.226505  1
  O  O24  1  0.863873  0.507820  0.097070  1
  O  O25  1  0.635957  0.507825  0.226497  1
  O  O26  1  0.135995  0.507787  0.097060  1
  O  O27  1  0.870329  0.011720  0.238641  1
  O  O28  1  0.370357  0.011706  0.109205  1
  O  O29  1  0.129438  0.011772  0.238650  1
  O  O30  1  0.629467  0.011735  0.109214  1
  O  O31  1  0.870448  0.509623  0.141569  1
  O  O32  1  0.370445  0.509688  0.271007  1
  O  O33  1  0.129651  0.508748  0.141571  1
  O  O34  1  0.629646  0.508736  0.271006  1
  O  O35  1  0.129653  0.990972  0.141569  1
  O  O36  1  0.629649  0.991032  0.271005  1
  O  O37  1  0.870454  0.990093  0.141569  1
  O  O38  1  0.370449  0.990093  0.271005  1
  O  O39  1  0.129430  0.488001  0.238651  1
  O  O40  1  0.629466  0.487989  0.109216  1
  O  O41  1  0.870322  0.488053  0.238643  1
  O  O42  1  0.370356  0.488009  0.109205  1
  O  O43  1  0.870619  0.995188  0.213024  1
  O  O44  1  0.370642  0.995158  0.083589  1
  O  O45  1  0.129238  0.995140  0.213035  1
  O  O46  1  0.629260  0.995135  0.083598  1
  O  O47  1  0.870369  0.502368  0.167053  1
  O  O48  1  0.370370  0.502324  0.296491  1
  O  O49  1  0.129446  0.503820  0.167052  1
  O  O50  1  0.629447  0.503900  0.296487  1
  O  O51  1  0.129457  0.995884  0.167051  1
  O  O52  1  0.629444  0.995858  0.296486  1
  O  O53  1  0.870380  0.997356  0.167052  1
  O  O54  1  0.370368  0.997424  0.296489  1
  O  O55  1  0.129223  0.504621  0.213035  1
  O  O56  1  0.629265  0.504575  0.083600  1
  O  O57  1  0.870605  0.504553  0.213026  1
  O  O58  1  0.370646  0.504561  0.083589  1
  O  O59  1  0.500080  0.011496  0.319329  1
  O  O60  1  -0.000000  0.011495  0.189891  1
  O  O61  1  0.500098  0.488255  0.319330  1
  O  O62  1  -0.000000  0.488249  0.189894  1
  O  O63  1  0.498638  0.749879  0.305420  1
  O  O64  1  0.998724  0.749863  0.175984  1
  O  O65  1  0.499991  0.249864  0.077168  1
  O  O66  1  0.000000  0.249873  0.206604  1
  O  O67  1  0.500700  0.749886  0.260752  1
  O  O68  1  -0.000000  0.749858  0.131315  1
  O  O69  1  0.499850  0.249856  0.119882  1
  O  O70  1  -0.000000  0.249884  0.249317  1
  O  O71  1  0.499963  0.022351  0.248263  1
  O  O72  1  -0.000000  0.022326  0.118827  1
  O  O73  1  0.499812  0.524528  0.131978  1
  O  O74  1  0.000000  0.524553  0.261414  1
  O  O75  1  0.499830  0.975177  0.131977  1
  O  O76  1  -0.000000  0.975207  0.261413  1
  O  O77  1  0.499942  0.477408  0.248264  1
  O  O78  1  -0.000000  0.477376  0.118828  1
  O  O79  1  -0.000000  0.749885  0.278965  1
  O  O80  1  0.499656  0.749858  0.149529  1
  O  O81  1  -0.000000  0.249856  0.101505  1
  O  O82  1  0.499900  0.249886  0.230942  1
  O  O83  1  0.801020  0.749883  0.486181  1
  O  O84  1  0.301044  0.749859  0.356747  1
  O  O85  1  0.198783  0.749884  0.486202  1
  O  O86  1  0.698803  0.749860  0.356763  1
  O  O87  1  0.803433  0.249859  0.412375  1
  O  O88  1  0.303407  0.249885  0.541806  1
  O  O89  1  0.195976  0.249858  0.412563  1
  O  O90  1  0.695956  0.249884  0.542005  1
  O  O91  1  0.635969  0.991952  0.485367  1
  O  O92  1  0.135996  0.991925  0.355932  1
  O  O93  1  0.363844  0.991927  0.485377  1
  O  O94  1  0.863869  0.991897  0.355940  1
  O  O95  1  0.636021  0.490799  0.412555  1
  O  O96  1  0.136017  0.490845  0.541992  1
  O  O97  1  0.363916  0.490420  0.412574  1
  O  O98  1  0.863914  0.490433  0.542009  1
  O  O99  1  0.363924  0.009301  0.412572  1
  O  O100  1  0.863916  0.009336  0.542009  1
  O  O101  1  0.636027  0.008910  0.412554  1
  O  O102  1  0.136017  0.008926  0.541990  1
  O  O103  1  0.363835  0.507833  0.485377  1
  O  O104  1  0.863873  0.507820  0.355942  1
  O  O105  1  0.635957  0.507825  0.485369  1
  O  O106  1  0.135995  0.507787  0.355932  1
  O  O107  1  0.870329  0.011720  0.497513  1
  O  O108  1  0.370357  0.011706  0.368077  1
  O  O109  1  0.129438  0.011772  0.497523  1
  O  O110  1  0.629467  0.011735  0.368086  1
  O  O111  1  0.870448  0.509623  0.400442  1
  O  O112  1  0.370445  0.509688  0.529880  1
  O  O113  1  0.129651  0.508748  0.400443  1
  O  O114  1  0.629646  0.508736  0.529878  1
  O  O115  1  0.129653  0.990972  0.400442  1
  O  O116  1  0.629649  0.991032  0.529877  1
  O  O117  1  0.870454  0.990093  0.400441  1
  O  O118  1  0.370449  0.990093  0.529878  1
  O  O119  1  0.129430  0.488001  0.497523  1
  O  O120  1  0.629466  0.487989  0.368088  1
  O  O121  1  0.870322  0.488053  0.497515  1
  O  O122  1  0.370356  0.488009  0.368078  1
  O  O123  1  0.870619  0.995188  0.471897  1
  O  O124  1  0.370642  0.995158  0.342461  1
  O  O125  1  0.129238  0.995140  0.471907  1
  O  O126  1  0.629260  0.995135  0.342471  1
  O  O127  1  0.870369  0.502368  0.425925  1
  O  O128  1  0.370370  0.502324  0.555363  1
  O  O129  1  0.129446  0.503820  0.425925  1
  O  O130  1  0.629447  0.503900  0.555359  1
  O  O131  1  0.129457  0.995884  0.425923  1
  O  O132  1  0.629444  0.995858  0.555359  1
  O  O133  1  0.870380  0.997356  0.425925  1
  O  O134  1  0.370368  0.997424  0.555361  1
  O  O135  1  0.129223  0.504621  0.471908  1
  O  O136  1  0.629265  0.504575  0.342472  1
  O  O137  1  0.870605  0.504553  0.471899  1
  O  O138  1  0.370646  0.504561  0.342462  1
  O  O139  1  0.500080  0.011496  0.578201  1
  O  O140  1  -0.000000  0.011495  0.448764  1
  O  O141  1  0.500098  0.488255  0.578202  1
  O  O142  1  -0.000000  0.488249  0.448766  1
  O  O143  1  0.498638  0.749879  0.564292  1
  O  O144  1  0.998724  0.749863  0.434856  1
  O  O145  1  0.499991  0.249864  0.336040  1
  O  O146  1  0.000000  0.249873  0.465477  1
  O  O147  1  0.500700  0.749886  0.519624  1
  O  O148  1  0.000000  0.749858  0.390188  1
  O  O149  1  0.499850  0.249856  0.378754  1
  O  O150  1  -0.000000  0.249884  0.508190  1
  O  O151  1  0.499963  0.022351  0.507136  1
  O  O152  1  -0.000000  0.022326  0.377699  1
  O  O153  1  0.499812  0.524528  0.390851  1
  O  O154  1  -0.000000  0.524553  0.520287  1
  O  O155  1  0.499830  0.975177  0.390849  1
  O  O156  1  -0.000000  0.975207  0.520285  1
  O  O157  1  0.499942  0.477408  0.507137  1
  O  O158  1  0.000000  0.477376  0.377700  1
  O  O159  1  -0.000000  0.749885  0.537837  1
  O  O160  1  0.499656  0.749858  0.408401  1
  O  O161  1  -0.000000  0.249856  0.360377  1
  O  O162  1  0.499900  0.249886  0.489814  1
  O  O163  1  0.801020  0.749883  0.745054  1
  O  O164  1  0.301044  0.749859  0.615620  1
  O  O165  1  0.198783  0.749884  0.745074  1
  O  O166  1  0.698803  0.749860  0.615636  1
  O  O167  1  0.803433  0.249859  0.671247  1
  O  O168  1  0.303407  0.249885  0.800678  1
  O  O169  1  0.195976  0.249858  0.671435  1
  O  O170  1  0.695956  0.249884  0.800877  1
  O  O171  1  0.635969  0.991952  0.744239  1
  O  O172  1  0.135996  0.991925  0.614804  1
  O  O173  1  0.363844  0.991927  0.744249  1
  O  O174  1  0.863869  0.991897  0.614813  1
  O  O175  1  0.636021  0.490799  0.671427  1
  O  O176  1  0.136017  0.490845  0.800864  1
  O  O177  1  0.363916  0.490420  0.671446  1
  O  O178  1  0.863914  0.490433  0.800882  1
  O  O179  1  0.363924  0.009301  0.671444  1
  O  O180  1  0.863916  0.009336  0.800881  1
  O  O181  1  0.636027  0.008910  0.671427  1
  O  O182  1  0.136017  0.008926  0.800862  1
  O  O183  1  0.363835  0.507833  0.744250  1
  O  O184  1  0.863873  0.507820  0.614815  1
  O  O185  1  0.635957  0.507825  0.744242  1
  O  O186  1  0.135995  0.507787  0.614804  1
  O  O187  1  0.870329  0.011720  0.756385  1
  O  O188  1  0.370357  0.011706  0.626950  1
  O  O189  1  0.129438  0.011772  0.756395  1
  O  O190  1  0.629467  0.011735  0.626959  1
  O  O191  1  0.870448  0.509623  0.659314  1
  O  O192  1  0.370445  0.509688  0.788752  1
  O  O193  1  0.129651  0.508748  0.659316  1
  O  O194  1  0.629646  0.508736  0.788750  1
  O  O195  1  0.129653  0.990972  0.659314  1
  O  O196  1  0.629649  0.991032  0.788750  1
  O  O197  1  0.870454  0.990093  0.659314  1
  O  O198  1  0.370449  0.990093  0.788750  1
  O  O199  1  0.129430  0.488001  0.756396  1
  O  O200  1  0.629466  0.487989  0.626961  1
  O  O201  1  0.870322  0.488053  0.756388  1
  O  O202  1  0.370356  0.488009  0.626950  1
  O  O203  1  0.870619  0.995188  0.730769  1
  O  O204  1  0.370642  0.995158  0.601334  1
  O  O205  1  0.129238  0.995140  0.730780  1
  O  O206  1  0.629260  0.995135  0.601343  1
  O  O207  1  0.870369  0.502368  0.684798  1
  O  O208  1  0.370370  0.502324  0.814236  1
  O  O209  1  0.129446  0.503820  0.684797  1
  O  O210  1  0.629447  0.503900  0.814232  1
  O  O211  1  0.129457  0.995884  0.684796  1
  O  O212  1  0.629444  0.995858  0.814231  1
  O  O213  1  0.870380  0.997356  0.684797  1
  O  O214  1  0.370368  0.997424  0.814234  1
  O  O215  1  0.129223  0.504621  0.730780  1
  O  O216  1  0.629265  0.504575  0.601345  1
  O  O217  1  0.870605  0.504553  0.730771  1
  O  O218  1  0.370646  0.504561  0.601334  1
  O  O219  1  0.500080  0.011496  0.837074  1
  O  O220  1  0.000000  0.011495  0.707636  1
  O  O221  1  0.500098  0.488255  0.837075  1
  O  O222  1  0.000000  0.488249  0.707638  1
  O  O223  1  0.498638  0.749879  0.823164  1
  O  O224  1  0.998724  0.749863  0.693729  1
  O  O225  1  0.499991  0.249864  0.594913  1
  O  O226  1  -0.000000  0.249873  0.724349  1
  O  O227  1  0.500700  0.749886  0.778497  1
  O  O228  1  -0.000000  0.749858  0.649060  1
  O  O229  1  0.499850  0.249856  0.637627  1
  O  O230  1  -0.000000  0.249884  0.767062  1
  O  O231  1  0.499963  0.022351  0.766008  1
  O  O232  1  -0.000000  0.022326  0.636572  1
  O  O233  1  0.499812  0.524528  0.649723  1
  O  O234  1  -0.000000  0.524553  0.779159  1
  O  O235  1  0.499830  0.975177  0.649722  1
  O  O236  1  0.000000  0.975207  0.779158  1
  O  O237  1  0.499942  0.477408  0.766009  1
  O  O238  1  -0.000000  0.477376  0.636573  1
  O  O239  1  -0.000000  0.749885  0.796710  1
  O  O240  1  0.499656  0.749858  0.667274  1
  O  O241  1  0.000000  0.249856  0.619250  1
  O  O242  1  0.499900  0.249886  0.748687  1
  Si  Si243  1  0.790434  0.936733  0.226134  1
  Si  Si244  1  0.290459  0.936708  0.096699  1
  Si  Si245  1  0.209376  0.936730  0.226148  1
  Si  Si246  1  0.709401  0.936706  0.096711  1
  Si  Si247  1  0.790776  0.436937  0.154176  1
  Si  Si248  1  0.290770  0.436961  0.283612  1
  Si  Si249  1  0.209068  0.436957  0.154229  1
  Si  Si250  1  0.709062  0.436983  0.283665  1
  Si  Si251  1  0.209076  0.062758  0.154227  1
  Si  Si252  1  0.709064  0.062783  0.283665  1
  Si  Si253  1  0.790780  0.062780  0.154175  1
  Si  Si254  1  0.290770  0.062806  0.283610  1
  Si  Si255  1  0.209367  0.563036  0.226148  1
  Si  Si256  1  0.709402  0.563010  0.096713  1
  Si  Si257  1  0.790426  0.563031  0.226136  1
  Si  Si258  1  0.290461  0.563006  0.096699  1
  Si  Si259  1  0.499651  0.937086  0.304714  1
  Si  Si260  1  -0.000000  0.937076  0.175278  1
  Si  Si261  1  0.499994  0.436662  0.075760  1
  Si  Si262  1  0.000000  0.436676  0.205197  1
  Si  Si263  1  0.499986  0.063063  0.075759  1
  Si  Si264  1  0.000000  0.063078  0.205196  1
  Si  Si265  1  0.499656  0.562664  0.304715  1
  Si  Si266  1  -0.000000  0.562651  0.175279  1
  Si  Si267  1  0.500193  0.937029  0.262504  1
  Si  Si268  1  -0.000000  0.937001  0.133068  1
  Si  Si269  1  0.499870  0.436717  0.117827  1
  Si  Si270  1  -0.000000  0.436745  0.247263  1
  Si  Si271  1  0.499875  0.062997  0.117826  1
  Si  Si272  1  -0.000000  0.063024  0.247262  1
  Si  Si273  1  0.500186  0.562740  0.262505  1
  Si  Si274  1  -0.000000  0.562712  0.133069  1
  Si  Si275  1  0.000000  0.936195  0.277085  1
  Si  Si276  1  0.499865  0.936166  0.147649  1
  Si  Si277  1  -0.000000  0.436215  0.103211  1
  Si  Si278  1  0.499911  0.436242  0.232647  1
  Si  Si279  1  0.000000  0.063497  0.103210  1
  Si  Si280  1  0.499922  0.063524  0.232646  1
  Si  Si281  1  -0.000000  0.563573  0.277086  1
  Si  Si282  1  0.499857  0.563544  0.147650  1
  Si  Si283  1  0.790434  0.936733  0.485007  1
  Si  Si284  1  0.290459  0.936708  0.355571  1
  Si  Si285  1  0.209376  0.936730  0.485021  1
  Si  Si286  1  0.709401  0.936706  0.355583  1
  Si  Si287  1  0.790776  0.436937  0.413048  1
  Si  Si288  1  0.290770  0.436961  0.542484  1
  Si  Si289  1  0.209068  0.436957  0.413101  1
  Si  Si290  1  0.709062  0.436983  0.542538  1
  Si  Si291  1  0.209076  0.062758  0.413100  1
  Si  Si292  1  0.709064  0.062783  0.542538  1
  Si  Si293  1  0.790780  0.062780  0.413048  1
  Si  Si294  1  0.290770  0.062806  0.542483  1
  Si  Si295  1  0.209367  0.563036  0.485021  1
  Si  Si296  1  0.709402  0.563010  0.355585  1
  Si  Si297  1  0.790426  0.563031  0.485008  1
  Si  Si298  1  0.290461  0.563006  0.355572  1
  Si  Si299  1  0.499651  0.937086  0.563586  1
  Si  Si300  1  0.000000  0.937076  0.434151  1
  Si  Si301  1  0.499994  0.436662  0.334633  1
  Si  Si302  1  0.000000  0.436676  0.464069  1
  Si  Si303  1  0.499986  0.063063  0.334631  1
  Si  Si304  1  0.000000  0.063078  0.464068  1
  Si  Si305  1  0.499656  0.562664  0.563588  1
  Si  Si306  1  -0.000000  0.562651  0.434151  1
  Si  Si307  1  0.500193  0.937029  0.521377  1
  Si  Si308  1  -0.000000  0.937001  0.391940  1
  Si  Si309  1  0.499870  0.436717  0.376699  1
  Si  Si310  1  -0.000000  0.436745  0.506135  1
  Si  Si311  1  0.499875  0.062997  0.376698  1
  Si  Si312  1  0.000000  0.063024  0.506134  1
  Si  Si313  1  0.500186  0.562740  0.521378  1
  Si  Si314  1  0.000000  0.562712  0.391941  1
  Si  Si315  1  -0.000000  0.936195  0.535958  1
  Si  Si316  1  0.499865  0.936166  0.406522  1
  Si  Si317  1  -0.000000  0.436215  0.362084  1
  Si  Si318  1  0.499911  0.436242  0.491520  1
  Si  Si319  1  -0.000000  0.063497  0.362083  1
  Si  Si320  1  0.499922  0.063524  0.491519  1
  Si  Si321  1  -0.000000  0.563573  0.535959  1
  Si  Si322  1  0.499857  0.563544  0.406523  1
  Si  Si323  1  0.790434  0.936733  0.743879  1
  Si  Si324  1  0.290459  0.936708  0.614444  1
  Si  Si325  1  0.209376  0.936730  0.743893  1
  Si  Si326  1  0.709401  0.936706  0.614456  1
  Si  Si327  1  0.790776  0.436937  0.671921  1
  Si  Si328  1  0.290770  0.436961  0.801357  1
  Si  Si329  1  0.209068  0.436957  0.671974  1
  Si  Si330  1  0.709062  0.436983  0.801410  1
  Si  Si331  1  0.209076  0.062758  0.671972  1
  Si  Si332  1  0.709064  0.062783  0.801410  1
  Si  Si333  1  0.790780  0.062780  0.671920  1
  Si  Si334  1  0.290770  0.062806  0.801355  1
  Si  Si335  1  0.209367  0.563036  0.743893  1
  Si  Si336  1  0.709402  0.563010  0.614458  1
  Si  Si337  1  0.790426  0.563031  0.743881  1
  Si  Si338  1  0.290461  0.563006  0.614444  1
  Si  Si339  1  0.499651  0.937086  0.822459  1
  Si  Si340  1  0.000000  0.937076  0.693023  1
  Si  Si341  1  0.499994  0.436662  0.593505  1
  Si  Si342  1  0.000000  0.436676  0.722942  1
  Si  Si343  1  0.499986  0.063063  0.593504  1
  Si  Si344  1  -0.000000  0.063078  0.722941  1
  Si  Si345  1  0.499656  0.562664  0.822460  1
  Si  Si346  1  -0.000000  0.562651  0.693024  1
  Si  Si347  1  0.500193  0.937029  0.780249  1
  Si  Si348  1  0.000000  0.937001  0.650813  1
  Si  Si349  1  0.499870  0.436717  0.635572  1
  Si  Si350  1  -0.000000  0.436745  0.765007  1
  Si  Si351  1  0.499875  0.062997  0.635571  1
  Si  Si352  1  -0.000000  0.063024  0.765006  1
  Si  Si353  1  0.500186  0.562740  0.780250  1
  Si  Si354  1  -0.000000  0.562712  0.650814  1
  Si  Si355  1  0.000000  0.936195  0.794830  1
  Si  Si356  1  0.499865  0.936166  0.665394  1
  Si  Si357  1  -0.000000  0.436215  0.620956  1
  Si  Si358  1  0.499911  0.436242  0.750392  1
  Si  Si359  1  -0.000000  0.063497  0.620955  1
  Si  Si360  1  0.499922  0.063524  0.750391  1
  Si  Si361  1  0.000000  0.563573  0.794831  1
  Si  Si362  1  0.499857  0.563544  0.665395  1
  H  H363  1  0.500080  0.011496  0.051234  1
  H  H364  1  0.500098  0.488255  0.051235  1
  H  H365  1  0.500080  0.011496  0.846296  1
  H  H366  1  0.500098  0.488255  0.846297  1
