# generated using pymatgen
data_Si18H2O37
_symmetry_space_group_name_H-M   'P 1'
_cell_length_a   8.32108458
_cell_length_b   18.54608556
_cell_length_c   54.82968420
_cell_angle_alpha   58.06386483
_cell_angle_beta   90.00000000
_cell_angle_gamma   90.00000000
_symmetry_Int_Tables_number   1
_chemical_formula_structural   Si18H2O37
_chemical_formula_sum   'Si72 H8 O148'
_cell_volume   7180.76211455
_cell_formula_units_Z   4
loop_
 _symmetry_equiv_pos_site_id
 _symmetry_equiv_pos_as_xyz
  1  'x, y, z'
loop_
 _atom_site_type_symbol
 _atom_site_label
 _atom_site_symmetry_multiplicity
 _atom_site_fract_x
 _atom_site_fract_y
 _atom_site_fract_z
 _atom_site_occupancy
  O  O1  1  0.503740  0.089242  0.163014  1
  O  O2  1  0.503563  0.590569  0.163065  1
  O  O3  1  0.503546  0.909493  0.195464  1
  O  O4  1  0.503721  0.410821  0.194938  1
  O  O5  1  0.012469  0.090977  0.230906  1
  O  O6  1  0.012718  0.589353  0.231532  1
  O  O7  1  0.012737  0.910746  0.263488  1
  O  O8  1  0.012488  0.409121  0.263444  1
  O  O9  1  0.487136  0.910607  0.263468  1
  O  O10  1  0.487250  0.409241  0.263421  1
  O  O11  1  0.487231  0.090820  0.230931  1
  O  O12  1  0.487116  0.589454  0.231467  1
  O  O13  1  0.996303  0.909397  0.195527  1
  O  O14  1  0.995994  0.410971  0.194910  1
  O  O15  1  0.996012  0.089127  0.163033  1
  O  O16  1  0.996322  0.590702  0.163087  1
  O  O17  1  0.516350  0.200208  0.177102  1
  O  O18  1  0.516086  0.700187  0.177750  1
  O  O19  1  0.516086  0.799876  0.249375  1
  O  O20  1  0.516351  0.299855  0.248735  1
  O  O21  1  0.983681  0.200238  0.177059  1
  O  O22  1  0.983261  0.700183  0.177833  1
  O  O23  1  0.983262  0.799915  0.249451  1
  O  O24  1  0.983681  0.299860  0.248696  1
  O  O25  1  0.749936  0.186844  0.149468  1
  O  O26  1  0.749862  0.687853  0.149916  1
  O  O27  1  0.749862  0.812227  0.217125  1
  O  O28  1  0.749936  0.313236  0.216315  1
  O  O29  1  0.249947  0.183535  0.201859  1
  O  O30  1  0.249799  0.682774  0.202627  1
  O  O31  1  0.249794  0.817306  0.268018  1
  O  O32  1  0.249956  0.316545  0.267523  1
  O  O33  1  0.482925  0.248531  0.123896  1
  O  O34  1  0.483052  0.750261  0.124375  1
  O  O35  1  0.483067  0.749798  0.213920  1
  O  O36  1  0.482941  0.251528  0.212822  1
  O  O37  1  0.016974  0.251738  0.212728  1
  O  O38  1  0.016743  0.749661  0.214045  1
  O  O39  1  0.016728  0.750442  0.124442  1
  O  O40  1  0.016956  0.248360  0.123871  1
  O  O41  1  0.749910  0.000000  0.243514  1
  O  O42  1  0.749913  0.499441  0.243729  1
  O  O43  1  0.249925  -0.000000  0.190538  1
  O  O44  1  0.249928  0.500440  0.190395  1
  O  O45  1  0.518462  0.000000  0.213363  1
  O  O46  1  0.518464  0.500024  0.213365  1
  O  O47  1  0.981481  0.000000  0.213383  1
  O  O48  1  0.981479  0.500036  0.213388  1
  O  O49  1  0.503740  0.089242  0.341939  1
  O  O50  1  0.503563  0.590569  0.341990  1
  O  O51  1  0.503546  0.909493  0.374389  1
  O  O52  1  0.503721  0.410821  0.373863  1
  O  O53  1  0.012469  0.090977  0.409831  1
  O  O54  1  0.012718  0.589353  0.410457  1
  O  O55  1  0.012737  0.910746  0.442413  1
  O  O56  1  0.012488  0.409121  0.442368  1
  O  O57  1  0.487136  0.910607  0.442393  1
  O  O58  1  0.487250  0.409241  0.442346  1
  O  O59  1  0.487231  0.090820  0.409856  1
  O  O60  1  0.487116  0.589454  0.410392  1
  O  O61  1  0.996303  0.909397  0.374452  1
  O  O62  1  0.995994  0.410971  0.373834  1
  O  O63  1  0.996012  0.089127  0.341958  1
  O  O64  1  0.996322  0.590702  0.342012  1
  O  O65  1  0.516350  0.200208  0.356027  1
  O  O66  1  0.516086  0.700187  0.356674  1
  O  O67  1  0.516086  0.799876  0.428300  1
  O  O68  1  0.516351  0.299855  0.427660  1
  O  O69  1  0.983681  0.200238  0.355984  1
  O  O70  1  0.983261  0.700183  0.356757  1
  O  O71  1  0.983262  0.799915  0.428375  1
  O  O72  1  0.983681  0.299860  0.427621  1
  O  O73  1  0.749936  0.186844  0.328393  1
  O  O74  1  0.749862  0.687853  0.328841  1
  O  O75  1  0.749862  0.812227  0.396050  1
  O  O76  1  0.749936  0.313236  0.395240  1
  O  O77  1  0.249947  0.183535  0.380784  1
  O  O78  1  0.249799  0.682774  0.381551  1
  O  O79  1  0.249794  0.817306  0.446943  1
  O  O80  1  0.249956  0.316545  0.446448  1
  O  O81  1  0.482925  0.248531  0.302820  1
  O  O82  1  0.483052  0.750261  0.303300  1
  O  O83  1  0.483067  0.749798  0.392845  1
  O  O84  1  0.482941  0.251528  0.391747  1
  O  O85  1  0.016974  0.251738  0.391652  1
  O  O86  1  0.016743  0.749661  0.392970  1
  O  O87  1  0.016728  0.750442  0.303367  1
  O  O88  1  0.016956  0.248360  0.302796  1
  O  O89  1  0.749910  0.000000  0.422438  1
  O  O90  1  0.749913  0.499441  0.422653  1
  O  O91  1  0.249925  -0.000000  0.369462  1
  O  O92  1  0.249928  0.500440  0.369320  1
  O  O93  1  0.518462  0.000000  0.392288  1
  O  O94  1  0.518464  0.500024  0.392290  1
  O  O95  1  0.981481  -0.000000  0.392308  1
  O  O96  1  0.981479  0.500036  0.392313  1
  O  O97  1  0.503740  0.089242  0.520864  1
  O  O98  1  0.503563  0.590569  0.520915  1
  O  O99  1  0.503546  0.909493  0.553314  1
  O  O100  1  0.503721  0.410821  0.552788  1
  O  O101  1  0.012469  0.090977  0.588755  1
  O  O102  1  0.012718  0.589353  0.589382  1
  O  O103  1  0.012737  0.910746  0.621338  1
  O  O104  1  0.012488  0.409121  0.621293  1
  O  O105  1  0.487136  0.910607  0.621318  1
  O  O106  1  0.487250  0.409241  0.621271  1
  O  O107  1  0.487231  0.090820  0.588781  1
  O  O108  1  0.487116  0.589454  0.589317  1
  O  O109  1  0.996303  0.909397  0.553376  1
  O  O110  1  0.995994  0.410971  0.552759  1
  O  O111  1  0.996012  0.089127  0.520882  1
  O  O112  1  0.996322  0.590702  0.520937  1
  O  O113  1  0.516350  0.200208  0.534951  1
  O  O114  1  0.516086  0.700187  0.535599  1
  O  O115  1  0.516086  0.799876  0.607225  1
  O  O116  1  0.516351  0.299855  0.606585  1
  O  O117  1  0.983681  0.200238  0.534909  1
  O  O118  1  0.983261  0.700183  0.535682  1
  O  O119  1  0.983262  0.799915  0.607300  1
  O  O120  1  0.983681  0.299860  0.606546  1
  O  O121  1  0.749936  0.186844  0.507317  1
  O  O122  1  0.749862  0.687853  0.507766  1
  O  O123  1  0.749862  0.812227  0.574975  1
  O  O124  1  0.749936  0.313236  0.574165  1
  O  O125  1  0.249947  0.183535  0.559709  1
  O  O126  1  0.249799  0.682774  0.560476  1
  O  O127  1  0.249794  0.817306  0.625868  1
  O  O128  1  0.249956  0.316545  0.625372  1
  O  O129  1  0.482925  0.248531  0.481745  1
  O  O130  1  0.483052  0.750261  0.482224  1
  O  O131  1  0.483067  0.749798  0.571770  1
  O  O132  1  0.482941  0.251528  0.570672  1
  O  O133  1  0.016974  0.251738  0.570577  1
  O  O134  1  0.016743  0.749661  0.571894  1
  O  O135  1  0.016728  0.750442  0.482292  1
  O  O136  1  0.016956  0.248360  0.481720  1
  O  O137  1  0.749910  0.000000  0.601363  1
  O  O138  1  0.749913  0.499441  0.601578  1
  O  O139  1  0.249925  0.000000  0.548387  1
  O  O140  1  0.249928  0.500440  0.548245  1
  O  O141  1  0.518462  0.000000  0.571212  1
  O  O142  1  0.518464  0.500024  0.571215  1
  O  O143  1  0.981481  0.000000  0.571232  1
  O  O144  1  0.981479  0.500036  0.571238  1
  O  O145  1  0.482925  0.248531  0.660670  1
  O  O146  1  0.483052  0.750261  0.661149  1
  O  O147  1  0.016728  0.750442  0.661217  1
  O  O148  1  0.016956  0.248360  0.660645  1
  Si  Si149  1  0.563909  0.182666  0.152892  1
  Si  Si150  1  0.563806  0.683712  0.153302  1
  Si  Si151  1  0.563805  0.816355  0.219031  1
  Si  Si152  1  0.563908  0.317399  0.218247  1
  Si  Si153  1  0.064459  0.183723  0.205575  1
  Si  Si154  1  0.064335  0.682552  0.206468  1
  Si  Si155  1  0.064340  0.817543  0.271777  1
  Si  Si156  1  0.064459  0.316374  0.271303  1
  Si  Si157  1  0.435309  0.817464  0.271731  1
  Si  Si158  1  0.435427  0.316441  0.271315  1
  Si  Si159  1  0.435428  0.183625  0.205617  1
  Si  Si160  1  0.435303  0.682601  0.206399  1
  Si  Si161  1  0.935884  0.816302  0.219102  1
  Si  Si162  1  0.935972  0.317501  0.218204  1
  Si  Si163  1  0.935975  0.182597  0.152879  1
  Si  Si164  1  0.935885  0.683791  0.153350  1
  Si  Si165  1  0.561393  0.000000  0.240631  1
  Si  Si166  1  0.561393  0.499493  0.240824  1
  Si  Si167  1  0.061023  -0.000000  0.188020  1
  Si  Si168  1  0.061022  0.500607  0.187820  1
  Si  Si169  1  0.438821  -0.000000  0.187988  1
  Si  Si170  1  0.438819  0.500507  0.187818  1
  Si  Si171  1  0.938450  0.000000  0.240630  1
  Si  Si172  1  0.938449  0.499411  0.240858  1
  Si  Si173  1  0.563909  0.182666  0.331817  1
  Si  Si174  1  0.563806  0.683712  0.332227  1
  Si  Si175  1  0.563805  0.816355  0.397956  1
  Si  Si176  1  0.563908  0.317399  0.397172  1
  Si  Si177  1  0.064459  0.183723  0.384500  1
  Si  Si178  1  0.064335  0.682552  0.385393  1
  Si  Si179  1  0.064340  0.817543  0.450702  1
  Si  Si180  1  0.064459  0.316374  0.450228  1
  Si  Si181  1  0.435309  0.817464  0.450656  1
  Si  Si182  1  0.435427  0.316441  0.450240  1
  Si  Si183  1  0.435428  0.183625  0.384542  1
  Si  Si184  1  0.435303  0.682601  0.385324  1
  Si  Si185  1  0.935884  0.816302  0.398027  1
  Si  Si186  1  0.935972  0.317501  0.397129  1
  Si  Si187  1  0.935975  0.182597  0.331804  1
  Si  Si188  1  0.935885  0.683791  0.332274  1
  Si  Si189  1  0.561393  0.000000  0.419556  1
  Si  Si190  1  0.561393  0.499493  0.419749  1
  Si  Si191  1  0.061023  0.000000  0.366945  1
  Si  Si192  1  0.061022  0.500607  0.366745  1
  Si  Si193  1  0.438821  0.000000  0.366912  1
  Si  Si194  1  0.438819  0.500507  0.366743  1
  Si  Si195  1  0.938450  0.000000  0.419555  1
  Si  Si196  1  0.938449  0.499411  0.419783  1
  Si  Si197  1  0.563909  0.182666  0.510741  1
  Si  Si198  1  0.563806  0.683712  0.511151  1
  Si  Si199  1  0.563805  0.816355  0.576881  1
  Si  Si200  1  0.563908  0.317399  0.576097  1
  Si  Si201  1  0.064459  0.183723  0.563425  1
  Si  Si202  1  0.064335  0.682552  0.564318  1
  Si  Si203  1  0.064340  0.817543  0.629627  1
  Si  Si204  1  0.064459  0.316374  0.629152  1
  Si  Si205  1  0.435309  0.817464  0.629581  1
  Si  Si206  1  0.435427  0.316441  0.629165  1
  Si  Si207  1  0.435428  0.183625  0.563467  1
  Si  Si208  1  0.435303  0.682601  0.564248  1
  Si  Si209  1  0.935884  0.816302  0.576952  1
  Si  Si210  1  0.935972  0.317501  0.576054  1
  Si  Si211  1  0.935975  0.182597  0.510728  1
  Si  Si212  1  0.935885  0.683791  0.511199  1
  Si  Si213  1  0.561393  0.000000  0.598481  1
  Si  Si214  1  0.561393  0.499493  0.598674  1
  Si  Si215  1  0.061023  0.000000  0.545870  1
  Si  Si216  1  0.061022  0.500607  0.545670  1
  Si  Si217  1  0.438821  0.000000  0.545837  1
  Si  Si218  1  0.438819  0.500507  0.545668  1
  Si  Si219  1  0.938450  0.000000  0.598479  1
  Si  Si220  1  0.938449  0.499411  0.598708  1
  H  H221  1  0.482925  0.248531  0.107481  1
  H  H222  1  0.483052  0.750261  0.107960  1
  H  H223  1  0.016728  0.750442  0.108028  1
  H  H224  1  0.016956  0.248360  0.107456  1
  H  H225  1  0.482925  0.248531  0.677084  1
  H  H226  1  0.483052  0.750261  0.677564  1
  H  H227  1  0.016728  0.750442  0.677631  1
  H  H228  1  0.016956  0.248360  0.677060  1
