# generated using pymatgen
data_Si6H2O13
_symmetry_space_group_name_H-M   'P 1'
_cell_length_a   9.64820297
_cell_length_b   7.59048876
_cell_length_c   31.24344730
_cell_angle_alpha   90.00000000
_cell_angle_beta   90.00000000
_cell_angle_gamma   90.00000000
_symmetry_Int_Tables_number   1
_chemical_formula_structural   Si6H2O13
_chemical_formula_sum   'Si12 H4 O26'
_cell_volume   2288.10062177
_cell_formula_units_Z   2
loop_
 _symmetry_equiv_pos_site_id
 _symmetry_equiv_pos_as_xyz
  1  'x, y, z'
loop_
 _atom_site_type_symbol
 _atom_site_label
 _atom_site_symmetry_multiplicity
 _atom_site_fract_x
 _atom_site_fract_y
 _atom_site_fract_z
 _atom_site_occupancy
  O  O1  1  0.009188  0.499873  0.188840  1
  O  O2  1  0.061957  0.332700  0.259656  1
  O  O3  1  0.439984  0.332591  0.262622  1
  O  O4  1  0.061944  0.667108  0.259652  1
  O  O5  1  0.439996  0.667202  0.262621  1
  O  O6  1  0.939989  0.667208  0.417311  1
  O  O7  1  0.561946  0.667090  0.420279  1
  O  O8  1  0.939994  0.332594  0.417308  1
  O  O9  1  0.561953  0.332690  0.420278  1
  O  O10  1  0.247048  0.223934  0.310129  1
  O  O11  1  0.247033  0.775863  0.310131  1
  O  O12  1  0.747038  0.775866  0.369798  1
  O  O13  1  0.747039  0.223927  0.369799  1
  O  O14  1  0.068551  0.000000  0.286760  1
  O  O15  1  0.429029  0.000000  0.289554  1
  O  O16  1  0.929018  0.000000  0.390376  1
  O  O17  1  0.568542  0.000000  0.393173  1
  O  O18  1  0.995629  0.245664  0.338178  1
  O  O19  1  0.495630  0.245658  0.341752  1
  O  O20  1  0.995624  0.754148  0.338179  1
  O  O21  1  0.495621  0.754131  0.341754  1
  O  O22  1  0.009188  0.499873  0.486184  1
  O  O23  1  0.509187  0.499921  0.193749  1
  O  O24  1  0.254539  0.499907  0.222189  1
  O  O25  1  0.754541  0.499900  0.457741  1
  O  O26  1  0.509187  0.499921  0.491093  1
  Si  Si27  1  0.088926  0.202036  0.298077  1
  Si  Si28  1  0.407048  0.202030  0.300594  1
  Si  Si29  1  0.088884  0.797759  0.298074  1
  Si  Si30  1  0.407024  0.797789  0.300592  1
  Si  Si31  1  0.907055  0.797781  0.379339  1
  Si  Si32  1  0.588928  0.797764  0.381857  1
  Si  Si33  1  0.907036  0.202009  0.379338  1
  Si  Si34  1  0.588909  0.202050  0.381855  1
  Si  Si35  1  0.093994  0.499908  0.231277  1
  Si  Si36  1  0.413274  0.499874  0.233825  1
  Si  Si37  1  0.913281  0.499918  0.446101  1
  Si  Si38  1  0.593984  0.499881  0.448659  1
  H  H39  1  0.009188  0.499873  0.160034  1
  H  H40  1  0.009188  0.499873  0.514990  1
  H  H41  1  0.509187  0.499921  0.164943  1
  H  H42  1  0.509187  0.499921  0.519899  1
