# generated using pymatgen
data_Si6H2O13
_symmetry_space_group_name_H-M   'P 1'
_cell_length_a   13.44944935
_cell_length_b   13.44833066
_cell_length_c   35.96241131
_cell_angle_alpha   90.00000000
_cell_angle_beta   90.00000000
_cell_angle_gamma   90.00000000
_symmetry_Int_Tables_number   1
_chemical_formula_structural   Si6H2O13
_chemical_formula_sum   'Si48 H16 O104'
_cell_volume   6504.61634844
_cell_formula_units_Z   8
loop_
 _symmetry_equiv_pos_site_id
 _symmetry_equiv_pos_as_xyz
  1  'x, y, z'
loop_
 _atom_site_type_symbol
 _atom_site_label
 _atom_site_symmetry_multiplicity
 _atom_site_fract_x
 _atom_site_fract_y
 _atom_site_fract_z
 _atom_site_occupancy
  O  O1  1  0.379365  0.360667  0.164064  1
  O  O2  1  0.120446  0.860687  0.164073  1
  O  O3  1  0.620447  0.139453  0.164071  1
  O  O4  1  0.879364  0.639480  0.164060  1
  O  O5  1  0.473416  0.120585  0.413100  1
  O  O6  1  0.120444  0.139481  0.370884  1
  O  O7  1  0.139306  0.026567  0.502884  1
  O  O8  1  0.223399  0.110695  0.312554  1
  O  O9  1  0.129357  0.223590  0.506603  1
  O  O10  1  0.110529  0.129561  0.444563  1
  O  O11  1  0.129347  0.276577  0.319609  1
  O  O12  1  0.026391  0.120601  0.308848  1
  O  O13  1  0.360536  0.026559  0.219056  1
  O  O14  1  0.379368  0.139452  0.351060  1
  O  O15  1  0.276405  0.110668  0.409388  1
  O  O16  1  0.389287  0.129552  0.277381  1
  O  O17  1  0.370450  0.276549  0.402331  1
  O  O18  1  0.370461  0.223580  0.215342  1
  O  O19  1  0.120435  0.639491  0.351060  1
  O  O20  1  0.473422  0.379556  0.226097  1
  O  O21  1  0.139314  0.526570  0.219061  1
  O  O22  1  0.473397  0.620598  0.308829  1
  O  O23  1  0.139275  0.473598  0.315890  1
  O  O24  1  0.120441  0.360695  0.183888  1
  O  O25  1  0.223404  0.389467  0.499543  1
  O  O26  1  0.389290  0.629541  0.444552  1
  O  O27  1  0.110528  0.370601  0.257567  1
  O  O28  1  0.276384  0.610683  0.312547  1
  O  O29  1  0.026396  0.379554  0.495830  1
  O  O30  1  0.360510  0.526553  0.502875  1
  O  O31  1  0.379362  0.639453  0.370872  1
  O  O32  1  0.379365  0.360667  0.538048  1
  O  O33  1  0.026392  0.620596  0.413095  1
  O  O34  1  0.360504  0.473572  0.406046  1
  O  O35  1  0.110493  0.629560  0.277380  1
  O  O36  1  0.276411  0.389466  0.222393  1
  O  O37  1  0.223404  0.610673  0.409383  1
  O  O38  1  0.389286  0.370583  0.464369  1
  O  O39  1  0.139291  0.973589  0.406054  1
  O  O40  1  0.120446  0.860687  0.538057  1
  O  O41  1  0.473412  0.879543  0.495830  1
  O  O42  1  0.389304  0.870592  0.257565  1
  O  O43  1  0.370446  0.723574  0.506591  1
  O  O44  1  0.370438  0.776561  0.319603  1
  O  O45  1  0.276401  0.889462  0.499544  1
  O  O46  1  0.379373  0.860665  0.183885  1
  O  O47  1  0.360488  0.973582  0.315885  1
  O  O48  1  0.026408  0.879558  0.226113  1
  O  O49  1  0.129362  0.776567  0.402340  1
  O  O50  1  0.110506  0.870602  0.464378  1
  O  O51  1  0.129371  0.723593  0.215345  1
  O  O52  1  0.223423  0.889477  0.222396  1
  O  O53  1  0.620447  0.139453  0.538055  1
  O  O54  1  0.639297  0.026556  0.406051  1
  O  O55  1  0.973417  0.120595  0.495832  1
  O  O56  1  0.870436  0.223595  0.319599  1
  O  O57  1  0.889313  0.129559  0.257564  1
  O  O58  1  0.870444  0.276564  0.506588  1
  O  O59  1  0.776404  0.110669  0.499544  1
  O  O60  1  0.860496  0.026572  0.315884  1
  O  O61  1  0.879373  0.139487  0.183884  1
  O  O62  1  0.526411  0.120596  0.226113  1
  O  O63  1  0.610520  0.129543  0.464375  1
  O  O64  1  0.629371  0.276559  0.215340  1
  O  O65  1  0.629362  0.223578  0.402335  1
  O  O66  1  0.723424  0.110681  0.222396  1
  O  O67  1  0.973417  0.620598  0.226096  1
  O  O68  1  0.639317  0.473581  0.219057  1
  O  O69  1  0.620433  0.360669  0.351057  1
  O  O70  1  0.620441  0.639453  0.183882  1
  O  O71  1  0.973399  0.379561  0.308832  1
  O  O72  1  0.639273  0.526561  0.315886  1
  O  O73  1  0.889297  0.370601  0.444551  1
  O  O74  1  0.723404  0.610669  0.499538  1
  O  O75  1  0.776385  0.389480  0.312547  1
  O  O76  1  0.610519  0.629552  0.257560  1
  O  O77  1  0.879359  0.360688  0.370871  1
  O  O78  1  0.526393  0.620582  0.495826  1
  O  O79  1  0.860515  0.473587  0.502874  1
  O  O80  1  0.526393  0.379545  0.413096  1
  O  O81  1  0.860502  0.526567  0.406044  1
  O  O82  1  0.879364  0.639480  0.538044  1
  O  O83  1  0.776408  0.610692  0.222389  1
  O  O84  1  0.610505  0.370593  0.277377  1
  O  O85  1  0.889283  0.629558  0.464366  1
  O  O86  1  0.723404  0.389467  0.409383  1
  O  O87  1  0.973409  0.879556  0.413098  1
  O  O88  1  0.639301  0.973572  0.502880  1
  O  O89  1  0.620441  0.860668  0.370878  1
  O  O90  1  0.723397  0.889470  0.312551  1
  O  O91  1  0.610516  0.870585  0.444557  1
  O  O92  1  0.629347  0.723583  0.319600  1
  O  O93  1  0.629357  0.776549  0.506594  1
  O  O94  1  0.526386  0.879559  0.308845  1
  O  O95  1  0.879364  0.860695  0.351057  1
  O  O96  1  0.860532  0.973596  0.219055  1
  O  O97  1  0.776400  0.889467  0.409385  1
  O  O98  1  0.870460  0.776574  0.215336  1
  O  O99  1  0.889281  0.870601  0.277378  1
  O  O100  1  0.870449  0.723590  0.402326  1
  O  O101  1  0.120441  0.360695  0.557872  1
  O  O102  1  0.379373  0.860665  0.557869  1
  O  O103  1  0.879373  0.139487  0.557868  1
  O  O104  1  0.620441  0.639453  0.557866  1
  Si  Si105  1  0.160615  0.089382  0.407723  1
  Si  Si106  1  0.089202  0.125077  0.487864  1
  Si  Si107  1  0.124894  0.160782  0.327581  1
  Si  Si108  1  0.339183  0.089379  0.314219  1
  Si  Si109  1  0.410625  0.125072  0.234081  1
  Si  Si110  1  0.374913  0.160753  0.394363  1
  Si  Si111  1  0.089196  0.625079  0.234077  1
  Si  Si112  1  0.124898  0.660775  0.394364  1
  Si  Si113  1  0.160626  0.410775  0.220728  1
  Si  Si114  1  0.160594  0.589392  0.314219  1
  Si  Si115  1  0.089187  0.375083  0.300866  1
  Si  Si116  1  0.124896  0.339387  0.514569  1
  Si  Si117  1  0.339193  0.410759  0.501208  1
  Si  Si118  1  0.410610  0.625064  0.487853  1
  Si  Si119  1  0.374897  0.660764  0.327570  1
  Si  Si120  1  0.410609  0.375063  0.421068  1
  Si  Si121  1  0.374916  0.339374  0.207367  1
  Si  Si122  1  0.339190  0.589367  0.407713  1
  Si  Si123  1  0.089190  0.875078  0.421075  1
  Si  Si124  1  0.124911  0.839389  0.207376  1
  Si  Si125  1  0.160616  0.910771  0.501215  1
  Si  Si126  1  0.410604  0.875074  0.300868  1
  Si  Si127  1  0.374909  0.839368  0.514566  1
  Si  Si128  1  0.339213  0.910766  0.220725  1
  Si  Si129  1  0.589199  0.125067  0.421073  1
  Si  Si130  1  0.624912  0.160762  0.207373  1
  Si  Si131  1  0.660617  0.089367  0.501213  1
  Si  Si132  1  0.910611  0.125081  0.300867  1
  Si  Si133  1  0.874910  0.160772  0.514564  1
  Si  Si134  1  0.839213  0.089390  0.220725  1
  Si  Si135  1  0.660623  0.589378  0.220723  1
  Si  Si136  1  0.589203  0.375073  0.234074  1
  Si  Si137  1  0.624897  0.339372  0.394361  1
  Si  Si138  1  0.589183  0.625074  0.300861  1
  Si  Si139  1  0.624896  0.660754  0.514563  1
  Si  Si140  1  0.660595  0.410768  0.314217  1
  Si  Si141  1  0.910615  0.375076  0.487853  1
  Si  Si142  1  0.874895  0.339391  0.327568  1
  Si  Si143  1  0.839194  0.589381  0.501205  1
  Si  Si144  1  0.839190  0.410772  0.407713  1
  Si  Si145  1  0.910607  0.625077  0.421065  1
  Si  Si146  1  0.874914  0.660780  0.207363  1
  Si  Si147  1  0.660612  0.910761  0.407718  1
  Si  Si148  1  0.589196  0.875064  0.487858  1
  Si  Si149  1  0.624892  0.839376  0.327575  1
  Si  Si150  1  0.839183  0.910777  0.314217  1
  Si  Si151  1  0.910621  0.875081  0.234079  1
  Si  Si152  1  0.874909  0.839386  0.394359  1
  H  H153  1  0.379365  0.360667  0.139038  1
  H  H154  1  0.120446  0.860687  0.139046  1
  H  H155  1  0.620447  0.139453  0.139045  1
  H  H156  1  0.879364  0.639480  0.139034  1
  H  H157  1  0.120441  0.360695  0.158862  1
  H  H158  1  0.379365  0.360667  0.563074  1
  H  H159  1  0.120446  0.860687  0.563083  1
  H  H160  1  0.379373  0.860665  0.158859  1
  H  H161  1  0.620447  0.139453  0.563081  1
  H  H162  1  0.879373  0.139487  0.158858  1
  H  H163  1  0.620441  0.639453  0.158856  1
  H  H164  1  0.879364  0.639480  0.563070  1
  H  H165  1  0.120441  0.360695  0.582898  1
  H  H166  1  0.379373  0.860665  0.582895  1
  H  H167  1  0.879373  0.139487  0.582894  1
  H  H168  1  0.620441  0.639453  0.582892  1
