# generated using pymatgen
data_Si6H2O13
_symmetry_space_group_name_H-M   'P 1'
_cell_length_a   8.32030442
_cell_length_b   13.45714247
_cell_length_c   33.46959548
_cell_angle_alpha   90.00000000
_cell_angle_beta   90.00000000
_cell_angle_gamma   90.00000000
_symmetry_Int_Tables_number   1
_chemical_formula_structural   Si6H2O13
_chemical_formula_sum   'Si24 H8 O52'
_cell_volume   3747.50766755
_cell_formula_units_Z   4
loop_
 _symmetry_equiv_pos_site_id
 _symmetry_equiv_pos_as_xyz
  1  'x, y, z'
loop_
 _atom_site_type_symbol
 _atom_site_label
 _atom_site_symmetry_multiplicity
 _atom_site_fract_x
 _atom_site_fract_y
 _atom_site_fract_z
 _atom_site_occupancy
  O  O1  1  0.735034  0.382462  0.373001  1
  O  O2  1  0.264732  0.382443  0.373008  1
  O  O3  1  0.235487  0.882462  0.328164  1
  O  O4  1  0.764324  0.882483  0.328162  1
  O  O5  1  0.255041  0.617338  0.327673  1
  O  O6  1  0.744705  0.617356  0.327665  1
  O  O7  1  0.755752  0.117362  0.373522  1
  O  O8  1  0.244020  0.117344  0.373527  1
  O  O9  1  0.751527  0.249601  0.319604  1
  O  O10  1  0.248259  0.249583  0.319609  1
  O  O11  1  0.251298  0.749669  0.381568  1
  O  O12  1  0.748466  0.749689  0.381561  1
  O  O13  1  0.764499  0.441876  0.302712  1
  O  O14  1  0.235229  0.441857  0.302721  1
  O  O15  1  0.264523  0.941940  0.398458  1
  O  O16  1  0.735291  0.941959  0.398456  1
  O  O17  1  0.240697  0.557206  0.398194  1
  O  O18  1  0.759091  0.557226  0.398185  1
  O  O19  1  0.739713  0.057179  0.303046  1
  O  O20  1  0.260068  0.057164  0.303051  1
  O  O21  1  0.499879  0.361472  0.325232  1
  O  O22  1  -0.000000  0.861738  0.375824  1
  O  O23  1  0.499883  0.636757  0.372153  1
  O  O24  1  -0.000000  0.136344  0.328730  1
  O  O25  1  0.759576  0.085527  0.524933  1
  O  O26  1  0.261962  0.587526  0.252449  1
  O  O27  1  0.240321  0.085514  0.524942  1
  O  O28  1  0.737798  0.587564  0.252442  1
  O  O29  1  0.761212  0.087674  0.448774  1
  O  O30  1  0.259222  0.585624  0.176289  1
  O  O31  1  0.238623  0.087635  0.448782  1
  O  O32  1  0.740439  0.585641  0.176282  1
  O  O33  1  0.251936  0.911680  0.176282  1
  O  O34  1  0.759915  0.409520  0.448821  1
  O  O35  1  0.747998  0.911734  0.176279  1
  O  O36  1  0.239791  0.409496  0.448830  1
  O  O37  1  0.257444  0.909858  0.252386  1
  O  O38  1  0.748222  0.412240  0.524934  1
  O  O39  1  0.742377  0.909857  0.252385  1
  O  O40  1  0.251460  0.412190  0.524942  1
  O  O41  1  -0.000000  0.563477  0.292089  1
  O  O42  1  0.499902  0.063648  0.408808  1
  O  O43  1  -0.000000  0.438822  0.402318  1
  O  O44  1  0.499901  0.937945  0.298263  1
  O  O45  1  0.265859  0.248513  0.487665  1
  O  O46  1  0.766341  0.748515  0.213735  1
  O  O47  1  0.733975  0.248543  0.487662  1
  O  O48  1  0.233398  0.748490  0.213751  1
  O  O49  1  0.000000  0.157170  0.487499  1
  O  O50  1  0.499855  0.657575  0.213549  1
  O  O51  1  0.000000  0.868793  0.215432  1
  O  O52  1  0.499867  0.368109  0.484483  1
  Si  Si53  1  0.686948  0.356942  0.328695  1
  Si  Si54  1  0.312814  0.356928  0.328701  1
  Si  Si55  1  0.186977  0.857063  0.372443  1
  Si  Si56  1  0.812816  0.857077  0.372441  1
  Si  Si57  1  0.312583  0.642299  0.371256  1
  Si  Si58  1  0.687183  0.642317  0.371249  1
  Si  Si59  1  0.812607  0.142164  0.329866  1
  Si  Si60  1  0.187172  0.142148  0.329870  1
  Si  Si61  1  0.186679  0.552162  0.292697  1
  Si  Si62  1  0.813061  0.552179  0.292689  1
  Si  Si63  1  0.686705  0.052282  0.408448  1
  Si  Si64  1  0.313102  0.052264  0.408450  1
  Si  Si65  1  0.813575  0.447146  0.406885  1
  Si  Si66  1  0.186180  0.447129  0.406890  1
  Si  Si67  1  0.313530  0.946997  0.294182  1
  Si  Si68  1  0.686272  0.947007  0.294177  1
  Si  Si69  1  0.185853  0.144181  0.487187  1
  Si  Si70  1  0.685771  0.644325  0.214018  1
  Si  Si71  1  0.813997  0.144214  0.487178  1
  Si  Si72  1  0.313949  0.644294  0.214024  1
  Si  Si73  1  0.813913  0.860074  0.214441  1
  Si  Si74  1  0.313905  0.359967  0.486537  1
  Si  Si75  1  0.185919  0.860063  0.214444  1
  Si  Si76  1  0.685834  0.359983  0.486530  1
  H  H77  1  0.759576  0.085527  0.551823  1
  H  H78  1  0.240321  0.085514  0.551832  1
  H  H79  1  0.259222  0.585624  0.149399  1
  H  H80  1  0.740439  0.585641  0.149392  1
  H  H81  1  0.251936  0.911680  0.149392  1
  H  H82  1  0.747998  0.911734  0.149389  1
  H  H83  1  0.748222  0.412240  0.551824  1
  H  H84  1  0.251460  0.412190  0.551832  1
