# generated using pymatgen
data_Si10H2O21
_symmetry_space_group_name_H-M   'P 1'
_cell_length_a   21.53046891
_cell_length_b   20.31202810
_cell_length_c   53.14477412
_cell_angle_alpha   59.95796653
_cell_angle_beta   90.00000000
_cell_angle_gamma   69.29978325
_symmetry_Int_Tables_number   1
_chemical_formula_structural   Si10H2O21
_chemical_formula_sum   'Si160 H32 O336'
_cell_volume   18365.5885602
_cell_formula_units_Z   16
loop_
 _symmetry_equiv_pos_site_id
 _symmetry_equiv_pos_as_xyz
  1  'x, y, z'
loop_
 _atom_site_type_symbol
 _atom_site_label
 _atom_site_symmetry_multiplicity
 _atom_site_fract_x
 _atom_site_fract_y
 _atom_site_fract_z
 _atom_site_occupancy
  O  O1  1  0.499453  0.139861  0.170526  1
  O  O2  1  0.499453  0.639860  0.266198  1
  O  O3  1  0.001109  0.138863  0.170580  1
  O  O4  1  0.001109  0.638863  0.266252  1
  O  O5  1  0.501138  0.859403  0.224050  1
  O  O6  1  0.501138  0.359402  0.128379  1
  O  O7  1  0.000000  0.860488  0.223982  1
  O  O8  1  0.000000  0.360488  0.128310  1
  O  O9  1  0.000000  0.389401  0.218447  1
  O  O10  1  0.498700  0.390046  0.218189  1
  O  O11  1  0.998686  0.610645  0.175976  1
  O  O12  1  0.998686  0.110645  0.271648  1
  O  O13  1  0.500434  0.109926  0.271928  1
  O  O14  1  0.500434  0.609926  0.176256  1
  O  O15  1  0.465420  0.642219  0.217891  1
  O  O16  1  0.965364  0.641881  0.217924  1
  O  O17  1  0.465409  0.892285  0.170007  1
  O  O18  1  0.465409  0.392285  0.265679  1
  O  O19  1  0.965345  0.891939  0.170041  1
  O  O20  1  0.965345  0.391939  0.265713  1
  O  O21  1  0.034396  0.357751  0.176643  1
  O  O22  1  0.034396  0.857751  0.272315  1
  O  O23  1  0.534454  0.857316  0.272373  1
  O  O24  1  0.534454  0.357316  0.176701  1
  O  O25  1  0.034407  0.107814  0.224439  1
  O  O26  1  0.034407  0.607814  0.128767  1
  O  O27  1  0.534463  0.107373  0.224494  1
  O  O28  1  0.534463  0.607374  0.128822  1
  O  O29  1  0.369969  0.714224  0.235465  1
  O  O30  1  0.871266  0.712337  0.236324  1
  O  O31  1  0.371519  0.915910  0.197584  1
  O  O32  1  0.870263  0.915460  0.197096  1
  O  O33  1  0.870263  0.415460  0.292768  1
  O  O34  1  0.129861  0.334292  0.212483  1
  O  O35  1  0.628545  0.333689  0.213103  1
  O  O36  1  0.128301  0.037527  0.269983  1
  O  O37  1  0.128301  0.537527  0.174311  1
  O  O38  1  0.629507  0.035818  0.269754  1
  O  O39  1  0.629507  0.535818  0.174082  1
  O  O40  1  0.630147  0.785497  0.254665  1
  O  O41  1  0.630147  0.285497  0.158993  1
  O  O42  1  0.128749  0.287375  0.158171  1
  O  O43  1  0.128749  0.787375  0.253843  1
  O  O44  1  0.629225  0.083448  0.197339  1
  O  O45  1  0.130331  0.083982  0.197812  1
  O  O46  1  0.869680  0.665753  0.181905  1
  O  O47  1  0.869680  0.165753  0.277577  1
  O  O48  1  0.371055  0.166206  0.277036  1
  O  O49  1  0.371055  0.666206  0.181364  1
  O  O50  1  0.870631  0.462781  0.220403  1
  O  O51  1  0.369480  0.464397  0.220695  1
  O  O52  1  0.455881  0.771989  0.215077  1
  O  O53  1  0.956049  0.771557  0.215188  1
  O  O54  1  0.043941  0.477979  0.175656  1
  O  O55  1  0.043941  0.977978  0.271328  1
  O  O56  1  0.543739  0.977692  0.271417  1
  O  O57  1  0.543739  0.477692  0.175745  1
  O  O58  1  0.544561  0.227296  0.179544  1
  O  O59  1  0.544561  0.727296  0.275216  1
  O  O60  1  0.044278  0.227808  0.179424  1
  O  O61  1  0.044278  0.727808  0.275096  1
  O  O62  1  0.955276  0.521954  0.218834  1
  O  O63  1  0.455532  0.522161  0.218779  1
  O  O64  1  0.277533  0.740068  0.198239  1
  O  O65  1  0.777595  0.730451  0.201896  1
  O  O66  1  0.277525  0.989883  0.152591  1
  O  O67  1  0.277525  0.489883  0.248263  1
  O  O68  1  0.777431  0.988158  0.151719  1
  O  O69  1  0.777431  0.488158  0.247391  1
  O  O70  1  0.222285  0.267695  0.192949  1
  O  O71  1  0.222285  0.767695  0.288621  1
  O  O72  1  0.722225  0.758122  0.292274  1
  O  O73  1  0.722225  0.258122  0.196602  1
  O  O74  1  0.222292  0.017511  0.242975  1
  O  O75  1  0.222292  0.517511  0.147303  1
  O  O76  1  0.722386  0.015779  0.242160  1
  O  O77  1  0.722386  0.515779  0.146488  1
  O  O78  1  0.251411  0.248568  0.244085  1
  O  O79  1  0.251411  0.748567  0.148413  1
  O  O80  1  0.749077  0.754539  0.149663  1
  O  O81  1  0.749077  0.254539  0.245335  1
  O  O82  1  0.247579  0.500815  0.198746  1
  O  O83  1  0.750678  0.494033  0.198611  1
  O  O84  1  0.248403  0.250065  0.148129  1
  O  O85  1  0.248403  0.750065  0.243801  1
  O  O86  1  0.750756  0.753661  0.245504  1
  O  O87  1  0.750756  0.253661  0.149832  1
  O  O88  1  0.252233  0.998494  0.199193  1
  O  O89  1  0.749055  0.994929  0.198375  1
  O  O90  1  0.279810  0.611752  0.198880  1
  O  O91  1  0.778651  0.609509  0.197493  1
  O  O92  1  0.219997  0.141666  0.193153  1
  O  O93  1  0.219997  0.641666  0.288825  1
  O  O94  1  0.721179  0.138210  0.192010  1
  O  O95  1  0.721179  0.638210  0.287682  1
  O  O96  1  0.718342  0.889512  0.289587  1
  O  O97  1  0.718342  0.389512  0.193915  1
  O  O98  1  0.219779  0.891769  0.291051  1
  O  O99  1  0.219779  0.391769  0.195379  1
  O  O100  1  0.781444  0.857951  0.199966  1
  O  O101  1  0.280049  0.861627  0.201151  1
  O  O102  1  0.499453  0.139861  0.361870  1
  O  O103  1  0.499453  0.639861  0.457542  1
  O  O104  1  0.001109  0.138863  0.361924  1
  O  O105  1  0.001109  0.638863  0.457595  1
  O  O106  1  0.501138  0.859402  0.415394  1
  O  O107  1  0.501138  0.359402  0.319722  1
  O  O108  1  0.000000  0.860488  0.415326  1
  O  O109  1  0.000000  0.360489  0.319654  1
  O  O110  1  0.000000  0.389401  0.409791  1
  O  O111  1  0.000000  0.889401  0.314119  1
  O  O112  1  0.498700  0.890046  0.313861  1
  O  O113  1  0.498700  0.390046  0.409533  1
  O  O114  1  0.998686  0.610644  0.367320  1
  O  O115  1  0.998686  0.110645  0.462992  1
  O  O116  1  0.500434  0.109926  0.463271  1
  O  O117  1  0.500434  0.609926  0.367599  1
  O  O118  1  0.465420  0.142220  0.313563  1
  O  O119  1  0.465420  0.642219  0.409235  1
  O  O120  1  0.965364  0.641881  0.409268  1
  O  O121  1  0.965364  0.141881  0.313596  1
  O  O122  1  0.465409  0.892285  0.361351  1
  O  O123  1  0.465409  0.392285  0.457023  1
  O  O124  1  0.965345  0.891939  0.361385  1
  O  O125  1  0.965345  0.391939  0.457057  1
  O  O126  1  0.034396  0.357751  0.367987  1
  O  O127  1  0.034396  0.857751  0.463659  1
  O  O128  1  0.534454  0.857316  0.463717  1
  O  O129  1  0.534454  0.357316  0.368045  1
  O  O130  1  0.034407  0.107814  0.415783  1
  O  O131  1  0.034407  0.607814  0.320111  1
  O  O132  1  0.534463  0.107374  0.415838  1
  O  O133  1  0.534463  0.607373  0.320166  1
  O  O134  1  0.369969  0.214224  0.331137  1
  O  O135  1  0.369969  0.714224  0.426809  1
  O  O136  1  0.871266  0.712337  0.427668  1
  O  O137  1  0.871266  0.212337  0.331996  1
  O  O138  1  0.371519  0.915910  0.388927  1
  O  O139  1  0.371519  0.415910  0.293255  1
  O  O140  1  0.870263  0.915460  0.388440  1
  O  O141  1  0.870263  0.415460  0.484111  1
  O  O142  1  0.129861  0.334292  0.403827  1
  O  O143  1  0.129861  0.834292  0.308155  1
  O  O144  1  0.628545  0.833690  0.308775  1
  O  O145  1  0.628545  0.333689  0.404447  1
  O  O146  1  0.128301  0.037527  0.461327  1
  O  O147  1  0.128301  0.537527  0.365655  1
  O  O148  1  0.629507  0.035818  0.461098  1
  O  O149  1  0.629507  0.535818  0.365426  1
  O  O150  1  0.630147  0.785497  0.446009  1
  O  O151  1  0.630147  0.285497  0.350337  1
  O  O152  1  0.128749  0.287375  0.349515  1
  O  O153  1  0.128749  0.787375  0.445187  1
  O  O154  1  0.629225  0.083448  0.388683  1
  O  O155  1  0.629225  0.583448  0.293011  1
  O  O156  1  0.130331  0.083982  0.389156  1
  O  O157  1  0.130331  0.583982  0.293484  1
  O  O158  1  0.869680  0.665753  0.373249  1
  O  O159  1  0.869680  0.165753  0.468920  1
  O  O160  1  0.371055  0.166206  0.468379  1
  O  O161  1  0.371055  0.666206  0.372708  1
  O  O162  1  0.870631  0.962781  0.316074  1
  O  O163  1  0.870631  0.462781  0.411746  1
  O  O164  1  0.369480  0.964397  0.316367  1
  O  O165  1  0.369480  0.464397  0.412039  1
  O  O166  1  0.455881  0.271989  0.310748  1
  O  O167  1  0.455881  0.771989  0.406420  1
  O  O168  1  0.956049  0.771557  0.406532  1
  O  O169  1  0.956049  0.271557  0.310860  1
  O  O170  1  0.043941  0.477979  0.367000  1
  O  O171  1  0.043941  0.977979  0.462672  1
  O  O172  1  0.543739  0.977692  0.462760  1
  O  O173  1  0.543739  0.477692  0.367088  1
  O  O174  1  0.544561  0.227296  0.370887  1
  O  O175  1  0.544561  0.727296  0.466559  1
  O  O176  1  0.044278  0.227808  0.370768  1
  O  O177  1  0.044278  0.727808  0.466440  1
  O  O178  1  0.955276  0.021954  0.314506  1
  O  O179  1  0.955276  0.521954  0.410178  1
  O  O180  1  0.455532  0.022161  0.314451  1
  O  O181  1  0.455532  0.522161  0.410123  1
  O  O182  1  0.277533  0.240069  0.293911  1
  O  O183  1  0.277533  0.740069  0.389583  1
  O  O184  1  0.777595  0.730451  0.393240  1
  O  O185  1  0.777595  0.230451  0.297568  1
  O  O186  1  0.277525  0.989883  0.343934  1
  O  O187  1  0.277525  0.489883  0.439606  1
  O  O188  1  0.777431  0.988158  0.343063  1
  O  O189  1  0.777431  0.488157  0.438735  1
  O  O190  1  0.222285  0.267696  0.384293  1
  O  O191  1  0.222285  0.767695  0.479965  1
  O  O192  1  0.722225  0.758122  0.483617  1
  O  O193  1  0.722225  0.258122  0.387946  1
  O  O194  1  0.222292  0.017511  0.434319  1
  O  O195  1  0.222292  0.517511  0.338647  1
  O  O196  1  0.722386  0.015779  0.433503  1
  O  O197  1  0.722386  0.515779  0.337832  1
  O  O198  1  0.251411  0.248568  0.435429  1
  O  O199  1  0.251411  0.748568  0.339757  1
  O  O200  1  0.749077  0.754539  0.341007  1
  O  O201  1  0.749077  0.254538  0.436678  1
  O  O202  1  0.247579  0.000000  0.294418  1
  O  O203  1  0.247579  0.500815  0.390090  1
  O  O204  1  0.750678  0.994033  0.294283  1
  O  O205  1  0.750678  0.494032  0.389955  1
  O  O206  1  0.248403  0.250065  0.339473  1
  O  O207  1  0.248403  0.750065  0.435145  1
  O  O208  1  0.750756  0.753661  0.436847  1
  O  O209  1  0.750756  0.253661  0.341176  1
  O  O210  1  0.252233  0.998494  0.390537  1
  O  O211  1  0.252233  0.498494  0.294865  1
  O  O212  1  0.749055  0.994929  0.389718  1
  O  O213  1  0.749055  0.494929  0.294047  1
  O  O214  1  0.279810  0.111752  0.294552  1
  O  O215  1  0.279810  0.611752  0.390223  1
  O  O216  1  0.778651  0.109509  0.293165  1
  O  O217  1  0.778651  0.609508  0.388837  1
  O  O218  1  0.219997  0.141666  0.384497  1
  O  O219  1  0.219997  0.641665  0.480168  1
  O  O220  1  0.721179  0.138210  0.383353  1
  O  O221  1  0.721179  0.638210  0.479025  1
  O  O222  1  0.718342  0.889512  0.480931  1
  O  O223  1  0.718342  0.389511  0.385259  1
  O  O224  1  0.219779  0.891768  0.482395  1
  O  O225  1  0.219779  0.391769  0.386723  1
  O  O226  1  0.781444  0.857951  0.391309  1
  O  O227  1  0.781444  0.357950  0.295637  1
  O  O228  1  0.280049  0.861627  0.392494  1
  O  O229  1  0.280049  0.361627  0.296822  1
  O  O230  1  0.499453  0.139861  0.553214  1
  O  O231  1  0.499453  0.639861  0.648885  1
  O  O232  1  0.001109  0.138863  0.553267  1
  O  O233  1  0.001109  0.638863  0.648939  1
  O  O234  1  0.501138  0.859403  0.606738  1
  O  O235  1  0.501138  0.359402  0.511066  1
  O  O236  1  0.000000  0.860489  0.606669  1
  O  O237  1  0.000000  0.360489  0.510998  1
  O  O238  1  0.000000  0.389401  0.601135  1
  O  O239  1  0.000000  0.889401  0.505463  1
  O  O240  1  0.498700  0.890046  0.505205  1
  O  O241  1  0.498700  0.390047  0.600876  1
  O  O242  1  0.998686  0.610645  0.558664  1
  O  O243  1  0.500434  0.609926  0.558943  1
  O  O244  1  0.465420  0.142220  0.504907  1
  O  O245  1  0.465420  0.642220  0.600579  1
  O  O246  1  0.965364  0.641881  0.600611  1
  O  O247  1  0.965364  0.141881  0.504940  1
  O  O248  1  0.465409  0.892285  0.552695  1
  O  O249  1  0.465409  0.392285  0.648366  1
  O  O250  1  0.965345  0.891939  0.552729  1
  O  O251  1  0.965345  0.391939  0.648400  1
  O  O252  1  0.034396  0.357751  0.559331  1
  O  O253  1  0.534454  0.357316  0.559389  1
  O  O254  1  0.034407  0.107814  0.607126  1
  O  O255  1  0.034407  0.607814  0.511454  1
  O  O256  1  0.534463  0.107373  0.607181  1
  O  O257  1  0.534463  0.607373  0.511509  1
  O  O258  1  0.369969  0.214224  0.522481  1
  O  O259  1  0.369969  0.714224  0.618153  1
  O  O260  1  0.871266  0.712337  0.619011  1
  O  O261  1  0.871266  0.212337  0.523339  1
  O  O262  1  0.371519  0.915910  0.580271  1
  O  O263  1  0.371519  0.415910  0.484599  1
  O  O264  1  0.870263  0.915461  0.579783  1
  O  O265  1  0.129861  0.334292  0.595171  1
  O  O266  1  0.129861  0.834292  0.499499  1
  O  O267  1  0.628545  0.833690  0.500118  1
  O  O268  1  0.628545  0.333690  0.595790  1
  O  O269  1  0.128301  0.537527  0.556998  1
  O  O270  1  0.629507  0.535818  0.556770  1
  O  O271  1  0.630147  0.285497  0.541680  1
  O  O272  1  0.128749  0.287375  0.540859  1
  O  O273  1  0.629225  0.083448  0.580026  1
  O  O274  1  0.629225  0.583448  0.484354  1
  O  O275  1  0.130331  0.083982  0.580499  1
  O  O276  1  0.130331  0.583982  0.484827  1
  O  O277  1  0.869680  0.665753  0.564592  1
  O  O278  1  0.371055  0.666206  0.564051  1
  O  O279  1  0.870631  0.962781  0.507418  1
  O  O280  1  0.870631  0.462781  0.603090  1
  O  O281  1  0.369480  0.964397  0.507711  1
  O  O282  1  0.369480  0.464397  0.603383  1
  O  O283  1  0.455881  0.271989  0.502092  1
  O  O284  1  0.455881  0.771989  0.597764  1
  O  O285  1  0.956049  0.771557  0.597875  1
  O  O286  1  0.956049  0.271557  0.502204  1
  O  O287  1  0.043941  0.477979  0.558343  1
  O  O288  1  0.543739  0.477692  0.558432  1
  O  O289  1  0.544561  0.227296  0.562231  1
  O  O290  1  0.044278  0.227809  0.562112  1
  O  O291  1  0.955276  0.021954  0.505850  1
  O  O292  1  0.955276  0.521954  0.601522  1
  O  O293  1  0.455532  0.022160  0.505795  1
  O  O294  1  0.455532  0.522161  0.601466  1
  O  O295  1  0.277533  0.240069  0.485255  1
  O  O296  1  0.277533  0.740068  0.580926  1
  O  O297  1  0.777595  0.730451  0.584583  1
  O  O298  1  0.777595  0.230451  0.488912  1
  O  O299  1  0.277525  0.989883  0.535278  1
  O  O300  1  0.277525  0.489883  0.630950  1
  O  O301  1  0.777431  0.988158  0.534406  1
  O  O302  1  0.777431  0.488158  0.630078  1
  O  O303  1  0.222285  0.267696  0.575637  1
  O  O304  1  0.722225  0.258122  0.579289  1
  O  O305  1  0.222292  0.017511  0.625662  1
  O  O306  1  0.222292  0.517511  0.529991  1
  O  O307  1  0.722386  0.015779  0.624847  1
  O  O308  1  0.722386  0.515779  0.529175  1
  O  O309  1  0.251411  0.248568  0.626772  1
  O  O310  1  0.251411  0.748567  0.531101  1
  O  O311  1  0.749077  0.754539  0.532350  1
  O  O312  1  0.749077  0.254538  0.628022  1
  O  O313  1  0.247579  0.000000  0.485762  1
  O  O314  1  0.247579  0.500815  0.581434  1
  O  O315  1  0.750678  0.994033  0.485627  1
  O  O316  1  0.750678  0.494032  0.581299  1
  O  O317  1  0.248403  0.250065  0.530817  1
  O  O318  1  0.248403  0.750065  0.626489  1
  O  O319  1  0.750756  0.753661  0.628191  1
  O  O320  1  0.750756  0.253661  0.532519  1
  O  O321  1  0.252233  0.998494  0.581881  1
  O  O322  1  0.252233  0.498494  0.486209  1
  O  O323  1  0.749055  0.994929  0.581062  1
  O  O324  1  0.749055  0.494928  0.485390  1
  O  O325  1  0.279810  0.111752  0.485895  1
  O  O326  1  0.279810  0.611752  0.581567  1
  O  O327  1  0.778651  0.109509  0.484509  1
  O  O328  1  0.778651  0.609508  0.580181  1
  O  O329  1  0.219997  0.141666  0.575840  1
  O  O330  1  0.721179  0.138210  0.574697  1
  O  O331  1  0.718342  0.389511  0.576603  1
  O  O332  1  0.219779  0.391769  0.578067  1
  O  O333  1  0.781444  0.857951  0.582653  1
  O  O334  1  0.781444  0.357950  0.486981  1
  O  O335  1  0.280049  0.861627  0.583838  1
  O  O336  1  0.280049  0.361627  0.488166  1
  Si  Si337  1  0.448192  0.688038  0.235224  1
  Si  Si338  1  0.949137  0.687122  0.235462  1
  Si  Si339  1  0.449184  0.863216  0.201758  1
  Si  Si340  1  0.948335  0.863275  0.201649  1
  Si  Si341  1  0.051639  0.386331  0.197274  1
  Si  Si342  1  0.550673  0.386335  0.197343  1
  Si  Si343  1  0.050635  0.062511  0.259294  1
  Si  Si344  1  0.050635  0.562511  0.163622  1
  Si  Si345  1  0.551446  0.061701  0.259356  1
  Si  Si346  1  0.551446  0.561701  0.163685  1
  Si  Si347  1  0.552081  0.811362  0.255088  1
  Si  Si348  1  0.552081  0.311362  0.159416  1
  Si  Si349  1  0.051014  0.312353  0.159161  1
  Si  Si350  1  0.051014  0.812352  0.254833  1
  Si  Si351  1  0.551334  0.136063  0.192861  1
  Si  Si352  1  0.551334  0.636063  0.288533  1
  Si  Si353  1  0.052048  0.136094  0.192949  1
  Si  Si354  1  0.052048  0.636094  0.288621  1
  Si  Si355  1  0.947746  0.613548  0.197267  1
  Si  Si356  1  0.448786  0.113446  0.292902  1
  Si  Si357  1  0.448786  0.613447  0.197230  1
  Si  Si358  1  0.948518  0.437482  0.230853  1
  Si  Si359  1  0.447764  0.438216  0.230814  1
  Si  Si360  1  0.292750  0.193160  0.276897  1
  Si  Si361  1  0.292750  0.693160  0.181225  1
  Si  Si362  1  0.791625  0.691162  0.182259  1
  Si  Si363  1  0.791625  0.191162  0.277931  1
  Si  Si364  1  0.291727  0.517565  0.216199  1
  Si  Si365  1  0.792354  0.514655  0.215489  1
  Si  Si366  1  0.207059  0.236015  0.173020  1
  Si  Si367  1  0.207059  0.736015  0.268692  1
  Si  Si368  1  0.708195  0.732839  0.269960  1
  Si  Si369  1  0.708195  0.232839  0.174288  1
  Si  Si370  1  0.208093  0.059386  0.208194  1
  Si  Si371  1  0.707501  0.057045  0.207395  1
  Si  Si372  1  0.706686  0.307447  0.212758  1
  Si  Si373  1  0.207722  0.309579  0.211703  1
  Si  Si374  1  0.707410  0.983136  0.274287  1
  Si  Si375  1  0.707410  0.483135  0.178615  1
  Si  Si376  1  0.206699  0.986187  0.274959  1
  Si  Si377  1  0.206699  0.486186  0.179287  1
  Si  Si378  1  0.793119  0.764224  0.221033  1
  Si  Si379  1  0.292115  0.767380  0.219779  1
  Si  Si380  1  0.792362  0.940661  0.186713  1
  Si  Si381  1  0.792362  0.440661  0.282385  1
  Si  Si382  1  0.293127  0.942964  0.187557  1
  Si  Si383  1  0.293127  0.442964  0.283229  1
  Si  Si384  1  0.448192  0.188038  0.330896  1
  Si  Si385  1  0.448192  0.688038  0.426568  1
  Si  Si386  1  0.949137  0.687122  0.426806  1
  Si  Si387  1  0.949137  0.187122  0.331134  1
  Si  Si388  1  0.449184  0.863216  0.393101  1
  Si  Si389  1  0.449184  0.363216  0.297429  1
  Si  Si390  1  0.948335  0.863275  0.392993  1
  Si  Si391  1  0.948335  0.363275  0.297321  1
  Si  Si392  1  0.051639  0.386331  0.388618  1
  Si  Si393  1  0.051639  0.886331  0.292946  1
  Si  Si394  1  0.550673  0.886335  0.293015  1
  Si  Si395  1  0.550673  0.386335  0.388687  1
  Si  Si396  1  0.050635  0.062511  0.450638  1
  Si  Si397  1  0.050635  0.562511  0.354966  1
  Si  Si398  1  0.551446  0.061701  0.450700  1
  Si  Si399  1  0.551446  0.561700  0.355028  1
  Si  Si400  1  0.552081  0.811362  0.446432  1
  Si  Si401  1  0.552081  0.311362  0.350760  1
  Si  Si402  1  0.051014  0.312352  0.350505  1
  Si  Si403  1  0.051014  0.812352  0.446177  1
  Si  Si404  1  0.551334  0.136063  0.384204  1
  Si  Si405  1  0.551334  0.636062  0.479876  1
  Si  Si406  1  0.052048  0.136094  0.384293  1
  Si  Si407  1  0.052048  0.636094  0.479965  1
  Si  Si408  1  0.947746  0.613548  0.388611  1
  Si  Si409  1  0.947746  0.113548  0.292939  1
  Si  Si410  1  0.448786  0.113447  0.484246  1
  Si  Si411  1  0.448786  0.613446  0.388574  1
  Si  Si412  1  0.948518  0.937482  0.326524  1
  Si  Si413  1  0.948518  0.437482  0.422196  1
  Si  Si414  1  0.447764  0.938216  0.326486  1
  Si  Si415  1  0.447764  0.438216  0.422158  1
  Si  Si416  1  0.292750  0.193160  0.468240  1
  Si  Si417  1  0.292750  0.693160  0.372569  1
  Si  Si418  1  0.791625  0.691162  0.373603  1
  Si  Si419  1  0.791625  0.191162  0.469274  1
  Si  Si420  1  0.291727  0.017565  0.311871  1
  Si  Si421  1  0.291727  0.517565  0.407543  1
  Si  Si422  1  0.792354  0.014655  0.311160  1
  Si  Si423  1  0.792354  0.514655  0.406832  1
  Si  Si424  1  0.207059  0.236015  0.364363  1
  Si  Si425  1  0.207059  0.736015  0.460035  1
  Si  Si426  1  0.708195  0.732838  0.461304  1
  Si  Si427  1  0.708195  0.232838  0.365632  1
  Si  Si428  1  0.208093  0.059386  0.399537  1
  Si  Si429  1  0.208093  0.559386  0.303865  1
  Si  Si430  1  0.707501  0.057045  0.398739  1
  Si  Si431  1  0.707501  0.557044  0.303067  1
  Si  Si432  1  0.706686  0.807448  0.308429  1
  Si  Si433  1  0.706686  0.307447  0.404101  1
  Si  Si434  1  0.207722  0.309579  0.403047  1
  Si  Si435  1  0.207722  0.809579  0.307375  1
  Si  Si436  1  0.707410  0.983135  0.465630  1
  Si  Si437  1  0.707410  0.483135  0.369959  1
  Si  Si438  1  0.206699  0.986187  0.466302  1
  Si  Si439  1  0.206699  0.486186  0.370630  1
  Si  Si440  1  0.793119  0.764224  0.412377  1
  Si  Si441  1  0.793119  0.264225  0.316705  1
  Si  Si442  1  0.292115  0.267380  0.315451  1
  Si  Si443  1  0.292115  0.767380  0.411123  1
  Si  Si444  1  0.792362  0.940661  0.378057  1
  Si  Si445  1  0.792362  0.440661  0.473729  1
  Si  Si446  1  0.293127  0.942964  0.378901  1
  Si  Si447  1  0.293127  0.442964  0.474573  1
  Si  Si448  1  0.448192  0.188038  0.522240  1
  Si  Si449  1  0.448192  0.688038  0.617912  1
  Si  Si450  1  0.949137  0.687122  0.618150  1
  Si  Si451  1  0.949137  0.187122  0.522478  1
  Si  Si452  1  0.449184  0.863216  0.584445  1
  Si  Si453  1  0.449184  0.363216  0.488773  1
  Si  Si454  1  0.948335  0.863275  0.584337  1
  Si  Si455  1  0.948335  0.363275  0.488665  1
  Si  Si456  1  0.051639  0.386331  0.579961  1
  Si  Si457  1  0.051639  0.886330  0.484289  1
  Si  Si458  1  0.550673  0.886334  0.484359  1
  Si  Si459  1  0.550673  0.386334  0.580031  1
  Si  Si460  1  0.050635  0.562511  0.546310  1
  Si  Si461  1  0.551446  0.561701  0.546372  1
  Si  Si462  1  0.552081  0.311362  0.542104  1
  Si  Si463  1  0.051014  0.312352  0.541849  1
  Si  Si464  1  0.551334  0.136062  0.575548  1
  Si  Si465  1  0.052048  0.136094  0.575637  1
  Si  Si466  1  0.947746  0.613548  0.579954  1
  Si  Si467  1  0.947746  0.113548  0.484282  1
  Si  Si468  1  0.448786  0.613447  0.579918  1
  Si  Si469  1  0.948518  0.937482  0.517868  1
  Si  Si470  1  0.948518  0.437482  0.613540  1
  Si  Si471  1  0.447764  0.938216  0.517830  1
  Si  Si472  1  0.447764  0.438216  0.613502  1
  Si  Si473  1  0.292750  0.693160  0.563912  1
  Si  Si474  1  0.791625  0.691162  0.564946  1
  Si  Si475  1  0.291727  0.017565  0.503215  1
  Si  Si476  1  0.291727  0.517565  0.598887  1
  Si  Si477  1  0.792354  0.014655  0.502504  1
  Si  Si478  1  0.792354  0.514655  0.598176  1
  Si  Si479  1  0.207059  0.236014  0.555707  1
  Si  Si480  1  0.708195  0.232838  0.556975  1
  Si  Si481  1  0.208093  0.059386  0.590881  1
  Si  Si482  1  0.208093  0.559386  0.495209  1
  Si  Si483  1  0.707501  0.057045  0.590082  1
  Si  Si484  1  0.707501  0.557044  0.494411  1
  Si  Si485  1  0.706686  0.807447  0.499773  1
  Si  Si486  1  0.706686  0.307447  0.595445  1
  Si  Si487  1  0.207722  0.309579  0.594391  1
  Si  Si488  1  0.207722  0.809579  0.498719  1
  Si  Si489  1  0.707410  0.483136  0.561302  1
  Si  Si490  1  0.206699  0.486187  0.561974  1
  Si  Si491  1  0.793119  0.764225  0.603720  1
  Si  Si492  1  0.793119  0.264224  0.508049  1
  Si  Si493  1  0.292115  0.267380  0.506795  1
  Si  Si494  1  0.292115  0.767380  0.602467  1
  Si  Si495  1  0.792362  0.940660  0.569400  1
  Si  Si496  1  0.293127  0.942964  0.570244  1
  H  H497  1  0.499453  0.139861  0.153591  1
  H  H498  1  0.001109  0.138863  0.153645  1
  H  H499  1  0.501138  0.359402  0.111444  1
  H  H500  1  0.000000  0.360488  0.111375  1
  H  H501  1  0.465409  0.892285  0.153072  1
  H  H502  1  0.965345  0.891939  0.153106  1
  H  H503  1  0.034407  0.607814  0.111832  1
  H  H504  1  0.534463  0.607374  0.111887  1
  H  H505  1  0.277525  0.989883  0.135656  1
  H  H506  1  0.777431  0.988158  0.134784  1
  H  H507  1  0.222292  0.517511  0.130368  1
  H  H508  1  0.722386  0.515778  0.129553  1
  H  H509  1  0.251411  0.748567  0.131478  1
  H  H510  1  0.749077  0.754539  0.132728  1
  H  H511  1  0.248403  0.250065  0.131194  1
  H  H512  1  0.750756  0.253661  0.132897  1
  H  H513  1  0.499453  0.639861  0.665820  1
  H  H514  1  0.001109  0.638863  0.665874  1
  H  H515  1  0.501138  0.859403  0.623673  1
  H  H516  1  0.000000  0.860488  0.623604  1
  H  H517  1  0.465409  0.392285  0.665301  1
  H  H518  1  0.965345  0.391939  0.665335  1
  H  H519  1  0.034407  0.107814  0.624061  1
  H  H520  1  0.534463  0.107374  0.624116  1
  H  H521  1  0.277525  0.489883  0.647885  1
  H  H522  1  0.777431  0.488158  0.647013  1
  H  H523  1  0.222292  0.017511  0.642597  1
  H  H524  1  0.722386  0.015779  0.641782  1
  H  H525  1  0.251411  0.248567  0.643707  1
  H  H526  1  0.749077  0.254539  0.644957  1
  H  H527  1  0.248403  0.750065  0.643423  1
  H  H528  1  0.750756  0.753661  0.645126  1
