# generated using pymatgen
data_Si21(H4O23)2
_symmetry_space_group_name_H-M   'P 1'
_cell_length_a   13.15606496
_cell_length_b   21.99274184
_cell_length_c   45.05234003
_cell_angle_alpha   126.73751749
_cell_angle_beta   120.00000000
_cell_angle_gamma   72.59794531
_symmetry_Int_Tables_number   1
_chemical_formula_structural   Si21(H4O23)2
_chemical_formula_sum   'Si42 H16 O92'
_cell_volume   9046.7818179
_cell_formula_units_Z   2
loop_
 _symmetry_equiv_pos_site_id
 _symmetry_equiv_pos_as_xyz
  1  'x, y, z'
loop_
 _atom_site_type_symbol
 _atom_site_label
 _atom_site_symmetry_multiplicity
 _atom_site_fract_x
 _atom_site_fract_y
 _atom_site_fract_z
 _atom_site_occupancy
  O  O1  1  0.021995  0.647143  0.195467  1
  O  O2  1  0.308670  0.647132  0.195464  1
  O  O3  1  0.774234  0.014144  0.172570  1
  O  O4  1  0.677290  0.931729  0.174203  1
  O  O5  1  0.688722  0.354332  0.311479  1
  O  O6  1  0.331961  0.354286  0.311461  1
  O  O7  1  0.320120  0.069661  0.228615  1
  O  O8  1  0.701520  0.069684  0.228623  1
  O  O9  1  0.205946  0.406119  0.350062  1
  O  O10  1  0.895102  0.406141  0.350062  1
  O  O11  1  0.975411  0.354346  0.395198  1
  O  O12  1  0.331986  0.354317  0.395195  1
  O  O13  1  0.117379  0.396930  0.386420  1
  O  O14  1  0.461276  0.113086  0.301766  1
  O  O15  1  0.767426  0.113110  0.301768  1
  O  O16  1  0.974493  0.069703  0.308323  1
  O  O17  1  0.320055  0.069693  0.308324  1
  O  O18  1  0.543820  0.102213  0.257395  1
  O  O19  1  0.543777  0.102191  0.363877  1
  O  O20  1  0.908512  0.102202  0.363873  1
  O  O21  1  0.401922  0.208358  0.282216  1
  O  O22  1  0.929654  0.208387  0.359623  1
  O  O23  1  0.401898  0.208366  0.359624  1
  O  O24  1  0.664552  0.208384  0.282219  1
  O  O25  1  0.458121  0.303949  0.357041  1
  O  O26  1  0.768991  0.303966  0.357045  1
  O  O27  1  0.547302  0.312592  0.320871  1
  O  O28  1  0.547304  0.312568  0.424291  1
  O  O29  1  0.901509  0.312574  0.424292  1
  O  O30  1  0.110905  0.014165  0.270870  1
  O  O31  1  0.102321  0.595289  0.435521  1
  O  O32  1  0.021995  0.647143  0.487460  1
  O  O33  1  0.308670  0.647132  0.487457  1
  O  O34  1  0.880057  0.604518  0.412351  1
  O  O35  1  0.236020  0.604483  0.412345  1
  O  O36  1  0.264903  0.500719  0.425144  1
  O  O37  1  0.230016  0.888344  0.303680  1
  O  O38  1  0.022936  0.931760  0.275128  1
  O  O39  1  0.295860  0.931754  0.275118  1
  O  O40  1  0.067787  0.793071  0.258512  1
  O  O41  1  0.332847  0.793072  0.258510  1
  O  O42  1  0.228427  0.697477  0.247010  1
  O  O43  1  0.886444  0.987245  0.230255  1
  O  O44  1  0.223174  0.987254  0.230252  1
  O  O45  1  0.998709  0.500739  0.425143  1
  O  O46  1  0.895082  0.406111  0.259288  1
  O  O47  1  0.688732  0.354274  0.207352  1
  O  O48  1  0.975417  0.354256  0.207350  1
  O  O49  1  0.117343  0.396879  0.282460  1
  O  O50  1  0.761389  0.396915  0.282464  1
  O  O51  1  0.767393  0.113056  0.391135  1
  O  O52  1  0.701551  0.069652  0.419699  1
  O  O53  1  0.974474  0.069639  0.419687  1
  O  O54  1  0.664561  0.208333  0.436303  1
  O  O55  1  0.929624  0.208328  0.436300  1
  O  O56  1  0.768986  0.303922  0.447801  1
  O  O57  1  0.110964  0.014150  0.464558  1
  O  O58  1  0.774234  0.014144  0.464562  1
  O  O59  1  0.791461  0.595279  0.344750  1
  O  O60  1  0.102311  0.595256  0.344748  1
  O  O61  1  0.665431  0.647088  0.299618  1
  O  O62  1  0.308692  0.647058  0.383327  1
  O  O63  1  0.665437  0.647105  0.383344  1
  O  O64  1  0.021994  0.647051  0.299610  1
  O  O65  1  0.880036  0.604469  0.308393  1
  O  O66  1  0.998699  0.500659  0.269667  1
  O  O67  1  0.536132  0.888311  0.393047  1
  O  O68  1  0.229981  0.888286  0.393045  1
  O  O69  1  0.677351  0.931713  0.386491  1
  O  O70  1  0.295886  0.931706  0.466189  1
  O  O71  1  0.677290  0.931729  0.466196  1
  O  O72  1  0.022913  0.931694  0.386490  1
  O  O73  1  0.088895  0.899197  0.330941  1
  O  O74  1  0.453631  0.899212  0.330938  1
  O  O75  1  0.453589  0.899180  0.437418  1
  O  O76  1  0.595514  0.793038  0.335189  1
  O  O77  1  0.332857  0.793008  0.412590  1
  O  O78  1  0.595482  0.793034  0.412593  1
  O  O79  1  0.067750  0.793011  0.335188  1
  O  O80  1  0.539287  0.697449  0.337766  1
  O  O81  1  0.228411  0.697431  0.337763  1
  O  O82  1  0.095900  0.688824  0.270517  1
  O  O83  1  0.450111  0.688834  0.270517  1
  O  O84  1  0.450098  0.688803  0.373933  1
  O  O85  1  0.886503  0.987237  0.423945  1
  O  O86  1  0.264877  0.500673  0.347395  1
  O  O87  1  0.732532  0.500719  0.347413  1
  O  O88  1  0.732503  0.500686  0.269667  1
  O  O89  1  0.320120  0.069661  0.520608  1
  O  O90  1  0.223174  0.987254  0.522245  1
  O  O91  1  0.688732  0.354274  0.499345  1
  O  O92  1  0.975417  0.354256  0.499343  1
  Si  Si93  1  0.762696  0.000000  0.201413  1
  Si  Si94  1  0.665262  0.295349  0.316447  1
  Si  Si95  1  0.431430  0.295333  0.384814  1
  Si  Si96  1  0.234662  0.000000  0.270314  1
  Si  Si97  1  0.998696  -0.000000  0.270317  1
  Si  Si98  1  0.998763  0.413701  0.390451  1
  Si  Si99  1  0.233045  0.413684  0.390453  1
  Si  Si100  1  0.430851  0.121142  0.265573  1
  Si  Si101  1  0.899432  0.121169  0.333774  1
  Si  Si102  1  0.430820  0.121150  0.333774  1
  Si  Si103  1  0.665854  0.121165  0.265576  1
  Si  Si104  1  0.431442  0.295325  0.316441  1
  Si  Si105  1  0.899411  0.295352  0.384815  1
  Si  Si106  1  0.998660  0.587760  0.441235  1
  Si  Si107  1  0.332142  0.706100  0.241730  1
  Si  Si108  1  0.233080  0.587743  0.441235  1
  Si  Si109  1  0.098010  0.880284  0.292434  1
  Si  Si110  1  0.331561  0.880285  0.292430  1
  Si  Si111  1  0.098012  0.706100  0.241732  1
  Si  Si112  1  0.998712  -0.000000  0.424497  1
  Si  Si113  1  0.899400  0.295297  0.453077  1
  Si  Si114  1  0.899399  0.121114  0.402380  1
  Si  Si115  1  0.764323  0.413660  0.253575  1
  Si  Si116  1  0.998745  0.413638  0.253575  1
  Si  Si117  1  0.665267  0.295303  0.453080  1
  Si  Si118  1  0.665848  0.121119  0.402385  1
  Si  Si119  1  0.762746  -0.000000  0.424501  1
  Si  Si120  1  0.234713  -0.000000  0.493400  1
  Si  Si121  1  0.764343  0.413687  0.321997  1
  Si  Si122  1  0.233022  0.413648  0.321985  1
  Si  Si123  1  0.764367  0.587719  0.304360  1
  Si  Si124  1  0.998647  0.587697  0.304359  1
  Si  Si125  1  0.566589  0.880253  0.361040  1
  Si  Si126  1  0.331554  0.880228  0.429236  1
  Si  Si127  1  0.566556  0.880252  0.429239  1
  Si  Si128  1  0.097975  0.880229  0.361039  1
  Si  Si129  1  0.565983  0.706070  0.309996  1
  Si  Si130  1  0.332144  0.706044  0.378359  1
  Si  Si131  1  0.565962  0.706068  0.378364  1
  Si  Si132  1  0.097991  0.706046  0.309993  1
  Si  Si133  1  0.233070  0.587706  0.372811  1
  Si  Si134  1  0.764381  0.587745  0.372824  1
  H  H135  1  0.021995  0.647143  0.175490  1
  H  H136  1  0.308670  0.647132  0.175488  1
  H  H137  1  0.774234  0.014144  0.152593  1
  H  H138  1  0.677290  0.931729  0.154226  1
  H  H139  1  0.320120  0.069661  0.208639  1
  H  H140  1  0.021995  0.647143  0.507436  1
  H  H141  1  0.308670  0.647132  0.507434  1
  H  H142  1  0.223174  0.987254  0.210275  1
  H  H143  1  0.688732  0.354274  0.187375  1
  H  H144  1  0.975417  0.354256  0.187374  1
  H  H145  1  0.774234  0.014144  0.484539  1
  H  H146  1  0.677290  0.931729  0.486173  1
  H  H147  1  0.320120  0.069661  0.540585  1
  H  H148  1  0.223174  0.987254  0.542221  1
  H  H149  1  0.688732  0.354274  0.519322  1
  H  H150  1  0.975417  0.354256  0.519320  1
