# generated using pymatgen
data_Si20H2O41
_symmetry_space_group_name_H-M   'P 1'
_cell_length_a   8.33899979
_cell_length_b   28.28807734
_cell_length_c   80.01142198
_cell_angle_alpha   134.91593616
_cell_angle_beta   90.00000000
_cell_angle_gamma   90.00000000
_symmetry_Int_Tables_number   1
_chemical_formula_structural   Si20H2O41
_chemical_formula_sum   'Si160 H16 O328'
_cell_volume   13365.6672118
_cell_formula_units_Z   8
loop_
 _symmetry_equiv_pos_site_id
 _symmetry_equiv_pos_as_xyz
  1  'x, y, z'
loop_
 _atom_site_type_symbol
 _atom_site_label
 _atom_site_symmetry_multiplicity
 _atom_site_fract_x
 _atom_site_fract_y
 _atom_site_fract_z
 _atom_site_occupancy
  O  O1  1  0.771940  0.500467  0.161869  1
  O  O2  1  0.272534  0.000000  0.161892  1
  O  O3  1  0.227849  0.500454  0.161861  1
  O  O4  1  0.727258  0.000000  0.161901  1
  O  O5  1  0.772744  0.250334  0.224351  1
  O  O6  1  0.772744  0.750334  0.099535  1
  O  O7  1  0.271726  0.250265  0.099495  1
  O  O8  1  0.271726  0.750265  0.224310  1
  O  O9  1  0.227048  0.250320  0.224350  1
  O  O10  1  0.227048  0.750320  0.099535  1
  O  O11  1  0.728067  0.250279  0.099495  1
  O  O12  1  0.728067  0.750279  0.224310  1
  O  O13  1  -0.000000  0.056563  0.284729  1
  O  O14  1  -0.000000  0.556563  0.159914  1
  O  O15  1  0.499901  0.058251  0.160579  1
  O  O16  1  0.499901  0.558251  0.285395  1
  O  O17  1  0.000000  0.306674  0.254349  1
  O  O18  1  -0.000000  0.806674  0.129534  1
  O  O19  1  0.499894  0.308765  0.129286  1
  O  O20  1  0.499894  0.808765  0.254101  1
  O  O21  1  -0.000000  0.442779  0.162884  1
  O  O22  1  0.499892  0.941160  0.162345  1
  O  O23  1  -0.000000  0.193016  0.194156  1
  O  O24  1  0.499896  0.691221  0.194294  1
  O  O25  1  0.752626  0.625346  0.183782  1
  O  O26  1  0.249499  0.125409  0.183939  1
  O  O27  1  0.247173  0.625336  0.183779  1
  O  O28  1  0.750284  0.125420  0.183943  1
  O  O29  1  0.752606  0.375362  0.264764  1
  O  O30  1  0.752606  0.875362  0.139949  1
  O  O31  1  0.249205  0.375389  0.140034  1
  O  O32  1  0.249205  0.875389  0.264849  1
  O  O33  1  0.247195  0.375351  0.264760  1
  O  O34  1  0.247195  0.875351  0.139945  1
  O  O35  1  0.750575  0.375402  0.140039  1
  O  O36  1  0.750575  0.875402  0.264854  1
  O  O37  1  0.738884  0.036608  0.264201  1
  O  O38  1  0.738884  0.536608  0.139386  1
  O  O39  1  0.239761  0.037106  0.139621  1
  O  O40  1  0.239761  0.537106  0.264437  1
  O  O41  1  0.260875  0.036609  0.264197  1
  O  O42  1  0.260875  0.536609  0.139382  1
  O  O43  1  0.760066  0.037104  0.139626  1
  O  O44  1  0.760066  0.537105  0.264441  1
  O  O45  1  0.738917  0.286635  0.264880  1
  O  O46  1  0.738917  0.786635  0.140065  1
  O  O47  1  0.247091  0.286408  0.140175  1
  O  O48  1  0.247091  0.786408  0.264991  1
  O  O49  1  0.260864  0.286636  0.264882  1
  O  O50  1  0.260864  0.786636  0.140067  1
  O  O51  1  0.752716  0.286403  0.140172  1
  O  O52  1  0.752716  0.786403  0.264988  1
  O  O53  1  0.254112  0.464577  0.184582  1
  O  O54  1  0.754117  0.964137  0.184410  1
  O  O55  1  0.745712  0.464573  0.184586  1
  O  O56  1  0.245645  0.964139  0.184406  1
  O  O57  1  0.260794  0.213858  0.183806  1
  O  O58  1  0.754127  0.714156  0.183676  1
  O  O59  1  0.739009  0.213855  0.183803  1
  O  O60  1  0.245657  0.714159  0.183679  1
  O  O61  1  0.499895  0.047895  0.247347  1
  O  O62  1  0.499895  0.547895  0.122532  1
  O  O63  1  -0.000000  0.052941  0.124133  1
  O  O64  1  -0.000000  0.552942  0.248948  1
  O  O65  1  0.499897  0.797888  0.162543  1
  O  O66  1  -0.000000  0.306679  0.162723  1
  O  O67  1  0.499895  0.443577  0.197025  1
  O  O68  1  -0.000000  0.939004  0.195704  1
  O  O69  1  0.499893  0.197481  0.160191  1
  O  O70  1  0.499893  0.697481  0.285006  1
  O  O71  1  -0.000000  0.189014  0.284645  1
  O  O72  1  -0.000000  0.689014  0.159830  1
  O  O73  1  0.740977  0.125530  0.264174  1
  O  O74  1  0.740977  0.625530  0.139359  1
  O  O75  1  0.249234  0.125641  0.139541  1
  O  O76  1  0.249234  0.625641  0.264356  1
  O  O77  1  0.258840  0.125546  0.264177  1
  O  O78  1  0.258840  0.625545  0.139362  1
  O  O79  1  0.750522  0.125620  0.139537  1
  O  O80  1  0.750522  0.625620  0.264352  1
  O  O81  1  0.740967  0.875525  0.184486  1
  O  O82  1  0.249062  0.375644  0.184642  1
  O  O83  1  0.258849  0.875540  0.184488  1
  O  O84  1  0.750696  0.375623  0.184638  1
  O  O85  1  0.764154  0.000000  0.224534  1
  O  O86  1  0.764154  0.500817  0.099719  1
  O  O87  1  0.258600  0.001151  0.099935  1
  O  O88  1  0.258600  0.501151  0.224751  1
  O  O89  1  0.235640  -0.000000  0.224533  1
  O  O90  1  0.235640  0.500840  0.099718  1
  O  O91  1  0.741194  0.001120  0.099935  1
  O  O92  1  0.741194  0.501120  0.224751  1
  O  O93  1  0.764175  0.750828  0.161863  1
  O  O94  1  0.241712  0.250348  0.162262  1
  O  O95  1  0.235614  0.750850  0.161872  1
  O  O96  1  0.758092  0.250318  0.162250  1
  O  O97  1  0.771940  0.000000  0.286685  1
  O  O98  1  0.771940  0.500467  0.411500  1
  O  O99  1  0.272534  -0.000000  0.411523  1
  O  O100  1  0.272534  0.500444  0.286707  1
  O  O101  1  0.227849  -0.000000  0.286676  1
  O  O102  1  0.227849  0.500454  0.411491  1
  O  O103  1  0.727258  0.000000  0.411532  1
  O  O104  1  0.727258  0.500458  0.286716  1
  O  O105  1  0.772744  0.250334  0.473982  1
  O  O106  1  0.772744  0.750334  0.349166  1
  O  O107  1  0.271726  0.250265  0.349126  1
  O  O108  1  0.271726  0.750265  0.473941  1
  O  O109  1  0.227048  0.250320  0.473981  1
  O  O110  1  0.227048  0.750320  0.349166  1
  O  O111  1  0.728067  0.250279  0.349126  1
  O  O112  1  0.728067  0.750279  0.473941  1
  O  O113  1  -0.000000  0.056563  0.534360  1
  O  O114  1  -0.000000  0.556563  0.409545  1
  O  O115  1  0.499901  0.058251  0.410210  1
  O  O116  1  0.499901  0.558251  0.535026  1
  O  O117  1  0.000000  0.306674  0.503980  1
  O  O118  1  -0.000000  0.806674  0.379165  1
  O  O119  1  0.499894  0.308765  0.378917  1
  O  O120  1  0.499894  0.808765  0.503732  1
  O  O121  1  -0.000000  0.442779  0.412515  1
  O  O122  1  -0.000000  0.942779  0.287700  1
  O  O123  1  0.499892  0.441160  0.287161  1
  O  O124  1  0.499892  0.941160  0.411976  1
  O  O125  1  -0.000000  0.193015  0.443787  1
  O  O126  1  -0.000000  0.693016  0.318972  1
  O  O127  1  0.499896  0.191221  0.319110  1
  O  O128  1  0.499896  0.691221  0.443925  1
  O  O129  1  0.752626  0.125346  0.308598  1
  O  O130  1  0.752626  0.625346  0.433413  1
  O  O131  1  0.249499  0.125409  0.433570  1
  O  O132  1  0.249499  0.625409  0.308755  1
  O  O133  1  0.247173  0.125336  0.308594  1
  O  O134  1  0.247173  0.625336  0.433410  1
  O  O135  1  0.750284  0.125420  0.433574  1
  O  O136  1  0.750284  0.625420  0.308759  1
  O  O137  1  0.752606  0.375362  0.514395  1
  O  O138  1  0.752606  0.875362  0.389579  1
  O  O139  1  0.249205  0.375389  0.389664  1
  O  O140  1  0.249205  0.875389  0.514480  1
  O  O141  1  0.247195  0.375351  0.514391  1
  O  O142  1  0.247195  0.875351  0.389575  1
  O  O143  1  0.750575  0.375402  0.389669  1
  O  O144  1  0.750575  0.875402  0.514485  1
  O  O145  1  0.738884  0.036608  0.513832  1
  O  O146  1  0.738884  0.536608  0.389017  1
  O  O147  1  0.239761  0.037106  0.389252  1
  O  O148  1  0.239761  0.537106  0.514068  1
  O  O149  1  0.260875  0.036609  0.513828  1
  O  O150  1  0.260875  0.536609  0.389013  1
  O  O151  1  0.760066  0.037104  0.389257  1
  O  O152  1  0.760066  0.537105  0.514072  1
  O  O153  1  0.738917  0.286635  0.514511  1
  O  O154  1  0.738917  0.786635  0.389695  1
  O  O155  1  0.247091  0.286408  0.389806  1
  O  O156  1  0.247091  0.786408  0.514622  1
  O  O157  1  0.260864  0.286636  0.514513  1
  O  O158  1  0.260864  0.786636  0.389698  1
  O  O159  1  0.752716  0.286403  0.389803  1
  O  O160  1  0.752716  0.786403  0.514618  1
  O  O161  1  0.254112  0.464577  0.434213  1
  O  O162  1  0.254112  0.964577  0.309397  1
  O  O163  1  0.754117  0.464137  0.309225  1
  O  O164  1  0.754117  0.964137  0.434041  1
  O  O165  1  0.745712  0.464573  0.434217  1
  O  O166  1  0.745712  0.964573  0.309401  1
  O  O167  1  0.245645  0.464139  0.309221  1
  O  O168  1  0.245645  0.964139  0.434036  1
  O  O169  1  0.260794  0.213858  0.433437  1
  O  O170  1  0.260794  0.713858  0.308622  1
  O  O171  1  0.754127  0.214156  0.308492  1
  O  O172  1  0.754127  0.714156  0.433307  1
  O  O173  1  0.739009  0.213855  0.433434  1
  O  O174  1  0.739009  0.713855  0.308619  1
  O  O175  1  0.245657  0.214159  0.308494  1
  O  O176  1  0.245657  0.714159  0.433310  1
  O  O177  1  0.499895  0.047895  0.496978  1
  O  O178  1  0.499895  0.547895  0.372163  1
  O  O179  1  -0.000000  0.052942  0.373764  1
  O  O180  1  -0.000000  0.552942  0.498579  1
  O  O181  1  0.499897  0.297888  0.287358  1
  O  O182  1  0.499897  0.797888  0.412173  1
  O  O183  1  -0.000000  0.306679  0.412354  1
  O  O184  1  -0.000000  0.806679  0.287539  1
  O  O185  1  0.499895  0.443577  0.446655  1
  O  O186  1  0.499895  0.943577  0.321840  1
  O  O187  1  -0.000000  0.439004  0.320520  1
  O  O188  1  -0.000000  0.939004  0.445335  1
  O  O189  1  0.499893  0.197480  0.409822  1
  O  O190  1  0.499893  0.697481  0.534637  1
  O  O191  1  -0.000000  0.189014  0.534276  1
  O  O192  1  -0.000000  0.689014  0.409461  1
  O  O193  1  0.740977  0.125530  0.513805  1
  O  O194  1  0.740977  0.625530  0.388990  1
  O  O195  1  0.249234  0.125641  0.389172  1
  O  O196  1  0.249234  0.625641  0.513987  1
  O  O197  1  0.258840  0.125546  0.513808  1
  O  O198  1  0.258840  0.625545  0.388993  1
  O  O199  1  0.750522  0.125620  0.389168  1
  O  O200  1  0.750522  0.625620  0.513983  1
  O  O201  1  0.740967  0.375525  0.309301  1
  O  O202  1  0.740967  0.875525  0.434117  1
  O  O203  1  0.249062  0.375644  0.434273  1
  O  O204  1  0.249062  0.875644  0.309458  1
  O  O205  1  0.258849  0.375540  0.309304  1
  O  O206  1  0.258849  0.875540  0.434119  1
  O  O207  1  0.750696  0.375622  0.434269  1
  O  O208  1  0.750696  0.875623  0.309454  1
  O  O209  1  0.764154  0.000000  0.474165  1
  O  O210  1  0.764154  0.500817  0.349350  1
  O  O211  1  0.258600  0.001151  0.349566  1
  O  O212  1  0.258600  0.501151  0.474381  1
  O  O213  1  0.235640  -0.000000  0.474164  1
  O  O214  1  0.235640  0.500840  0.349349  1
  O  O215  1  0.741194  0.001120  0.349566  1
  O  O216  1  0.741194  0.501120  0.474382  1
  O  O217  1  0.764175  0.250828  0.286679  1
  O  O218  1  0.764175  0.750828  0.411494  1
  O  O219  1  0.241712  0.250348  0.411893  1
  O  O220  1  0.241712  0.750348  0.287077  1
  O  O221  1  0.235614  0.250850  0.286688  1
  O  O222  1  0.235614  0.750850  0.411503  1
  O  O223  1  0.758092  0.250318  0.411881  1
  O  O224  1  0.758092  0.750318  0.287065  1
  O  O225  1  0.771940  0.000000  0.536316  1
  O  O226  1  0.771940  0.500467  0.661131  1
  O  O227  1  0.272534  0.000000  0.661154  1
  O  O228  1  0.272534  0.500444  0.536338  1
  O  O229  1  0.227849  0.000000  0.536307  1
  O  O230  1  0.227849  0.500454  0.661122  1
  O  O231  1  0.727258  0.000000  0.661163  1
  O  O232  1  0.727258  0.500458  0.536347  1
  O  O233  1  0.772744  0.250334  0.723613  1
  O  O234  1  0.772744  0.750334  0.598797  1
  O  O235  1  0.271726  0.250265  0.598757  1
  O  O236  1  0.271726  0.750265  0.723572  1
  O  O237  1  0.227048  0.250320  0.723612  1
  O  O238  1  0.227048  0.750320  0.598797  1
  O  O239  1  0.728067  0.250279  0.598757  1
  O  O240  1  0.728067  0.750279  0.723572  1
  O  O241  1  -0.000000  0.556563  0.659176  1
  O  O242  1  0.499901  0.058251  0.659841  1
  O  O243  1  -0.000000  0.806674  0.628795  1
  O  O244  1  0.499894  0.308765  0.628547  1
  O  O245  1  -0.000000  0.442779  0.662146  1
  O  O246  1  -0.000000  0.942779  0.537331  1
  O  O247  1  0.499892  0.441160  0.536792  1
  O  O248  1  0.499892  0.941160  0.661607  1
  O  O249  1  -0.000000  0.193016  0.693418  1
  O  O250  1  -0.000000  0.693016  0.568602  1
  O  O251  1  0.499896  0.191221  0.568740  1
  O  O252  1  0.499896  0.691221  0.693556  1
  O  O253  1  0.752626  0.125345  0.558229  1
  O  O254  1  0.752626  0.625345  0.683044  1
  O  O255  1  0.249499  0.125409  0.683201  1
  O  O256  1  0.249499  0.625409  0.558385  1
  O  O257  1  0.247173  0.125336  0.558225  1
  O  O258  1  0.247173  0.625336  0.683040  1
  O  O259  1  0.750284  0.125420  0.683205  1
  O  O260  1  0.750284  0.625420  0.558390  1
  O  O261  1  0.752606  0.875362  0.639210  1
  O  O262  1  0.249205  0.375389  0.639295  1
  O  O263  1  0.247195  0.875351  0.639206  1
  O  O264  1  0.750575  0.375402  0.639300  1
  O  O265  1  0.738884  0.536608  0.638648  1
  O  O266  1  0.239761  0.037106  0.638883  1
  O  O267  1  0.260875  0.536609  0.638644  1
  O  O268  1  0.760066  0.037105  0.638888  1
  O  O269  1  0.738917  0.786635  0.639326  1
  O  O270  1  0.247091  0.286407  0.639437  1
  O  O271  1  0.260864  0.786636  0.639329  1
  O  O272  1  0.752716  0.286403  0.639434  1
  O  O273  1  0.254112  0.464577  0.683844  1
  O  O274  1  0.254112  0.964577  0.559028  1
  O  O275  1  0.754117  0.464137  0.558856  1
  O  O276  1  0.754117  0.964137  0.683672  1
  O  O277  1  0.745712  0.464572  0.683848  1
  O  O278  1  0.745712  0.964573  0.559032  1
  O  O279  1  0.245645  0.464139  0.558852  1
  O  O280  1  0.245645  0.964139  0.683667  1
  O  O281  1  0.260794  0.213858  0.683068  1
  O  O282  1  0.260794  0.713858  0.558252  1
  O  O283  1  0.754127  0.214156  0.558123  1
  O  O284  1  0.754127  0.714156  0.682938  1
  O  O285  1  0.739009  0.213855  0.683065  1
  O  O286  1  0.739009  0.713855  0.558249  1
  O  O287  1  0.245657  0.214159  0.558125  1
  O  O288  1  0.245657  0.714159  0.682941  1
  O  O289  1  0.499895  0.547895  0.621794  1
  O  O290  1  -0.000000  0.052942  0.623395  1
  O  O291  1  0.499897  0.297888  0.536989  1
  O  O292  1  0.499897  0.797888  0.661804  1
  O  O293  1  -0.000000  0.306679  0.661985  1
  O  O294  1  -0.000000  0.806679  0.537170  1
  O  O295  1  0.499895  0.443577  0.696286  1
  O  O296  1  0.499895  0.943577  0.571471  1
  O  O297  1  -0.000000  0.439004  0.570151  1
  O  O298  1  -0.000000  0.939004  0.694966  1
  O  O299  1  0.499893  0.197481  0.659452  1
  O  O300  1  -0.000000  0.689014  0.659091  1
  O  O301  1  0.740977  0.625530  0.638621  1
  O  O302  1  0.249234  0.125640  0.638803  1
  O  O303  1  0.258840  0.625546  0.638624  1
  O  O304  1  0.750522  0.125620  0.638799  1
  O  O305  1  0.740967  0.375525  0.558932  1
  O  O306  1  0.740967  0.875525  0.683747  1
  O  O307  1  0.249062  0.375644  0.683904  1
  O  O308  1  0.249062  0.875644  0.559089  1
  O  O309  1  0.258849  0.375540  0.558934  1
  O  O310  1  0.258849  0.875540  0.683750  1
  O  O311  1  0.750696  0.375622  0.683900  1
  O  O312  1  0.750696  0.875623  0.559085  1
  O  O313  1  0.764154  -0.000000  0.723796  1
  O  O314  1  0.764154  0.500817  0.598980  1
  O  O315  1  0.258600  0.001151  0.599197  1
  O  O316  1  0.258600  0.501151  0.724012  1
  O  O317  1  0.235640  0.000000  0.723795  1
  O  O318  1  0.235640  0.500840  0.598980  1
  O  O319  1  0.741194  0.001120  0.599197  1
  O  O320  1  0.741194  0.501120  0.724013  1
  O  O321  1  0.764175  0.250828  0.536310  1
  O  O322  1  0.764175  0.750828  0.661125  1
  O  O323  1  0.241712  0.250348  0.661524  1
  O  O324  1  0.241712  0.750348  0.536708  1
  O  O325  1  0.235614  0.250850  0.536319  1
  O  O326  1  0.235614  0.750850  0.661134  1
  O  O327  1  0.758092  0.250318  0.661512  1
  O  O328  1  0.758092  0.750318  0.536696  1
  Si  Si329  1  0.813447  0.053287  0.285954  1
  Si  Si330  1  0.813447  0.553288  0.161138  1
  Si  Si331  1  0.313381  0.053767  0.161416  1
  Si  Si332  1  0.313381  0.553768  0.286232  1
  Si  Si333  1  0.186333  0.053283  0.285949  1
  Si  Si334  1  0.186333  0.553283  0.161134  1
  Si  Si335  1  0.686419  0.053773  0.161421  1
  Si  Si336  1  0.686419  0.553774  0.286237  1
  Si  Si337  1  0.813528  0.303308  0.251453  1
  Si  Si338  1  0.813528  0.803308  0.126637  1
  Si  Si339  1  0.313512  0.303690  0.126581  1
  Si  Si340  1  0.313512  0.803690  0.251396  1
  Si  Si341  1  0.186263  0.303301  0.251452  1
  Si  Si342  1  0.186263  0.803301  0.126637  1
  Si  Si343  1  0.686288  0.303694  0.126580  1
  Si  Si344  1  0.686288  0.803694  0.251396  1
  Si  Si345  1  0.186231  0.447311  0.162419  1
  Si  Si346  1  0.686334  0.946841  0.162223  1
  Si  Si347  1  0.813565  0.447316  0.162424  1
  Si  Si348  1  0.313451  0.946836  0.162218  1
  Si  Si349  1  0.186351  0.197194  0.197247  1
  Si  Si350  1  0.686412  0.696827  0.197218  1
  Si  Si351  1  0.813441  0.197202  0.197248  1
  Si  Si352  1  0.313379  0.696821  0.197218  1
  Si  Si353  1  0.685958  0.051840  0.249523  1
  Si  Si354  1  0.685958  0.551841  0.124708  1
  Si  Si355  1  0.186203  0.053249  0.125248  1
  Si  Si356  1  0.186203  0.553250  0.250064  1
  Si  Si357  1  0.313833  0.051851  0.249523  1
  Si  Si358  1  0.313833  0.551851  0.124707  1
  Si  Si359  1  0.813589  0.053237  0.125248  1
  Si  Si360  1  0.813589  0.553236  0.250064  1
  Si  Si361  1  0.685964  0.801835  0.162341  1
  Si  Si362  1  0.185891  0.303392  0.162527  1
  Si  Si363  1  0.313831  0.801846  0.162345  1
  Si  Si364  1  0.813898  0.303377  0.162523  1
  Si  Si365  1  0.313937  0.447617  0.198514  1
  Si  Si366  1  0.813996  0.946159  0.198037  1
  Si  Si367  1  0.685855  0.447603  0.198514  1
  Si  Si368  1  0.185796  0.946169  0.198036  1
  Si  Si369  1  0.313603  0.197801  0.161363  1
  Si  Si370  1  0.313603  0.697801  0.286179  1
  Si  Si371  1  0.814000  0.196165  0.285886  1
  Si  Si372  1  0.814000  0.696165  0.161070  1
  Si  Si373  1  0.686184  0.197787  0.161359  1
  Si  Si374  1  0.686184  0.697787  0.286174  1
  Si  Si375  1  0.185797  0.196176  0.285890  1
  Si  Si376  1  0.185797  0.696176  0.161074  1
  Si  Si377  1  0.813447  0.053288  0.535585  1
  Si  Si378  1  0.813447  0.553288  0.410769  1
  Si  Si379  1  0.313381  0.053767  0.411047  1
  Si  Si380  1  0.313381  0.553768  0.535863  1
  Si  Si381  1  0.186333  0.053283  0.535580  1
  Si  Si382  1  0.186333  0.553283  0.410765  1
  Si  Si383  1  0.686419  0.053773  0.411052  1
  Si  Si384  1  0.686419  0.553774  0.535868  1
  Si  Si385  1  0.813528  0.303308  0.501084  1
  Si  Si386  1  0.813528  0.803308  0.376268  1
  Si  Si387  1  0.313512  0.303690  0.376211  1
  Si  Si388  1  0.313512  0.803690  0.501027  1
  Si  Si389  1  0.186263  0.303301  0.501083  1
  Si  Si390  1  0.186263  0.803301  0.376268  1
  Si  Si391  1  0.686288  0.303694  0.376211  1
  Si  Si392  1  0.686288  0.803694  0.501027  1
  Si  Si393  1  0.186231  0.447311  0.412050  1
  Si  Si394  1  0.186231  0.947311  0.287235  1
  Si  Si395  1  0.686334  0.446841  0.287039  1
  Si  Si396  1  0.686334  0.946841  0.411854  1
  Si  Si397  1  0.813565  0.447316  0.412055  1
  Si  Si398  1  0.813565  0.947316  0.287240  1
  Si  Si399  1  0.313451  0.446836  0.287034  1
  Si  Si400  1  0.313451  0.946836  0.411849  1
  Si  Si401  1  0.186351  0.197194  0.446878  1
  Si  Si402  1  0.186351  0.697194  0.322063  1
  Si  Si403  1  0.686412  0.196827  0.322034  1
  Si  Si404  1  0.686412  0.696827  0.446849  1
  Si  Si405  1  0.813441  0.197202  0.446879  1
  Si  Si406  1  0.813441  0.697202  0.322063  1
  Si  Si407  1  0.313379  0.196821  0.322034  1
  Si  Si408  1  0.313379  0.696821  0.446849  1
  Si  Si409  1  0.685958  0.051840  0.499154  1
  Si  Si410  1  0.685958  0.551841  0.374338  1
  Si  Si411  1  0.186203  0.053250  0.374879  1
  Si  Si412  1  0.186203  0.553250  0.499695  1
  Si  Si413  1  0.313833  0.051850  0.499153  1
  Si  Si414  1  0.313833  0.551851  0.374338  1
  Si  Si415  1  0.813589  0.053237  0.374879  1
  Si  Si416  1  0.813589  0.553237  0.499695  1
  Si  Si417  1  0.685964  0.301835  0.287156  1
  Si  Si418  1  0.685964  0.801835  0.411972  1
  Si  Si419  1  0.185891  0.303392  0.412158  1
  Si  Si420  1  0.185891  0.803392  0.287343  1
  Si  Si421  1  0.313831  0.301846  0.287160  1
  Si  Si422  1  0.313831  0.801846  0.411976  1
  Si  Si423  1  0.813898  0.303377  0.412153  1
  Si  Si424  1  0.813898  0.803377  0.287338  1
  Si  Si425  1  0.313937  0.447617  0.448145  1
  Si  Si426  1  0.313937  0.947617  0.323329  1
  Si  Si427  1  0.813996  0.446159  0.322852  1
  Si  Si428  1  0.813996  0.946159  0.447668  1
  Si  Si429  1  0.685855  0.447603  0.448145  1
  Si  Si430  1  0.685855  0.947603  0.323329  1
  Si  Si431  1  0.185796  0.446169  0.322852  1
  Si  Si432  1  0.185796  0.946169  0.447667  1
  Si  Si433  1  0.313603  0.197800  0.410994  1
  Si  Si434  1  0.313603  0.697801  0.535810  1
  Si  Si435  1  0.814000  0.196165  0.535517  1
  Si  Si436  1  0.814000  0.696165  0.410701  1
  Si  Si437  1  0.686184  0.197787  0.410990  1
  Si  Si438  1  0.686184  0.697787  0.535805  1
  Si  Si439  1  0.185797  0.196176  0.535520  1
  Si  Si440  1  0.185797  0.696176  0.410705  1
  Si  Si441  1  0.813447  0.553288  0.660400  1
  Si  Si442  1  0.313381  0.053767  0.660678  1
  Si  Si443  1  0.186333  0.553283  0.660396  1
  Si  Si444  1  0.686419  0.053773  0.660683  1
  Si  Si445  1  0.813528  0.803308  0.625899  1
  Si  Si446  1  0.313512  0.303690  0.625842  1
  Si  Si447  1  0.186263  0.803301  0.625899  1
  Si  Si448  1  0.686288  0.303694  0.625842  1
  Si  Si449  1  0.186231  0.447311  0.661681  1
  Si  Si450  1  0.186231  0.947311  0.536866  1
  Si  Si451  1  0.686334  0.446841  0.536670  1
  Si  Si452  1  0.686334  0.946841  0.661485  1
  Si  Si453  1  0.813565  0.447316  0.661686  1
  Si  Si454  1  0.813565  0.947316  0.536871  1
  Si  Si455  1  0.313451  0.446836  0.536665  1
  Si  Si456  1  0.313451  0.946836  0.661480  1
  Si  Si457  1  0.186351  0.197194  0.696509  1
  Si  Si458  1  0.186351  0.697194  0.571694  1
  Si  Si459  1  0.686412  0.196827  0.571665  1
  Si  Si460  1  0.686412  0.696827  0.696480  1
  Si  Si461  1  0.813441  0.197202  0.696510  1
  Si  Si462  1  0.813441  0.697202  0.571694  1
  Si  Si463  1  0.313379  0.196821  0.571665  1
  Si  Si464  1  0.313379  0.696821  0.696480  1
  Si  Si465  1  0.685958  0.551841  0.623969  1
  Si  Si466  1  0.186203  0.053249  0.624510  1
  Si  Si467  1  0.313833  0.551851  0.623969  1
  Si  Si468  1  0.813589  0.053236  0.624510  1
  Si  Si469  1  0.685964  0.301835  0.536787  1
  Si  Si470  1  0.685964  0.801835  0.661603  1
  Si  Si471  1  0.185891  0.303392  0.661789  1
  Si  Si472  1  0.185891  0.803392  0.536973  1
  Si  Si473  1  0.313831  0.301846  0.536791  1
  Si  Si474  1  0.313831  0.801846  0.661606  1
  Si  Si475  1  0.813898  0.303377  0.661784  1
  Si  Si476  1  0.813898  0.803377  0.536969  1
  Si  Si477  1  0.313937  0.447617  0.697776  1
  Si  Si478  1  0.313937  0.947617  0.572960  1
  Si  Si479  1  0.813996  0.446159  0.572483  1
  Si  Si480  1  0.813996  0.946159  0.697299  1
  Si  Si481  1  0.685855  0.447603  0.697776  1
  Si  Si482  1  0.685855  0.947603  0.572960  1
  Si  Si483  1  0.185796  0.446168  0.572483  1
  Si  Si484  1  0.185796  0.946169  0.697298  1
  Si  Si485  1  0.313603  0.197800  0.660625  1
  Si  Si486  1  0.814000  0.696165  0.660332  1
  Si  Si487  1  0.686184  0.197787  0.660620  1
  Si  Si488  1  0.185797  0.696176  0.660336  1
  H  H489  1  0.772744  0.750334  0.088287  1
  H  H490  1  0.271726  0.250265  0.088246  1
  H  H491  1  0.227048  0.750320  0.088286  1
  H  H492  1  0.728067  0.250279  0.088246  1
  H  H493  1  0.764154  0.500817  0.088470  1
  H  H494  1  0.258600  0.001151  0.088687  1
  H  H495  1  0.235640  0.500840  0.088469  1
  H  H496  1  0.741194  0.001120  0.088687  1
  H  H497  1  0.772744  0.250334  0.734861  1
  H  H498  1  0.271726  0.750265  0.734820  1
  H  H499  1  0.227048  0.250320  0.734860  1
  H  H500  1  0.728067  0.750278  0.734820  1
  H  H501  1  0.764154  0.000000  0.735044  1
  H  H502  1  0.258600  0.501151  0.735261  1
  H  H503  1  0.235640  0.000000  0.735043  1
  H  H504  1  0.741194  0.501120  0.735261  1
