# generated using pymatgen
data_Si21(HO11)4
_symmetry_space_group_name_H-M   'P 1'
_cell_length_a   13.15606496
_cell_length_b   21.99274184
_cell_length_c   58.20729910
_cell_angle_alpha   126.73751749
_cell_angle_beta   120.00000000
_cell_angle_gamma   72.59794531
_symmetry_Int_Tables_number   1
_chemical_formula_structural   Si21(HO11)4
_chemical_formula_sum   'Si84 H16 O176'
_cell_volume   11688.3770034
_cell_formula_units_Z   4
loop_
 _symmetry_equiv_pos_site_id
 _symmetry_equiv_pos_as_xyz
  1  'x, y, z'
loop_
 _atom_site_type_symbol
 _atom_site_label
 _atom_site_symmetry_multiplicity
 _atom_site_fract_x
 _atom_site_fract_y
 _atom_site_fract_z
 _atom_site_occupancy
  O  O1  1  0.021995  0.647143  0.151291  1
  O  O2  1  0.308670  0.647132  0.151289  1
  O  O3  1  0.774234  0.014144  0.133569  1
  O  O4  1  0.677290  0.931729  0.134833  1
  O  O5  1  0.688722  0.354332  0.241084  1
  O  O6  1  0.331961  0.354286  0.241070  1
  O  O7  1  0.320120  0.069661  0.176948  1
  O  O8  1  0.701520  0.069684  0.176953  1
  O  O9  1  0.205946  0.406119  0.270947  1
  O  O10  1  0.895102  0.406141  0.270947  1
  O  O11  1  0.975411  0.354346  0.305883  1
  O  O12  1  0.331986  0.354317  0.305880  1
  O  O13  1  0.117379  0.396930  0.299088  1
  O  O14  1  0.461276  0.113086  0.233566  1
  O  O15  1  0.767426  0.113110  0.233568  1
  O  O16  1  0.974493  0.069703  0.238642  1
  O  O17  1  0.320055  0.069693  0.238642  1
  O  O18  1  0.543820  0.102213  0.199223  1
  O  O19  1  0.543777  0.102191  0.281640  1
  O  O20  1  0.908512  0.102202  0.281637  1
  O  O21  1  0.401922  0.208358  0.218434  1
  O  O22  1  0.929654  0.208387  0.278348  1
  O  O23  1  0.401898  0.208366  0.278348  1
  O  O24  1  0.664552  0.208384  0.218437  1
  O  O25  1  0.458121  0.303949  0.276349  1
  O  O26  1  0.768991  0.303966  0.276352  1
  O  O27  1  0.547302  0.312592  0.248354  1
  O  O28  1  0.547304  0.312568  0.328400  1
  O  O29  1  0.901509  0.312574  0.328401  1
  O  O30  1  0.110905  0.014165  0.209653  1
  O  O31  1  0.102321  0.595289  0.337093  1
  O  O32  1  0.021995  0.647143  0.377293  1
  O  O33  1  0.308670  0.647132  0.377291  1
  O  O34  1  0.880057  0.604518  0.319159  1
  O  O35  1  0.236020  0.604483  0.319154  1
  O  O36  1  0.264903  0.500719  0.329061  1
  O  O37  1  0.230016  0.888344  0.235048  1
  O  O38  1  0.022936  0.931760  0.212948  1
  O  O39  1  0.295860  0.931754  0.212941  1
  O  O40  1  0.067787  0.793071  0.200088  1
  O  O41  1  0.332847  0.793072  0.200086  1
  O  O42  1  0.228427  0.697477  0.191185  1
  O  O43  1  0.886444  0.987245  0.178217  1
  O  O44  1  0.223174  0.987254  0.178215  1
  O  O45  1  0.998709  0.500739  0.329059  1
  O  O46  1  0.895082  0.406111  0.200688  1
  O  O47  1  0.688732  0.354274  0.160490  1
  O  O48  1  0.975417  0.354256  0.160489  1
  O  O49  1  0.117343  0.396879  0.218623  1
  O  O50  1  0.761389  0.396915  0.218626  1
  O  O51  1  0.767393  0.113056  0.302738  1
  O  O52  1  0.701551  0.069652  0.324846  1
  O  O53  1  0.974474  0.069639  0.324837  1
  O  O54  1  0.664561  0.208333  0.337698  1
  O  O55  1  0.929624  0.208328  0.337695  1
  O  O56  1  0.768986  0.303922  0.346597  1
  O  O57  1  0.110964  0.014150  0.359567  1
  O  O58  1  0.774234  0.014144  0.359570  1
  O  O59  1  0.791461  0.595279  0.266836  1
  O  O60  1  0.102311  0.595256  0.266834  1
  O  O61  1  0.665431  0.647088  0.231904  1
  O  O62  1  0.308692  0.647058  0.296695  1
  O  O63  1  0.665437  0.647105  0.296708  1
  O  O64  1  0.021994  0.647051  0.231898  1
  O  O65  1  0.880036  0.604469  0.238696  1
  O  O66  1  0.998699  0.500659  0.208722  1
  O  O67  1  0.536132  0.888311  0.304218  1
  O  O68  1  0.229981  0.888286  0.304216  1
  O  O69  1  0.677351  0.931713  0.299143  1
  O  O70  1  0.295886  0.931706  0.360830  1
  O  O71  1  0.677290  0.931729  0.360835  1
  O  O72  1  0.022913  0.931694  0.299142  1
  O  O73  1  0.088895  0.899197  0.256147  1
  O  O74  1  0.453631  0.899212  0.256145  1
  O  O75  1  0.453589  0.899180  0.338560  1
  O  O76  1  0.595514  0.793038  0.259436  1
  O  O77  1  0.332857  0.793008  0.319344  1
  O  O78  1  0.595482  0.793034  0.319346  1
  O  O79  1  0.067750  0.793011  0.259435  1
  O  O80  1  0.539287  0.697449  0.261430  1
  O  O81  1  0.228411  0.697431  0.261428  1
  O  O82  1  0.095900  0.688824  0.209380  1
  O  O83  1  0.450111  0.688834  0.209380  1
  O  O84  1  0.450098  0.688803  0.289423  1
  O  O85  1  0.886503  0.987237  0.328133  1
  O  O86  1  0.264877  0.500673  0.268883  1
  O  O87  1  0.732532  0.500719  0.268897  1
  O  O88  1  0.732503  0.500686  0.208722  1
  O  O89  1  0.688722  0.354332  0.467086  1
  O  O90  1  0.331961  0.354286  0.467072  1
  O  O91  1  0.320120  0.069661  0.402950  1
  O  O92  1  0.701520  0.069684  0.402955  1
  O  O93  1  0.205946  0.406119  0.496949  1
  O  O94  1  0.895102  0.406141  0.496949  1
  O  O95  1  0.975411  0.354346  0.531885  1
  O  O96  1  0.331986  0.354317  0.531882  1
  O  O97  1  0.117379  0.396930  0.525090  1
  O  O98  1  0.461276  0.113086  0.459568  1
  O  O99  1  0.767426  0.113110  0.459570  1
  O  O100  1  0.974493  0.069703  0.464644  1
  O  O101  1  0.320055  0.069693  0.464644  1
  O  O102  1  0.543820  0.102213  0.425225  1
  O  O103  1  0.543777  0.102191  0.507642  1
  O  O104  1  0.908512  0.102202  0.507639  1
  O  O105  1  0.401922  0.208358  0.444436  1
  O  O106  1  0.929654  0.208387  0.504349  1
  O  O107  1  0.401898  0.208366  0.504350  1
  O  O108  1  0.664552  0.208384  0.444439  1
  O  O109  1  0.458121  0.303949  0.502351  1
  O  O110  1  0.768991  0.303966  0.502354  1
  O  O111  1  0.547302  0.312592  0.474356  1
  O  O112  1  0.547304  0.312568  0.554402  1
  O  O113  1  0.901509  0.312574  0.554403  1
  O  O114  1  0.110905  0.014165  0.435655  1
  O  O115  1  0.102321  0.595289  0.563094  1
  O  O116  1  0.021995  0.647143  0.603295  1
  O  O117  1  0.308670  0.647132  0.603293  1
  O  O118  1  0.880057  0.604518  0.545161  1
  O  O119  1  0.236020  0.604483  0.545156  1
  O  O120  1  0.264903  0.500719  0.555063  1
  O  O121  1  0.230016  0.888344  0.461050  1
  O  O122  1  0.022936  0.931760  0.438950  1
  O  O123  1  0.295860  0.931754  0.438943  1
  O  O124  1  0.067787  0.793071  0.426090  1
  O  O125  1  0.332847  0.793072  0.426088  1
  O  O126  1  0.228427  0.697477  0.417187  1
  O  O127  1  0.886444  0.987245  0.404219  1
  O  O128  1  0.223174  0.987254  0.404216  1
  O  O129  1  0.998709  0.500739  0.555061  1
  O  O130  1  0.895082  0.406111  0.426690  1
  O  O131  1  0.688732  0.354274  0.386492  1
  O  O132  1  0.975417  0.354256  0.386491  1
  O  O133  1  0.117343  0.396879  0.444625  1
  O  O134  1  0.761389  0.396915  0.444628  1
  O  O135  1  0.767393  0.113056  0.528739  1
  O  O136  1  0.701551  0.069652  0.550848  1
  O  O137  1  0.974474  0.069639  0.550839  1
  O  O138  1  0.664561  0.208333  0.563700  1
  O  O139  1  0.929624  0.208328  0.563697  1
  O  O140  1  0.768986  0.303922  0.572599  1
  O  O141  1  0.110964  0.014150  0.585569  1
  O  O142  1  0.774234  0.014144  0.585572  1
  O  O143  1  0.791461  0.595279  0.492837  1
  O  O144  1  0.102311  0.595256  0.492836  1
  O  O145  1  0.665431  0.647088  0.457905  1
  O  O146  1  0.308692  0.647058  0.522697  1
  O  O147  1  0.665437  0.647105  0.522710  1
  O  O148  1  0.021994  0.647051  0.457900  1
  O  O149  1  0.880036  0.604469  0.464697  1
  O  O150  1  0.998699  0.500659  0.434724  1
  O  O151  1  0.536132  0.888311  0.530220  1
  O  O152  1  0.229981  0.888286  0.530218  1
  O  O153  1  0.677351  0.931713  0.525145  1
  O  O154  1  0.295886  0.931706  0.586832  1
  O  O155  1  0.677290  0.931729  0.586837  1
  O  O156  1  0.022913  0.931694  0.525144  1
  O  O157  1  0.088895  0.899197  0.482149  1
  O  O158  1  0.453631  0.899212  0.482147  1
  O  O159  1  0.453589  0.899180  0.564562  1
  O  O160  1  0.595514  0.793038  0.485438  1
  O  O161  1  0.332857  0.793008  0.545346  1
  O  O162  1  0.595482  0.793034  0.545348  1
  O  O163  1  0.067750  0.793011  0.485437  1
  O  O164  1  0.539287  0.697449  0.487432  1
  O  O165  1  0.228411  0.697431  0.487430  1
  O  O166  1  0.095900  0.688824  0.435382  1
  O  O167  1  0.450111  0.688834  0.435382  1
  O  O168  1  0.450098  0.688803  0.515425  1
  O  O169  1  0.886503  0.987237  0.554135  1
  O  O170  1  0.264877  0.500673  0.494885  1
  O  O171  1  0.732532  0.500719  0.494899  1
  O  O172  1  0.732503  0.500686  0.434724  1
  O  O173  1  0.320120  0.069661  0.628952  1
  O  O174  1  0.223174  0.987254  0.630218  1
  O  O175  1  0.688732  0.354274  0.612494  1
  O  O176  1  0.975417  0.354256  0.612493  1
  Si  Si177  1  0.762696  0.000000  0.155893  1
  Si  Si178  1  0.665262  0.295349  0.244930  1
  Si  Si179  1  0.431430  0.295333  0.297845  1
  Si  Si180  1  0.234662  0.000000  0.209223  1
  Si  Si181  1  0.998696  0.000000  0.209225  1
  Si  Si182  1  0.998763  0.413701  0.302208  1
  Si  Si183  1  0.233045  0.413684  0.302210  1
  Si  Si184  1  0.430851  0.121142  0.205553  1
  Si  Si185  1  0.899432  0.121169  0.258341  1
  Si  Si186  1  0.430820  0.121150  0.258341  1
  Si  Si187  1  0.665854  0.121165  0.205555  1
  Si  Si188  1  0.431442  0.295325  0.244925  1
  Si  Si189  1  0.899411  0.295352  0.297846  1
  Si  Si190  1  0.998660  0.587760  0.341515  1
  Si  Si191  1  0.332142  0.706100  0.187099  1
  Si  Si192  1  0.233080  0.587743  0.341515  1
  Si  Si193  1  0.098010  0.880284  0.226343  1
  Si  Si194  1  0.331561  0.880285  0.226340  1
  Si  Si195  1  0.098012  0.706100  0.187100  1
  Si  Si196  1  0.998712  0.000000  0.328560  1
  Si  Si197  1  0.899400  0.295297  0.350681  1
  Si  Si198  1  0.899399  0.121114  0.311441  1
  Si  Si199  1  0.764323  0.413660  0.196267  1
  Si  Si200  1  0.998745  0.413638  0.196266  1
  Si  Si201  1  0.665267  0.295303  0.350683  1
  Si  Si202  1  0.665848  0.121119  0.311445  1
  Si  Si203  1  0.762746  0.000000  0.328563  1
  Si  Si204  1  0.234713  -0.000000  0.381890  1
  Si  Si205  1  0.762696  0.000000  0.381895  1
  Si  Si206  1  0.764343  0.413687  0.249225  1
  Si  Si207  1  0.233022  0.413648  0.249216  1
  Si  Si208  1  0.764367  0.587719  0.235574  1
  Si  Si209  1  0.998647  0.587697  0.235573  1
  Si  Si210  1  0.566589  0.880253  0.279445  1
  Si  Si211  1  0.331554  0.880228  0.332228  1
  Si  Si212  1  0.566556  0.880252  0.332230  1
  Si  Si213  1  0.097975  0.880229  0.279443  1
  Si  Si214  1  0.565983  0.706070  0.239936  1
  Si  Si215  1  0.332144  0.706044  0.292849  1
  Si  Si216  1  0.565962  0.706068  0.292853  1
  Si  Si217  1  0.097991  0.706046  0.239934  1
  Si  Si218  1  0.233070  0.587706  0.288555  1
  Si  Si219  1  0.764381  0.587745  0.288565  1
  Si  Si220  1  0.665262  0.295349  0.470932  1
  Si  Si221  1  0.431430  0.295333  0.523847  1
  Si  Si222  1  0.234662  -0.000000  0.435225  1
  Si  Si223  1  0.998696  0.000000  0.435227  1
  Si  Si224  1  0.998763  0.413701  0.528210  1
  Si  Si225  1  0.233045  0.413684  0.528211  1
  Si  Si226  1  0.430851  0.121142  0.431555  1
  Si  Si227  1  0.899432  0.121169  0.484343  1
  Si  Si228  1  0.430820  0.121150  0.484343  1
  Si  Si229  1  0.665854  0.121165  0.431557  1
  Si  Si230  1  0.431442  0.295325  0.470927  1
  Si  Si231  1  0.899411  0.295352  0.523848  1
  Si  Si232  1  0.998660  0.587760  0.567517  1
  Si  Si233  1  0.332142  0.706100  0.413101  1
  Si  Si234  1  0.233080  0.587743  0.567517  1
  Si  Si235  1  0.098010  0.880284  0.452345  1
  Si  Si236  1  0.331561  0.880285  0.452342  1
  Si  Si237  1  0.098012  0.706100  0.413102  1
  Si  Si238  1  0.998712  0.000000  0.554562  1
  Si  Si239  1  0.899400  0.295297  0.576683  1
  Si  Si240  1  0.899399  0.121114  0.537443  1
  Si  Si241  1  0.764323  0.413660  0.422269  1
  Si  Si242  1  0.998745  0.413638  0.422268  1
  Si  Si243  1  0.665267  0.295303  0.576685  1
  Si  Si244  1  0.665848  0.121119  0.537447  1
  Si  Si245  1  0.762746  0.000000  0.554565  1
  Si  Si246  1  0.234713  0.000000  0.607892  1
  Si  Si247  1  0.764343  0.413687  0.475227  1
  Si  Si248  1  0.233022  0.413648  0.475218  1
  Si  Si249  1  0.764367  0.587719  0.461576  1
  Si  Si250  1  0.998647  0.587697  0.461575  1
  Si  Si251  1  0.566589  0.880253  0.505447  1
  Si  Si252  1  0.331554  0.880228  0.558230  1
  Si  Si253  1  0.566556  0.880252  0.558232  1
  Si  Si254  1  0.097975  0.880229  0.505445  1
  Si  Si255  1  0.565983  0.706070  0.465938  1
  Si  Si256  1  0.332144  0.706044  0.518851  1
  Si  Si257  1  0.565962  0.706068  0.518855  1
  Si  Si258  1  0.097991  0.706046  0.465936  1
  Si  Si259  1  0.233070  0.587706  0.514557  1
  Si  Si260  1  0.764381  0.587745  0.514567  1
  H  H261  1  0.021995  0.647143  0.135829  1
  H  H262  1  0.308670  0.647132  0.135827  1
  H  H263  1  0.774234  0.014144  0.118107  1
  H  H264  1  0.677290  0.931729  0.119371  1
  H  H265  1  0.320120  0.069661  0.161486  1
  H  H266  1  0.223174  0.987254  0.162753  1
  H  H267  1  0.688732  0.354274  0.145028  1
  H  H268  1  0.975417  0.354256  0.145027  1
  H  H269  1  0.021995  0.647143  0.618757  1
  H  H270  1  0.308670  0.647132  0.618755  1
  H  H271  1  0.774234  0.014144  0.601034  1
  H  H272  1  0.677290  0.931729  0.602299  1
  H  H273  1  0.320120  0.069661  0.644414  1
  H  H274  1  0.223174  0.987254  0.645680  1
  H  H275  1  0.688732  0.354274  0.627956  1
  H  H276  1  0.975417  0.354256  0.627955  1
