# generated using pymatgen
data_Si14H2O29
_symmetry_space_group_name_H-M   'P 1'
_cell_length_a   8.32030442
_cell_length_b   13.45714247
_cell_length_c   46.63267600
_cell_angle_alpha   90.00000000
_cell_angle_beta   90.00000000
_cell_angle_gamma   90.00000000
_symmetry_Int_Tables_number   1
_chemical_formula_structural   Si14H2O29
_chemical_formula_sum   'Si56 H8 O116'
_cell_volume   5221.34517496
_cell_formula_units_Z   4
loop_
 _symmetry_equiv_pos_site_id
 _symmetry_equiv_pos_as_xyz
  1  'x, y, z'
loop_
 _atom_site_type_symbol
 _atom_site_label
 _atom_site_symmetry_multiplicity
 _atom_site_fract_x
 _atom_site_fract_y
 _atom_site_fract_z
 _atom_site_occupancy
  O  O1  1  0.735034  0.382462  0.213090  1
  O  O2  1  0.264732  0.382443  0.213095  1
  O  O3  1  0.235487  0.882462  0.180910  1
  O  O4  1  0.738053  0.382066  0.376332  1
  O  O5  1  0.764324  0.882483  0.180908  1
  O  O6  1  0.261577  0.382027  0.376335  1
  O  O7  1  0.757642  0.116458  0.376152  1
  O  O8  1  0.255041  0.617338  0.180557  1
  O  O9  1  0.242291  0.116430  0.376154  1
  O  O10  1  0.744705  0.617356  0.180551  1
  O  O11  1  0.755752  0.117362  0.213464  1
  O  O12  1  0.244020  0.117344  0.213467  1
  O  O13  1  0.251308  0.749039  0.370868  1
  O  O14  1  0.751527  0.249601  0.174766  1
  O  O15  1  0.748509  0.749075  0.370870  1
  O  O16  1  0.248259  0.249583  0.174769  1
  O  O17  1  0.251298  0.749669  0.219239  1
  O  O18  1  0.748466  0.749689  0.219234  1
  O  O19  1  0.264318  0.940824  0.358640  1
  O  O20  1  0.764499  0.441876  0.162642  1
  O  O21  1  0.735675  0.940838  0.358636  1
  O  O22  1  0.235229  0.441857  0.162648  1
  O  O23  1  0.264523  0.941940  0.231361  1
  O  O24  1  0.735291  0.941959  0.231360  1
  O  O25  1  0.240697  0.557206  0.231172  1
  O  O26  1  0.759091  0.557226  0.231165  1
  O  O27  1  0.739713  0.057179  0.162881  1
  O  O28  1  0.237050  0.557185  0.358829  1
  O  O29  1  0.260068  0.057164  0.162885  1
  O  O30  1  0.762669  0.557232  0.358825  1
  O  O31  1  -0.000000  0.861093  0.375262  1
  O  O32  1  0.499879  0.361472  0.178805  1
  O  O33  1  -0.000000  0.861738  0.215116  1
  O  O34  1  0.499883  0.636757  0.212481  1
  O  O35  1  -0.000000  0.136344  0.181316  1
  O  O36  1  0.499871  0.635358  0.376674  1
  O  O37  1  0.759576  0.085527  0.322136  1
  O  O38  1  0.261962  0.587526  0.126567  1
  O  O39  1  0.240321  0.085514  0.322142  1
  O  O40  1  0.737798  0.587564  0.126561  1
  O  O41  1  0.761212  0.087674  0.267474  1
  O  O42  1  0.238623  0.087635  0.267480  1
  O  O43  1  0.759915  0.409520  0.267508  1
  O  O44  1  0.239791  0.409496  0.267514  1
  O  O45  1  0.257444  0.909858  0.126522  1
  O  O46  1  0.748222  0.412240  0.322137  1
  O  O47  1  0.742377  0.909857  0.126521  1
  O  O48  1  0.251460  0.412190  0.322142  1
  O  O49  1  0.499982  0.062495  0.351441  1
  O  O50  1  -0.000000  0.563477  0.155017  1
  O  O51  1  0.499902  0.063648  0.238790  1
  O  O52  1  -0.000000  0.438822  0.234132  1
  O  O53  1  0.499901  0.937945  0.159448  1
  O  O54  1  -0.000000  0.436096  0.353328  1
  O  O55  1  0.265859  0.248513  0.295388  1
  O  O56  1  0.733975  0.248543  0.295385  1
  O  O57  1  -0.000000  0.157170  0.295268  1
  O  O58  1  0.499867  0.368109  0.293104  1
  O  O59  1  0.236931  0.882054  0.409171  1
  O  O60  1  0.735034  0.382462  0.604613  1
  O  O61  1  0.763047  0.882085  0.409172  1
  O  O62  1  0.264732  0.382443  0.604618  1
  O  O63  1  0.235487  0.882462  0.572432  1
  O  O64  1  0.764324  0.882483  0.572431  1
  O  O65  1  0.255041  0.617338  0.572080  1
  O  O66  1  0.744705  0.617356  0.572074  1
  O  O67  1  0.755752  0.117362  0.604987  1
  O  O68  1  0.257602  0.616461  0.409404  1
  O  O69  1  0.244020  0.117344  0.604990  1
  O  O70  1  0.742099  0.616495  0.409403  1
  O  O71  1  0.751527  0.249601  0.566289  1
  O  O72  1  0.248259  0.249583  0.566292  1
  O  O73  1  0.251298  0.749669  0.610762  1
  O  O74  1  0.750484  0.249152  0.414657  1
  O  O75  1  0.748466  0.749689  0.610757  1
  O  O76  1  0.249325  0.249119  0.414664  1
  O  O77  1  0.764499  0.441876  0.554165  1
  O  O78  1  0.235229  0.441857  0.554171  1
  O  O79  1  0.264523  0.941940  0.622884  1
  O  O80  1  0.764040  0.440907  0.426883  1
  O  O81  1  0.735291  0.941959  0.622883  1
  O  O82  1  0.235609  0.440894  0.426893  1
  O  O83  1  0.738145  0.057231  0.426748  1
  O  O84  1  0.240697  0.557206  0.622695  1
  O  O85  1  0.261731  0.057182  0.426759  1
  O  O86  1  0.759091  0.557226  0.622688  1
  O  O87  1  0.739713  0.057179  0.554404  1
  O  O88  1  0.260068  0.057164  0.554408  1
  O  O89  1  0.499879  0.361472  0.570328  1
  O  O90  1  -0.000000  0.861738  0.606639  1
  O  O91  1  0.499829  0.361820  0.409982  1
  O  O92  1  -0.000000  0.136165  0.408815  1
  O  O93  1  0.499883  0.636757  0.604004  1
  O  O94  1  -0.000000  0.136344  0.572838  1
  O  O95  1  0.261962  0.587526  0.518089  1
  O  O96  1  0.737798  0.587564  0.518084  1
  O  O97  1  0.761212  0.087674  0.658997  1
  O  O98  1  0.259222  0.585624  0.463427  1
  O  O99  1  0.238623  0.087635  0.659003  1
  O  O100  1  0.740439  0.585641  0.463422  1
  O  O101  1  0.251936  0.911680  0.463422  1
  O  O102  1  0.759915  0.409520  0.659031  1
  O  O103  1  0.747998  0.911734  0.463420  1
  O  O104  1  0.239791  0.409496  0.659037  1
  O  O105  1  0.257444  0.909858  0.518044  1
  O  O106  1  0.742377  0.909857  0.518044  1
  O  O107  1  -0.000000  0.563477  0.546540  1
  O  O108  1  0.499902  0.063648  0.630313  1
  O  O109  1  -0.000000  0.562480  0.434058  1
  O  O110  1  0.499981  0.936755  0.431473  1
  O  O111  1  -0.000000  0.438822  0.625655  1
  O  O112  1  0.499901  0.937945  0.550971  1
  O  O113  1  0.766341  0.748515  0.490303  1
  O  O114  1  0.233398  0.748490  0.490315  1
  O  O115  1  0.499855  0.657575  0.490170  1
  O  O116  1  -0.000000  0.868793  0.491522  1
  Si  Si117  1  0.187128  0.856333  0.377489  1
  Si  Si118  1  0.686948  0.356942  0.181290  1
  Si  Si119  1  0.812814  0.856342  0.377489  1
  Si  Si120  1  0.312814  0.356928  0.181294  1
  Si  Si121  1  0.186977  0.857063  0.212690  1
  Si  Si122  1  0.812816  0.857077  0.212688  1
  Si  Si123  1  0.312583  0.642299  0.211838  1
  Si  Si124  1  0.687183  0.642317  0.211833  1
  Si  Si125  1  0.812607  0.142164  0.182131  1
  Si  Si126  1  0.312583  0.641490  0.377976  1
  Si  Si127  1  0.187172  0.142148  0.182134  1
  Si  Si128  1  0.687156  0.641539  0.377974  1
  Si  Si129  1  0.686824  0.050976  0.351316  1
  Si  Si130  1  0.186679  0.552162  0.155454  1
  Si  Si131  1  0.313138  0.050966  0.351318  1
  Si  Si132  1  0.813061  0.552179  0.155448  1
  Si  Si133  1  0.686705  0.052282  0.238532  1
  Si  Si134  1  0.313102  0.052264  0.238533  1
  Si  Si135  1  0.813575  0.447146  0.237409  1
  Si  Si136  1  0.186180  0.447129  0.237413  1
  Si  Si137  1  0.313530  0.946997  0.156519  1
  Si  Si138  1  0.813213  0.447109  0.351793  1
  Si  Si139  1  0.686272  0.947007  0.156516  1
  Si  Si140  1  0.186442  0.447076  0.351796  1
  Si  Si141  1  0.185853  0.144181  0.295044  1
  Si  Si142  1  0.813997  0.144214  0.295038  1
  Si  Si143  1  0.313905  0.359967  0.294578  1
  Si  Si144  1  0.685834  0.359983  0.294573  1
  Si  Si145  1  0.686948  0.356942  0.572813  1
  Si  Si146  1  0.312814  0.356928  0.572817  1
  Si  Si147  1  0.186977  0.857063  0.604213  1
  Si  Si148  1  0.687017  0.356564  0.407956  1
  Si  Si149  1  0.812816  0.857077  0.604211  1
  Si  Si150  1  0.312651  0.356561  0.407962  1
  Si  Si151  1  0.812640  0.141769  0.407557  1
  Si  Si152  1  0.312583  0.642299  0.603361  1
  Si  Si153  1  0.187259  0.141715  0.407561  1
  Si  Si154  1  0.687183  0.642317  0.603356  1
  Si  Si155  1  0.812607  0.142164  0.573654  1
  Si  Si156  1  0.187172  0.142148  0.573657  1
  Si  Si157  1  0.186679  0.552162  0.546977  1
  Si  Si158  1  0.813061  0.552179  0.546971  1
  Si  Si159  1  0.686705  0.052282  0.630054  1
  Si  Si160  1  0.186671  0.551009  0.434239  1
  Si  Si161  1  0.313102  0.052264  0.630056  1
  Si  Si162  1  0.812981  0.551014  0.434235  1
  Si  Si163  1  0.313440  0.947098  0.433589  1
  Si  Si164  1  0.813575  0.447146  0.628932  1
  Si  Si165  1  0.686512  0.947142  0.433586  1
  Si  Si166  1  0.186180  0.447129  0.628936  1
  Si  Si167  1  0.313530  0.946997  0.548042  1
  Si  Si168  1  0.686272  0.947007  0.548039  1
  Si  Si169  1  0.685771  0.644325  0.490507  1
  Si  Si170  1  0.313949  0.644294  0.490511  1
  Si  Si171  1  0.813913  0.860074  0.490810  1
  Si  Si172  1  0.185919  0.860063  0.490812  1
  H  H173  1  0.261962  0.587526  0.107267  1
  H  H174  1  0.737798  0.587564  0.107262  1
  H  H175  1  0.257444  0.909858  0.107222  1
  H  H176  1  0.742377  0.909857  0.107221  1
  H  H177  1  0.761212  0.087674  0.678297  1
  H  H178  1  0.238623  0.087635  0.678303  1
  H  H179  1  0.759915  0.409520  0.678331  1
  H  H180  1  0.239791  0.409496  0.678337  1
