# generated using pymatgen
data_Si15H2O31
_symmetry_space_group_name_H-M   'P 1'
_cell_length_a   8.49308350
_cell_length_b   14.48572599
_cell_length_c   50.95982232
_cell_angle_alpha   90.00000000
_cell_angle_beta   90.00000000
_cell_angle_gamma   90.00000000
_symmetry_Int_Tables_number   1
_chemical_formula_structural   Si15H2O31
_chemical_formula_sum   'Si60 H8 O124'
_cell_volume   6269.50950103
_cell_formula_units_Z   4
loop_
 _symmetry_equiv_pos_site_id
 _symmetry_equiv_pos_as_xyz
  1  'x, y, z'
loop_
 _atom_site_type_symbol
 _atom_site_label
 _atom_site_symmetry_multiplicity
 _atom_site_fract_x
 _atom_site_fract_y
 _atom_site_fract_z
 _atom_site_occupancy
  Si  Si1  1  0.428265  0.105954  0.208733  1
  Si  Si2  1  0.252226  0.105950  0.261947  1
  Si  Si3  1  0.571513  0.105950  0.291287  1
  Si  Si4  1  0.747553  0.105953  0.238073  1
  Si  Si5  1  0.428264  0.605952  0.291286  1
  Si  Si6  1  0.252224  0.605950  0.238071  1
  Si  Si7  1  0.571511  0.605951  0.208731  1
  Si  Si8  1  0.747552  0.605954  0.261946  1
  Si  Si9  1  0.571516  0.894017  0.291285  1
  Si  Si10  1  0.747555  0.894021  0.238071  1
  Si  Si11  1  0.428268  0.894021  0.208731  1
  Si  Si12  1  0.252228  0.894018  0.261945  1
  Si  Si13  1  0.571517  0.394018  0.208732  1
  Si  Si14  1  0.747557  0.394021  0.261947  1
  Si  Si15  1  0.428269  0.394020  0.291287  1
  Si  Si16  1  0.252230  0.394017  0.238072  1
  Si  Si17  1  0.499893  0.249985  0.166677  1
  Si  Si18  1  0.999892  0.249985  0.250011  1
  Si  Si19  1  0.999890  0.749985  0.250008  1
  Si  Si20  1  0.428265  0.105954  0.375399  1
  Si  Si21  1  0.252226  0.105950  0.428614  1
  Si  Si22  1  0.571513  0.105950  0.457954  1
  Si  Si23  1  0.747553  0.105953  0.404739  1
  Si  Si24  1  0.428264  0.605952  0.457952  1
  Si  Si25  1  0.252224  0.605950  0.404738  1
  Si  Si26  1  0.571511  0.605951  0.375398  1
  Si  Si27  1  0.747552  0.605954  0.428612  1
  Si  Si28  1  0.571516  0.894017  0.457952  1
  Si  Si29  1  0.747555  0.894021  0.404737  1
  Si  Si30  1  0.428268  0.894021  0.375398  1
  Si  Si31  1  0.252228  0.894018  0.428612  1
  Si  Si32  1  0.571517  0.394018  0.375399  1
  Si  Si33  1  0.747557  0.394021  0.428614  1
  Si  Si34  1  0.428269  0.394020  0.457954  1
  Si  Si35  1  0.252230  0.394017  0.404739  1
  Si  Si36  1  0.499893  0.249985  0.333344  1
  Si  Si37  1  0.999892  0.249985  0.416677  1
  Si  Si38  1  0.499890  0.749985  0.333342  1
  Si  Si39  1  0.999890  0.749985  0.416675  1
  O  O40  1  0.409899  0.319706  0.147522  1
  O  O41  1  0.589885  0.180264  0.147522  1
  O  O42  1  0.589889  0.319704  0.185832  1
  O  O43  1  0.114822  0.319703  0.235011  1
  O  O44  1  0.409899  0.319706  0.314188  1
  O  O45  1  0.884964  0.319707  0.265010  1
  O  O46  1  0.589887  0.819703  0.314187  1
  O  O47  1  0.114820  0.819703  0.265007  1
  O  O48  1  0.409897  0.819707  0.185830  1
  O  O49  1  0.884963  0.819706  0.235009  1
  O  O50  1  0.409893  0.680267  0.314187  1
  O  O51  1  0.884959  0.680268  0.265008  1
  O  O52  1  0.589883  0.680265  0.185831  1
  O  O53  1  0.114816  0.680264  0.235009  1
  O  O54  1  0.409896  0.180268  0.185832  1
  O  O55  1  0.884960  0.180267  0.235011  1
  O  O56  1  0.589885  0.180264  0.314189  1
  O  O57  1  0.114819  0.180264  0.265010  1
  O  O58  1  0.416842  0.999987  0.200792  1
  O  O59  1  0.204586  0.999984  0.263850  1
  O  O60  1  0.582939  0.999982  0.299227  1
  O  O61  1  0.795196  0.999988  0.236168  1
  O  O62  1  0.416842  0.499987  0.299227  1
  O  O63  1  0.204586  0.499982  0.236168  1
  O  O64  1  0.582939  0.499984  0.200792  1
  O  O65  1  0.795195  0.499987  0.263850  1
  O  O66  1  0.317576  0.119939  0.233154  1
  O  O67  1  0.398749  0.119937  0.280396  1
  O  O68  1  0.682202  0.119939  0.266867  1
  O  O69  1  0.601030  0.119941  0.219625  1
  O  O70  1  0.317576  0.619939  0.266865  1
  O  O71  1  0.398749  0.619937  0.219623  1
  O  O72  1  0.682199  0.619940  0.233152  1
  O  O73  1  0.601026  0.619941  0.280394  1
  O  O74  1  0.682204  0.880031  0.266865  1
  O  O75  1  0.601031  0.880034  0.219623  1
  O  O76  1  0.317580  0.880032  0.233152  1
  O  O77  1  0.398754  0.880029  0.280394  1
  O  O78  1  0.682207  0.380032  0.233154  1
  O  O79  1  0.601034  0.380034  0.280396  1
  O  O80  1  0.317581  0.380031  0.266867  1
  O  O81  1  0.398753  0.380030  0.219625  1
  O  O82  1  0.589889  0.319704  0.352498  1
  O  O83  1  0.114822  0.319703  0.401678  1
  O  O84  1  0.409899  0.319706  0.480855  1
  O  O85  1  0.884964  0.319707  0.431677  1
  O  O86  1  0.589887  0.819703  0.480853  1
  O  O87  1  0.114820  0.819703  0.431674  1
  O  O88  1  0.409897  0.819707  0.352496  1
  O  O89  1  0.884963  0.819706  0.401675  1
  O  O90  1  0.409893  0.680267  0.480854  1
  O  O91  1  0.884959  0.680268  0.431674  1
  O  O92  1  0.589883  0.680265  0.352497  1
  O  O93  1  0.114816  0.680264  0.401676  1
  O  O94  1  0.409896  0.180268  0.352498  1
  O  O95  1  0.884960  0.180267  0.401678  1
  O  O96  1  0.589885  0.180264  0.480855  1
  O  O97  1  0.114819  0.180264  0.431677  1
  O  O98  1  0.416842  0.999987  0.367458  1
  O  O99  1  0.204586  0.999984  0.430517  1
  O  O100  1  0.582939  0.999982  0.465894  1
  O  O101  1  0.795196  0.999988  0.402834  1
  O  O102  1  0.416842  0.499987  0.465894  1
  O  O103  1  0.204586  0.499982  0.402834  1
  O  O104  1  0.582939  0.499984  0.367458  1
  O  O105  1  0.795195  0.499987  0.430517  1
  O  O106  1  0.317576  0.119939  0.399821  1
  O  O107  1  0.398749  0.119937  0.447062  1
  O  O108  1  0.682202  0.119939  0.433534  1
  O  O109  1  0.601030  0.119941  0.386291  1
  O  O110  1  0.317576  0.619939  0.433532  1
  O  O111  1  0.398749  0.619937  0.386290  1
  O  O112  1  0.682199  0.619940  0.399819  1
  O  O113  1  0.601026  0.619941  0.447061  1
  O  O114  1  0.682204  0.880031  0.433532  1
  O  O115  1  0.601031  0.880034  0.386290  1
  O  O116  1  0.317580  0.880032  0.399818  1
  O  O117  1  0.398754  0.880029  0.447061  1
  O  O118  1  0.682207  0.380032  0.399821  1
  O  O119  1  0.601034  0.380034  0.447062  1
  O  O120  1  0.317581  0.380031  0.433533  1
  O  O121  1  0.398753  0.380030  0.386291  1
  H  H122  1  0.409899  0.319706  0.129861  1
  H  H123  1  0.589885  0.180264  0.129861  1
  H  H124  1  0.409897  0.819707  0.168169  1
  H  H125  1  0.589883  0.680265  0.168169  1
  Si  Si126  1  0.428265  0.105954  0.542066  1
  Si  Si127  1  0.252226  0.105950  0.595281  1
  Si  Si128  1  0.571513  0.105950  0.624621  1
  Si  Si129  1  0.747553  0.105953  0.571406  1
  Si  Si130  1  0.428264  0.605952  0.624619  1
  Si  Si131  1  0.252224  0.605950  0.571404  1
  Si  Si132  1  0.571511  0.605951  0.542064  1
  Si  Si133  1  0.747552  0.605954  0.595279  1
  Si  Si134  1  0.571516  0.894017  0.624619  1
  Si  Si135  1  0.747555  0.894021  0.571404  1
  Si  Si136  1  0.428268  0.894021  0.542064  1
  Si  Si137  1  0.252228  0.894018  0.595279  1
  Si  Si138  1  0.571517  0.394018  0.542066  1
  Si  Si139  1  0.747557  0.394021  0.595280  1
  Si  Si140  1  0.428269  0.394020  0.624621  1
  Si  Si141  1  0.252230  0.394017  0.571406  1
  Si  Si142  1  0.499893  0.249985  0.500010  1
  Si  Si143  1  0.999892  0.249985  0.583344  1
  Si  Si144  1  0.499890  0.749985  0.500009  1
  Si  Si145  1  0.999890  0.749985  0.583341  1
  Si  Si146  1  0.499890  0.749985  0.666675  1
  O  O147  1  0.589889  0.319704  0.519165  1
  O  O148  1  0.114822  0.319703  0.568345  1
  O  O149  1  0.409899  0.319706  0.647522  1
  O  O150  1  0.884964  0.319707  0.598343  1
  O  O151  1  0.589887  0.819703  0.647520  1
  O  O152  1  0.114820  0.819703  0.598340  1
  O  O153  1  0.409897  0.819707  0.519163  1
  O  O154  1  0.884963  0.819706  0.568342  1
  O  O155  1  0.409893  0.680267  0.647520  1
  O  O156  1  0.884959  0.680268  0.598340  1
  O  O157  1  0.589883  0.680265  0.519163  1
  O  O158  1  0.114816  0.680264  0.568342  1
  O  O159  1  0.409896  0.180268  0.519165  1
  O  O160  1  0.884960  0.180267  0.568345  1
  O  O161  1  0.589885  0.180264  0.647522  1
  O  O162  1  0.114819  0.180264  0.598343  1
  O  O163  1  0.416842  0.999987  0.534125  1
  O  O164  1  0.204586  0.999984  0.597184  1
  O  O165  1  0.582939  0.999982  0.632560  1
  O  O166  1  0.795196  0.999988  0.569501  1
  O  O167  1  0.416842  0.499987  0.632560  1
  O  O168  1  0.204586  0.499982  0.569501  1
  O  O169  1  0.582939  0.499984  0.534126  1
  O  O170  1  0.795195  0.499987  0.597184  1
  O  O171  1  0.317576  0.119939  0.566488  1
  O  O172  1  0.398749  0.119937  0.613729  1
  O  O173  1  0.682202  0.119939  0.600200  1
  O  O174  1  0.601030  0.119941  0.552959  1
  O  O175  1  0.317576  0.619939  0.600198  1
  O  O176  1  0.398749  0.619937  0.552956  1
  O  O177  1  0.682199  0.619940  0.566485  1
  O  O178  1  0.601026  0.619941  0.613727  1
  O  O179  1  0.682204  0.880031  0.600198  1
  O  O180  1  0.601031  0.880034  0.552956  1
  O  O181  1  0.317580  0.880032  0.566485  1
  O  O182  1  0.398754  0.880029  0.613727  1
  O  O183  1  0.682207  0.380032  0.566487  1
  O  O184  1  0.601034  0.380034  0.613729  1
  O  O185  1  0.317581  0.380031  0.600200  1
  O  O186  1  0.398753  0.380030  0.552958  1
  O  O187  1  0.409897  0.819707  0.685830  1
  O  O188  1  0.589883  0.680265  0.685830  1
  H  H189  1  0.409899  0.319706  0.665183  1
  H  H190  1  0.589885  0.180264  0.665183  1
  H  H191  1  0.409897  0.819707  0.703491  1
  H  H192  1  0.589883  0.680265  0.703491  1
