# generated using pymatgen
data_Si18H2O37
_symmetry_space_group_name_H-M   'P 1'
_cell_length_a   13.44944935
_cell_length_b   13.44833066
_cell_length_c   62.86114383
_cell_angle_alpha   90.00000000
_cell_angle_beta   90.00000000
_cell_angle_gamma   90.00000000
_symmetry_Int_Tables_number   1
_chemical_formula_structural   Si18H2O37
_chemical_formula_sum   'Si144 H16 O296'
_cell_volume   11369.8611672
_cell_formula_units_Z   8
loop_
 _symmetry_equiv_pos_site_id
 _symmetry_equiv_pos_as_xyz
  1  'x, y, z'
loop_
 _atom_site_type_symbol
 _atom_site_label
 _atom_site_symmetry_multiplicity
 _atom_site_fract_x
 _atom_site_fract_y
 _atom_site_fract_z
 _atom_site_occupancy
  O  O1  1  0.379365  0.360667  0.093860  1
  O  O2  1  0.120446  0.860687  0.093865  1
  O  O3  1  0.620447  0.139453  0.093864  1
  O  O4  1  0.879364  0.639480  0.093858  1
  O  O5  1  0.473416  0.120585  0.236331  1
  O  O6  1  0.120444  0.139481  0.212180  1
  O  O7  1  0.139306  0.026567  0.287697  1
  O  O8  1  0.223399  0.110695  0.178810  1
  O  O9  1  0.129357  0.223590  0.289824  1
  O  O10  1  0.110529  0.129561  0.254331  1
  O  O11  1  0.129347  0.276577  0.182846  1
  O  O12  1  0.026391  0.120601  0.176690  1
  O  O13  1  0.360536  0.026559  0.125320  1
  O  O14  1  0.379368  0.139452  0.200839  1
  O  O15  1  0.276405  0.110668  0.234208  1
  O  O16  1  0.389287  0.129552  0.158688  1
  O  O17  1  0.370450  0.276549  0.230171  1
  O  O18  1  0.370461  0.223580  0.123195  1
  O  O19  1  0.120435  0.639491  0.200839  1
  O  O20  1  0.473422  0.379556  0.129349  1
  O  O21  1  0.139314  0.526570  0.125323  1
  O  O22  1  0.473397  0.620598  0.176679  1
  O  O23  1  0.139275  0.473598  0.180718  1
  O  O24  1  0.120441  0.360695  0.105201  1
  O  O25  1  0.223404  0.389467  0.285785  1
  O  O26  1  0.389290  0.629541  0.254325  1
  O  O27  1  0.110528  0.370601  0.147352  1
  O  O28  1  0.276384  0.610683  0.178806  1
  O  O29  1  0.026396  0.379554  0.283661  1
  O  O30  1  0.360510  0.526553  0.287691  1
  O  O31  1  0.379362  0.639453  0.212173  1
  O  O32  1  0.379365  0.360667  0.307813  1
  O  O33  1  0.026392  0.620596  0.236329  1
  O  O34  1  0.360504  0.473572  0.232296  1
  O  O35  1  0.110493  0.629560  0.158687  1
  O  O36  1  0.276411  0.389466  0.127229  1
  O  O37  1  0.223404  0.610673  0.234205  1
  O  O38  1  0.389286  0.370583  0.265662  1
  O  O39  1  0.139291  0.973589  0.232301  1
  O  O40  1  0.120446  0.860687  0.307818  1
  O  O41  1  0.473412  0.879543  0.283661  1
  O  O42  1  0.389304  0.870592  0.147351  1
  O  O43  1  0.370446  0.723574  0.289817  1
  O  O44  1  0.370438  0.776561  0.182843  1
  O  O45  1  0.276401  0.889462  0.285786  1
  O  O46  1  0.379373  0.860665  0.105199  1
  O  O47  1  0.360488  0.973582  0.180716  1
  O  O48  1  0.026408  0.879558  0.129357  1
  O  O49  1  0.129362  0.776567  0.230176  1
  O  O50  1  0.110506  0.870602  0.265667  1
  O  O51  1  0.129371  0.723593  0.123197  1
  O  O52  1  0.223423  0.889477  0.127231  1
  O  O53  1  0.620447  0.139453  0.307817  1
  O  O54  1  0.639297  0.026556  0.232299  1
  O  O55  1  0.973417  0.120595  0.283662  1
  O  O56  1  0.870436  0.223595  0.182840  1
  O  O57  1  0.889313  0.129559  0.147351  1
  O  O58  1  0.870444  0.276564  0.289815  1
  O  O59  1  0.776404  0.110669  0.285786  1
  O  O60  1  0.860496  0.026572  0.180715  1
  O  O61  1  0.879373  0.139487  0.105199  1
  O  O62  1  0.526411  0.120596  0.129357  1
  O  O63  1  0.610520  0.129543  0.265665  1
  O  O64  1  0.629371  0.276559  0.123194  1
  O  O65  1  0.629362  0.223578  0.230173  1
  O  O66  1  0.723424  0.110681  0.127231  1
  O  O67  1  0.973417  0.620598  0.129348  1
  O  O68  1  0.639317  0.473581  0.125321  1
  O  O69  1  0.620433  0.360669  0.200837  1
  O  O70  1  0.620441  0.639453  0.105197  1
  O  O71  1  0.973399  0.379561  0.176681  1
  O  O72  1  0.639273  0.526561  0.180716  1
  O  O73  1  0.889297  0.370601  0.254324  1
  O  O74  1  0.723404  0.610669  0.285782  1
  O  O75  1  0.776385  0.389480  0.178806  1
  O  O76  1  0.610519  0.629552  0.147348  1
  O  O77  1  0.879359  0.360688  0.212173  1
  O  O78  1  0.526393  0.620582  0.283659  1
  O  O79  1  0.860515  0.473587  0.287691  1
  O  O80  1  0.526393  0.379545  0.236329  1
  O  O81  1  0.860502  0.526567  0.232295  1
  O  O82  1  0.879364  0.639480  0.307811  1
  O  O83  1  0.776408  0.610692  0.127227  1
  O  O84  1  0.610505  0.370593  0.158686  1
  O  O85  1  0.889283  0.629558  0.265660  1
  O  O86  1  0.723404  0.389467  0.234205  1
  O  O87  1  0.973409  0.879556  0.236331  1
  O  O88  1  0.639301  0.973572  0.287694  1
  O  O89  1  0.620441  0.860668  0.212177  1
  O  O90  1  0.723397  0.889470  0.178808  1
  O  O91  1  0.610516  0.870585  0.254328  1
  O  O92  1  0.629347  0.723583  0.182841  1
  O  O93  1  0.629357  0.776549  0.289819  1
  O  O94  1  0.526386  0.879559  0.176688  1
  O  O95  1  0.879364  0.860695  0.200837  1
  O  O96  1  0.860532  0.973596  0.125320  1
  O  O97  1  0.776400  0.889467  0.234206  1
  O  O98  1  0.870460  0.776574  0.123192  1
  O  O99  1  0.889281  0.870601  0.158686  1
  O  O100  1  0.870449  0.723590  0.230168  1
  O  O101  1  0.473416  0.120585  0.450285  1
  O  O102  1  0.120444  0.139481  0.426134  1
  O  O103  1  0.139306  0.026567  0.501650  1
  O  O104  1  0.223399  0.110695  0.392763  1
  O  O105  1  0.129357  0.223590  0.503778  1
  O  O106  1  0.110529  0.129561  0.468285  1
  O  O107  1  0.129347  0.276577  0.396799  1
  O  O108  1  0.026391  0.120601  0.390643  1
  O  O109  1  0.360536  0.026559  0.339274  1
  O  O110  1  0.379368  0.139452  0.414793  1
  O  O111  1  0.276405  0.110668  0.448162  1
  O  O112  1  0.389287  0.129552  0.372641  1
  O  O113  1  0.370450  0.276549  0.444124  1
  O  O114  1  0.370461  0.223580  0.337149  1
  O  O115  1  0.120435  0.639491  0.414792  1
  O  O116  1  0.473422  0.379556  0.343302  1
  O  O117  1  0.139314  0.526570  0.339277  1
  O  O118  1  0.473397  0.620598  0.390633  1
  O  O119  1  0.139275  0.473598  0.394672  1
  O  O120  1  0.120441  0.360695  0.319154  1
  O  O121  1  0.223404  0.389467  0.499738  1
  O  O122  1  0.389290  0.629541  0.468278  1
  O  O123  1  0.110528  0.370601  0.361306  1
  O  O124  1  0.276384  0.610683  0.392760  1
  O  O125  1  0.026396  0.379554  0.497614  1
  O  O126  1  0.360510  0.526553  0.501645  1
  O  O127  1  0.379362  0.639453  0.426127  1
  O  O128  1  0.379365  0.360667  0.521767  1
  O  O129  1  0.026392  0.620596  0.450282  1
  O  O130  1  0.360504  0.473572  0.446249  1
  O  O131  1  0.110493  0.629560  0.372640  1
  O  O132  1  0.276411  0.389466  0.341183  1
  O  O133  1  0.223404  0.610673  0.448159  1
  O  O134  1  0.389286  0.370583  0.479616  1
  O  O135  1  0.139291  0.973589  0.446254  1
  O  O136  1  0.120446  0.860687  0.521772  1
  O  O137  1  0.473412  0.879543  0.497615  1
  O  O138  1  0.389304  0.870592  0.361305  1
  O  O139  1  0.370446  0.723574  0.503771  1
  O  O140  1  0.370438  0.776561  0.396796  1
  O  O141  1  0.276401  0.889462  0.499739  1
  O  O142  1  0.379373  0.860665  0.319153  1
  O  O143  1  0.360488  0.973582  0.394669  1
  O  O144  1  0.026408  0.879558  0.343311  1
  O  O145  1  0.129362  0.776567  0.444130  1
  O  O146  1  0.110506  0.870602  0.479621  1
  O  O147  1  0.129371  0.723593  0.337151  1
  O  O148  1  0.223423  0.889477  0.341185  1
  O  O149  1  0.620447  0.139453  0.521771  1
  O  O150  1  0.639297  0.026556  0.446252  1
  O  O151  1  0.973417  0.120595  0.497616  1
  O  O152  1  0.870436  0.223595  0.396794  1
  O  O153  1  0.889313  0.129559  0.361304  1
  O  O154  1  0.870444  0.276564  0.503769  1
  O  O155  1  0.776404  0.110669  0.499739  1
  O  O156  1  0.860496  0.026572  0.394669  1
  O  O157  1  0.879373  0.139487  0.319152  1
  O  O158  1  0.526411  0.120596  0.343311  1
  O  O159  1  0.610520  0.129543  0.479619  1
  O  O160  1  0.629371  0.276559  0.337148  1
  O  O161  1  0.629362  0.223578  0.444126  1
  O  O162  1  0.723424  0.110681  0.341185  1
  O  O163  1  0.973417  0.620598  0.343301  1
  O  O164  1  0.639317  0.473581  0.339274  1
  O  O165  1  0.620433  0.360669  0.414791  1
  O  O166  1  0.620441  0.639453  0.319151  1
  O  O167  1  0.973399  0.379561  0.390634  1
  O  O168  1  0.639273  0.526561  0.394670  1
  O  O169  1  0.889297  0.370601  0.468278  1
  O  O170  1  0.723404  0.610669  0.499736  1
  O  O171  1  0.776385  0.389480  0.392760  1
  O  O172  1  0.610519  0.629552  0.361302  1
  O  O173  1  0.879359  0.360688  0.426126  1
  O  O174  1  0.526393  0.620582  0.497612  1
  O  O175  1  0.860515  0.473587  0.501644  1
  O  O176  1  0.526393  0.379545  0.450283  1
  O  O177  1  0.860502  0.526567  0.446248  1
  O  O178  1  0.879364  0.639480  0.521765  1
  O  O179  1  0.776408  0.610692  0.341181  1
  O  O180  1  0.610505  0.370593  0.372639  1
  O  O181  1  0.889283  0.629558  0.479614  1
  O  O182  1  0.723404  0.389467  0.448159  1
  O  O183  1  0.973409  0.879556  0.450284  1
  O  O184  1  0.639301  0.973572  0.501648  1
  O  O185  1  0.620441  0.860668  0.426130  1
  O  O186  1  0.723397  0.889470  0.392761  1
  O  O187  1  0.610516  0.870585  0.468282  1
  O  O188  1  0.629347  0.723583  0.396794  1
  O  O189  1  0.629357  0.776549  0.503772  1
  O  O190  1  0.526386  0.879559  0.390641  1
  O  O191  1  0.879364  0.860695  0.414791  1
  O  O192  1  0.860532  0.973596  0.339273  1
  O  O193  1  0.776400  0.889467  0.448160  1
  O  O194  1  0.870460  0.776574  0.337146  1
  O  O195  1  0.889281  0.870601  0.372640  1
  O  O196  1  0.870449  0.723590  0.444121  1
  O  O197  1  0.473416  0.120585  0.664239  1
  O  O198  1  0.120444  0.139481  0.640087  1
  O  O199  1  0.139306  0.026567  0.715604  1
  O  O200  1  0.223399  0.110695  0.606717  1
  O  O201  1  0.129357  0.223590  0.717731  1
  O  O202  1  0.110529  0.129561  0.682238  1
  O  O203  1  0.129347  0.276577  0.610753  1
  O  O204  1  0.026391  0.120601  0.604597  1
  O  O205  1  0.360536  0.026559  0.553228  1
  O  O206  1  0.379368  0.139452  0.628746  1
  O  O207  1  0.276405  0.110668  0.662115  1
  O  O208  1  0.389287  0.129552  0.586595  1
  O  O209  1  0.370450  0.276549  0.658078  1
  O  O210  1  0.370461  0.223580  0.551103  1
  O  O211  1  0.120435  0.639491  0.628746  1
  O  O212  1  0.473422  0.379556  0.557256  1
  O  O213  1  0.139314  0.526570  0.553230  1
  O  O214  1  0.473397  0.620598  0.604586  1
  O  O215  1  0.139275  0.473598  0.608625  1
  O  O216  1  0.120441  0.360695  0.533108  1
  O  O217  1  0.223404  0.389467  0.713692  1
  O  O218  1  0.389290  0.629541  0.682232  1
  O  O219  1  0.110528  0.370601  0.575259  1
  O  O220  1  0.276384  0.610683  0.606713  1
  O  O221  1  0.026396  0.379554  0.711568  1
  O  O222  1  0.360510  0.526553  0.715599  1
  O  O223  1  0.379362  0.639453  0.640080  1
  O  O224  1  0.379365  0.360667  0.735721  1
  O  O225  1  0.026392  0.620596  0.664236  1
  O  O226  1  0.360504  0.473572  0.660203  1
  O  O227  1  0.110493  0.629560  0.586594  1
  O  O228  1  0.276411  0.389466  0.555136  1
  O  O229  1  0.223404  0.610673  0.662112  1
  O  O230  1  0.389286  0.370583  0.693569  1
  O  O231  1  0.139291  0.973589  0.660208  1
  O  O232  1  0.120446  0.860687  0.735725  1
  O  O233  1  0.473412  0.879543  0.711568  1
  O  O234  1  0.389304  0.870592  0.575258  1
  O  O235  1  0.370446  0.723574  0.717724  1
  O  O236  1  0.370438  0.776561  0.610750  1
  O  O237  1  0.276401  0.889462  0.713693  1
  O  O238  1  0.379373  0.860665  0.533106  1
  O  O239  1  0.360488  0.973582  0.608623  1
  O  O240  1  0.026408  0.879558  0.557265  1
  O  O241  1  0.129362  0.776567  0.658083  1
  O  O242  1  0.110506  0.870602  0.693574  1
  O  O243  1  0.129371  0.723593  0.551104  1
  O  O244  1  0.223423  0.889477  0.555138  1
  O  O245  1  0.620447  0.139453  0.735724  1
  O  O246  1  0.639297  0.026556  0.660206  1
  O  O247  1  0.973417  0.120595  0.711569  1
  O  O248  1  0.870436  0.223595  0.610747  1
  O  O249  1  0.889313  0.129559  0.575258  1
  O  O250  1  0.870444  0.276564  0.717722  1
  O  O251  1  0.776404  0.110669  0.713693  1
  O  O252  1  0.860496  0.026572  0.608622  1
  O  O253  1  0.879373  0.139487  0.533106  1
  O  O254  1  0.526411  0.120596  0.557265  1
  O  O255  1  0.610520  0.129543  0.693573  1
  O  O256  1  0.629371  0.276559  0.551101  1
  O  O257  1  0.629362  0.223578  0.658080  1
  O  O258  1  0.723424  0.110681  0.555138  1
  O  O259  1  0.973417  0.620598  0.557255  1
  O  O260  1  0.639317  0.473581  0.553228  1
  O  O261  1  0.620433  0.360669  0.628745  1
  O  O262  1  0.620441  0.639453  0.533105  1
  O  O263  1  0.973399  0.379561  0.604588  1
  O  O264  1  0.639273  0.526561  0.608623  1
  O  O265  1  0.889297  0.370601  0.682231  1
  O  O266  1  0.723404  0.610669  0.713690  1
  O  O267  1  0.776385  0.389480  0.606713  1
  O  O268  1  0.610519  0.629552  0.575256  1
  O  O269  1  0.879359  0.360688  0.640080  1
  O  O270  1  0.526393  0.620582  0.711566  1
  O  O271  1  0.860515  0.473587  0.715598  1
  O  O272  1  0.526393  0.379545  0.664236  1
  O  O273  1  0.860502  0.526567  0.660202  1
  O  O274  1  0.879364  0.639480  0.735718  1
  O  O275  1  0.776408  0.610692  0.555135  1
  O  O276  1  0.610505  0.370593  0.586593  1
  O  O277  1  0.889283  0.629558  0.693567  1
  O  O278  1  0.723404  0.389467  0.662112  1
  O  O279  1  0.973409  0.879556  0.664238  1
  O  O280  1  0.639301  0.973572  0.715601  1
  O  O281  1  0.620441  0.860668  0.640084  1
  O  O282  1  0.723397  0.889470  0.606715  1
  O  O283  1  0.610516  0.870585  0.682235  1
  O  O284  1  0.629347  0.723583  0.610748  1
  O  O285  1  0.629357  0.776549  0.717726  1
  O  O286  1  0.526386  0.879559  0.604595  1
  O  O287  1  0.879364  0.860695  0.628744  1
  O  O288  1  0.860532  0.973596  0.553227  1
  O  O289  1  0.776400  0.889467  0.662113  1
  O  O290  1  0.870460  0.776574  0.551100  1
  O  O291  1  0.889281  0.870601  0.586593  1
  O  O292  1  0.870449  0.723590  0.658075  1
  O  O293  1  0.120441  0.360695  0.747062  1
  O  O294  1  0.379373  0.860665  0.747060  1
  O  O295  1  0.879373  0.139487  0.747060  1
  O  O296  1  0.620441  0.639453  0.747058  1
  Si  Si297  1  0.160615  0.089382  0.233255  1
  Si  Si298  1  0.089202  0.125077  0.279103  1
  Si  Si299  1  0.124894  0.160782  0.187407  1
  Si  Si300  1  0.339183  0.089379  0.179762  1
  Si  Si301  1  0.410625  0.125072  0.133916  1
  Si  Si302  1  0.374913  0.160753  0.225612  1
  Si  Si303  1  0.089196  0.625079  0.133914  1
  Si  Si304  1  0.124898  0.660775  0.225613  1
  Si  Si305  1  0.160626  0.410775  0.126277  1
  Si  Si306  1  0.160594  0.589392  0.179762  1
  Si  Si307  1  0.089187  0.375083  0.172123  1
  Si  Si308  1  0.124896  0.339387  0.294381  1
  Si  Si309  1  0.339193  0.410759  0.286737  1
  Si  Si310  1  0.410610  0.625064  0.279097  1
  Si  Si311  1  0.374897  0.660764  0.187400  1
  Si  Si312  1  0.410609  0.375063  0.240890  1
  Si  Si313  1  0.374916  0.339374  0.118633  1
  Si  Si314  1  0.339190  0.589367  0.233250  1
  Si  Si315  1  0.089190  0.875078  0.240894  1
  Si  Si316  1  0.124911  0.839389  0.118638  1
  Si  Si317  1  0.160616  0.910771  0.286742  1
  Si  Si318  1  0.410604  0.875074  0.172124  1
  Si  Si319  1  0.374909  0.839368  0.294379  1
  Si  Si320  1  0.339213  0.910766  0.126275  1
  Si  Si321  1  0.589199  0.125067  0.240893  1
  Si  Si322  1  0.624912  0.160762  0.118636  1
  Si  Si323  1  0.660617  0.089367  0.286740  1
  Si  Si324  1  0.910611  0.125081  0.172124  1
  Si  Si325  1  0.874910  0.160772  0.294379  1
  Si  Si326  1  0.839213  0.089390  0.126275  1
  Si  Si327  1  0.660623  0.589378  0.126274  1
  Si  Si328  1  0.589203  0.375073  0.133912  1
  Si  Si329  1  0.624897  0.339372  0.225611  1
  Si  Si330  1  0.589183  0.625074  0.172120  1
  Si  Si331  1  0.624896  0.660754  0.294378  1
  Si  Si332  1  0.660595  0.410768  0.179761  1
  Si  Si333  1  0.910615  0.375076  0.279097  1
  Si  Si334  1  0.874895  0.339391  0.187399  1
  Si  Si335  1  0.839194  0.589381  0.286736  1
  Si  Si336  1  0.839190  0.410772  0.233250  1
  Si  Si337  1  0.910607  0.625077  0.240888  1
  Si  Si338  1  0.874914  0.660780  0.118631  1
  Si  Si339  1  0.660612  0.910761  0.233253  1
  Si  Si340  1  0.589196  0.875064  0.279100  1
  Si  Si341  1  0.624892  0.839376  0.187403  1
  Si  Si342  1  0.839183  0.910777  0.179761  1
  Si  Si343  1  0.910621  0.875081  0.133915  1
  Si  Si344  1  0.874909  0.839386  0.225610  1
  Si  Si345  1  0.160615  0.089382  0.447209  1
  Si  Si346  1  0.089202  0.125077  0.493057  1
  Si  Si347  1  0.124894  0.160782  0.401360  1
  Si  Si348  1  0.339183  0.089379  0.393716  1
  Si  Si349  1  0.410625  0.125072  0.347870  1
  Si  Si350  1  0.374913  0.160753  0.439566  1
  Si  Si351  1  0.089196  0.625079  0.347867  1
  Si  Si352  1  0.124898  0.660775  0.439566  1
  Si  Si353  1  0.160626  0.410775  0.340231  1
  Si  Si354  1  0.160594  0.589392  0.393716  1
  Si  Si355  1  0.089187  0.375083  0.386077  1
  Si  Si356  1  0.124896  0.339387  0.508335  1
  Si  Si357  1  0.339193  0.410759  0.500691  1
  Si  Si358  1  0.410610  0.625064  0.493051  1
  Si  Si359  1  0.374897  0.660764  0.401354  1
  Si  Si360  1  0.410609  0.375063  0.454843  1
  Si  Si361  1  0.374916  0.339374  0.332587  1
  Si  Si362  1  0.339190  0.589367  0.447203  1
  Si  Si363  1  0.089190  0.875078  0.454848  1
  Si  Si364  1  0.124911  0.839389  0.332592  1
  Si  Si365  1  0.160616  0.910771  0.500695  1
  Si  Si366  1  0.410604  0.875074  0.386078  1
  Si  Si367  1  0.374909  0.839368  0.508333  1
  Si  Si368  1  0.339213  0.910766  0.340229  1
  Si  Si369  1  0.589199  0.125067  0.454847  1
  Si  Si370  1  0.624912  0.160762  0.332590  1
  Si  Si371  1  0.660617  0.089367  0.500694  1
  Si  Si372  1  0.910611  0.125081  0.386078  1
  Si  Si373  1  0.874910  0.160772  0.508332  1
  Si  Si374  1  0.839213  0.089390  0.340229  1
  Si  Si375  1  0.660623  0.589378  0.340228  1
  Si  Si376  1  0.589203  0.375073  0.347866  1
  Si  Si377  1  0.624897  0.339372  0.439564  1
  Si  Si378  1  0.589183  0.625074  0.386074  1
  Si  Si379  1  0.624896  0.660754  0.508331  1
  Si  Si380  1  0.660595  0.410768  0.393715  1
  Si  Si381  1  0.910615  0.375076  0.493051  1
  Si  Si382  1  0.874895  0.339391  0.401353  1
  Si  Si383  1  0.839194  0.589381  0.500690  1
  Si  Si384  1  0.839190  0.410772  0.447203  1
  Si  Si385  1  0.910607  0.625077  0.454842  1
  Si  Si386  1  0.874914  0.660780  0.332585  1
  Si  Si387  1  0.660612  0.910761  0.447206  1
  Si  Si388  1  0.589196  0.875064  0.493054  1
  Si  Si389  1  0.624892  0.839376  0.401357  1
  Si  Si390  1  0.839183  0.910777  0.393715  1
  Si  Si391  1  0.910621  0.875081  0.347868  1
  Si  Si392  1  0.874909  0.839386  0.439564  1
  Si  Si393  1  0.160615  0.089382  0.661162  1
  Si  Si394  1  0.089202  0.125077  0.707011  1
  Si  Si395  1  0.124894  0.160782  0.615314  1
  Si  Si396  1  0.339183  0.089379  0.607670  1
  Si  Si397  1  0.410625  0.125072  0.561823  1
  Si  Si398  1  0.374913  0.160753  0.653519  1
  Si  Si399  1  0.089196  0.625079  0.561821  1
  Si  Si400  1  0.124898  0.660775  0.653520  1
  Si  Si401  1  0.160626  0.410775  0.554184  1
  Si  Si402  1  0.160594  0.589392  0.607670  1
  Si  Si403  1  0.089187  0.375083  0.600031  1
  Si  Si404  1  0.124896  0.339387  0.722289  1
  Si  Si405  1  0.339193  0.410759  0.714645  1
  Si  Si406  1  0.410610  0.625064  0.707005  1
  Si  Si407  1  0.374897  0.660764  0.615307  1
  Si  Si408  1  0.410609  0.375063  0.668797  1
  Si  Si409  1  0.374916  0.339374  0.546540  1
  Si  Si410  1  0.339190  0.589367  0.661157  1
  Si  Si411  1  0.089190  0.875078  0.668801  1
  Si  Si412  1  0.124911  0.839389  0.546545  1
  Si  Si413  1  0.160616  0.910771  0.714649  1
  Si  Si414  1  0.410604  0.875074  0.600032  1
  Si  Si415  1  0.374909  0.839368  0.722287  1
  Si  Si416  1  0.339213  0.910766  0.554182  1
  Si  Si417  1  0.589199  0.125067  0.668800  1
  Si  Si418  1  0.624912  0.160762  0.546544  1
  Si  Si419  1  0.660617  0.089367  0.714648  1
  Si  Si420  1  0.910611  0.125081  0.600031  1
  Si  Si421  1  0.874910  0.160772  0.722286  1
  Si  Si422  1  0.839213  0.089390  0.554182  1
  Si  Si423  1  0.660623  0.589378  0.554181  1
  Si  Si424  1  0.589203  0.375073  0.561819  1
  Si  Si425  1  0.624897  0.339372  0.653518  1
  Si  Si426  1  0.589183  0.625074  0.600027  1
  Si  Si427  1  0.624896  0.660754  0.722285  1
  Si  Si428  1  0.660595  0.410768  0.607668  1
  Si  Si429  1  0.910615  0.375076  0.707004  1
  Si  Si430  1  0.874895  0.339391  0.615307  1
  Si  Si431  1  0.839194  0.589381  0.714643  1
  Si  Si432  1  0.839190  0.410772  0.661157  1
  Si  Si433  1  0.910607  0.625077  0.668795  1
  Si  Si434  1  0.874914  0.660780  0.546538  1
  Si  Si435  1  0.660612  0.910761  0.661160  1
  Si  Si436  1  0.589196  0.875064  0.707007  1
  Si  Si437  1  0.624892  0.839376  0.615310  1
  Si  Si438  1  0.839183  0.910777  0.607668  1
  Si  Si439  1  0.910621  0.875081  0.561822  1
  Si  Si440  1  0.874909  0.839386  0.653517  1
  H  H441  1  0.379365  0.360667  0.079543  1
  H  H442  1  0.120446  0.860687  0.079547  1
  H  H443  1  0.620447  0.139453  0.079546  1
  H  H444  1  0.879364  0.639480  0.079540  1
  H  H445  1  0.120441  0.360695  0.090884  1
  H  H446  1  0.379373  0.860665  0.090882  1
  H  H447  1  0.879373  0.139487  0.090882  1
  H  H448  1  0.620441  0.639453  0.090880  1
  H  H449  1  0.379365  0.360667  0.750038  1
  H  H450  1  0.120446  0.860687  0.750043  1
  H  H451  1  0.620447  0.139453  0.750042  1
  H  H452  1  0.879364  0.639480  0.750036  1
  H  H453  1  0.120441  0.360695  0.761379  1
  H  H454  1  0.379373  0.860665  0.761377  1
  H  H455  1  0.879373  0.139487  0.761377  1
  H  H456  1  0.620441  0.639453  0.761375  1
