# generated using pymatgen
data_Si24H2O49
_symmetry_space_group_name_H-M   'P 1'
_cell_length_a   8.93798613
_cell_length_b   15.03304869
_cell_length_c   60.22012707
_cell_angle_alpha   90.00000000
_cell_angle_beta   90.00000000
_cell_angle_gamma   90.00000000
_symmetry_Int_Tables_number   1
_chemical_formula_structural   Si24H2O49
_chemical_formula_sum   'Si96 H8 O196'
_cell_volume   8091.48825444
_cell_formula_units_Z   4
loop_
 _symmetry_equiv_pos_site_id
 _symmetry_equiv_pos_as_xyz
  1  'x, y, z'
loop_
 _atom_site_type_symbol
 _atom_site_label
 _atom_site_symmetry_multiplicity
 _atom_site_fract_x
 _atom_site_fract_y
 _atom_site_fract_z
 _atom_site_occupancy
  O  O1  1  0.250117  0.878116  0.177726  1
  O  O2  1  0.750112  0.378115  0.177723  1
  O  O3  1  0.750118  0.878116  0.177725  1
  O  O4  1  0.250111  0.378115  0.177725  1
  O  O5  1  0.250120  0.621710  0.337223  1
  O  O6  1  0.750111  0.121711  0.337222  1
  O  O7  1  0.750117  0.621710  0.337221  1
  O  O8  1  0.250113  0.121711  0.337224  1
  O  O9  1  0.000000  0.874737  0.198690  1
  O  O10  1  0.500116  0.374737  0.198689  1
  O  O11  1  0.000000  0.625089  0.358186  1
  O  O12  1  0.500116  0.125089  0.358188  1
  O  O13  1  -0.000000  0.125089  0.316258  1
  O  O14  1  0.500114  0.625089  0.316257  1
  O  O15  1  0.000000  0.374737  0.156759  1
  O  O16  1  0.500113  0.874737  0.156761  1
  O  O17  1  0.199241  0.755709  0.205667  1
  O  O18  1  0.699242  0.255706  0.205662  1
  O  O19  1  0.800985  0.755706  0.205664  1
  O  O20  1  0.300989  0.255708  0.205666  1
  O  O21  1  0.199241  0.744117  0.365164  1
  O  O22  1  0.699244  0.244120  0.365161  1
  O  O23  1  0.800987  0.744120  0.365160  1
  O  O24  1  0.300989  0.244118  0.365165  1
  O  O25  1  0.800989  0.244118  0.309281  1
  O  O26  1  0.300986  0.744120  0.309284  1
  O  O27  1  0.199244  0.244121  0.309285  1
  O  O28  1  0.699243  0.744118  0.309280  1
  O  O29  1  0.800987  0.255708  0.149782  1
  O  O30  1  0.300986  0.755705  0.149787  1
  O  O31  1  0.199244  0.255706  0.149786  1
  O  O32  1  0.699240  0.755709  0.149784  1
  O  O33  1  0.242583  0.916343  0.219639  1
  O  O34  1  0.742597  0.416337  0.219637  1
  O  O35  1  0.757630  0.916338  0.219638  1
  O  O36  1  0.257647  0.416342  0.219638  1
  O  O37  1  0.242582  0.583484  0.379136  1
  O  O38  1  0.742600  0.083488  0.379135  1
  O  O39  1  0.757633  0.583489  0.379135  1
  O  O40  1  0.257646  0.083483  0.379137  1
  O  O41  1  0.757647  0.083484  0.295309  1
  O  O42  1  0.257631  0.583489  0.295310  1
  O  O43  1  0.242598  0.083489  0.295311  1
  O  O44  1  0.742584  0.583483  0.295308  1
  O  O45  1  0.757645  0.416343  0.135811  1
  O  O46  1  0.257631  0.916336  0.135813  1
  O  O47  1  0.242599  0.416338  0.135812  1
  O  O48  1  0.742581  0.916342  0.135812  1
  O  O49  1  0.205148  0.083511  0.136091  1
  O  O50  1  0.705144  0.583516  0.136087  1
  O  O51  1  0.795084  0.083515  0.136086  1
  O  O52  1  0.295080  0.583512  0.136092  1
  O  O53  1  0.205150  0.416314  0.295590  1
  O  O54  1  0.705144  0.916311  0.295583  1
  O  O55  1  0.795084  0.416310  0.295584  1
  O  O56  1  0.295082  0.916315  0.295589  1
  O  O57  1  0.795081  0.916314  0.378855  1
  O  O58  1  0.295085  0.416312  0.378862  1
  O  O59  1  0.205146  0.916310  0.378861  1
  O  O60  1  0.705149  0.416316  0.378856  1
  O  O61  1  0.795081  0.583510  0.219358  1
  O  O62  1  0.295082  0.083516  0.219363  1
  O  O63  1  0.205143  0.583515  0.219364  1
  O  O64  1  0.705150  0.083511  0.219357  1
  O  O65  1  0.210216  0.000000  0.097977  1
  O  O66  1  0.710216  0.499909  0.097974  1
  O  O67  1  0.790013  0.000000  0.097974  1
  O  O68  1  0.290014  0.499924  0.097977  1
  O  O69  1  0.210217  0.499901  0.257475  1
  O  O70  1  0.710215  -0.000000  0.257472  1
  O  O71  1  0.790013  0.499916  0.257472  1
  O  O72  1  0.290014  0.000000  0.257476  1
  O  O73  1  -0.000000  0.975323  0.125402  1
  O  O74  1  0.500118  0.475327  0.125401  1
  O  O75  1  0.000000  0.524499  0.284899  1
  O  O76  1  0.500120  0.024504  0.284900  1
  O  O77  1  0.000000  0.024499  0.389546  1
  O  O78  1  0.500112  0.524504  0.389545  1
  O  O79  1  0.000000  0.475322  0.230048  1
  O  O80  1  0.500110  0.975327  0.230048  1
  O  O81  1  0.250102  0.130837  0.177727  1
  O  O82  1  0.750126  0.630837  0.177722  1
  O  O83  1  0.750103  0.130837  0.177721  1
  O  O84  1  0.250125  0.630837  0.177728  1
  O  O85  1  0.250104  0.368989  0.337226  1
  O  O86  1  0.750126  0.868989  0.337219  1
  O  O87  1  0.750104  0.368989  0.337220  1
  O  O88  1  0.250126  0.868989  0.337225  1
  O  O89  1  0.500110  0.146259  0.195675  1
  O  O90  1  -0.000000  0.646260  0.195676  1
  O  O91  1  0.500112  0.353567  0.355174  1
  O  O92  1  0.000000  0.853567  0.355173  1
  O  O93  1  0.500119  0.853566  0.319271  1
  O  O94  1  0.000000  0.353567  0.319272  1
  O  O95  1  0.500118  0.646259  0.159774  1
  O  O96  1  -0.000000  0.146260  0.159773  1
  O  O97  1  0.250117  0.878116  0.496722  1
  O  O98  1  0.750112  0.378115  0.496719  1
  O  O99  1  0.750118  0.878116  0.496720  1
  O  O100  1  0.250111  0.378115  0.496721  1
  O  O101  1  0.250120  0.621710  0.656218  1
  O  O102  1  0.750111  0.121711  0.656218  1
  O  O103  1  0.750117  0.621710  0.656217  1
  O  O104  1  0.250113  0.121711  0.656220  1
  O  O105  1  0.000000  0.874737  0.517686  1
  O  O106  1  0.500116  0.374737  0.517684  1
  O  O107  1  -0.000000  0.625089  0.677182  1
  O  O108  1  0.500116  0.125089  0.677184  1
  O  O109  1  -0.000000  0.125089  0.635254  1
  O  O110  1  0.500114  0.625089  0.635253  1
  O  O111  1  -0.000000  0.374737  0.475755  1
  O  O112  1  0.500113  0.874737  0.475756  1
  O  O113  1  0.199241  0.755709  0.524663  1
  O  O114  1  0.699242  0.255706  0.524658  1
  O  O115  1  0.800985  0.755706  0.524659  1
  O  O116  1  0.300989  0.255708  0.524662  1
  O  O117  1  0.199241  0.744117  0.684159  1
  O  O118  1  0.699244  0.244120  0.684157  1
  O  O119  1  0.800987  0.744120  0.684156  1
  O  O120  1  0.300989  0.244118  0.684161  1
  O  O121  1  0.800989  0.244118  0.628277  1
  O  O122  1  0.300986  0.744120  0.628279  1
  O  O123  1  0.199244  0.244121  0.628281  1
  O  O124  1  0.699243  0.744118  0.628276  1
  O  O125  1  0.800987  0.255708  0.468778  1
  O  O126  1  0.300986  0.755705  0.468783  1
  O  O127  1  0.199244  0.255706  0.468781  1
  O  O128  1  0.699240  0.755709  0.468779  1
  O  O129  1  0.242583  0.916343  0.538635  1
  O  O130  1  0.742597  0.416337  0.538632  1
  O  O131  1  0.757630  0.916338  0.538634  1
  O  O132  1  0.257647  0.416342  0.538634  1
  O  O133  1  0.242582  0.583484  0.698131  1
  O  O134  1  0.742600  0.083488  0.698131  1
  O  O135  1  0.757633  0.583489  0.698130  1
  O  O136  1  0.257646  0.083483  0.698132  1
  O  O137  1  0.757647  0.083484  0.614305  1
  O  O138  1  0.257631  0.583489  0.614305  1
  O  O139  1  0.242598  0.083489  0.614306  1
  O  O140  1  0.742584  0.583483  0.614304  1
  O  O141  1  0.757645  0.416343  0.454806  1
  O  O142  1  0.257631  0.916336  0.454808  1
  O  O143  1  0.242599  0.416338  0.454808  1
  O  O144  1  0.742581  0.916342  0.454807  1
  O  O145  1  0.205148  0.083511  0.455087  1
  O  O146  1  0.705144  0.583516  0.455082  1
  O  O147  1  0.795084  0.083515  0.455081  1
  O  O148  1  0.295080  0.583512  0.455088  1
  O  O149  1  0.205150  0.416314  0.614585  1
  O  O150  1  0.705144  0.916311  0.614579  1
  O  O151  1  0.795084  0.416310  0.614580  1
  O  O152  1  0.295082  0.916315  0.614585  1
  O  O153  1  0.795081  0.916314  0.697851  1
  O  O154  1  0.295085  0.416312  0.697857  1
  O  O155  1  0.205146  0.916310  0.697857  1
  O  O156  1  0.705149  0.416316  0.697852  1
  O  O157  1  0.795081  0.583510  0.538354  1
  O  O158  1  0.295082  0.083516  0.538359  1
  O  O159  1  0.205143  0.583515  0.538359  1
  O  O160  1  0.705150  0.083511  0.538353  1
  O  O161  1  0.210216  -0.000000  0.416973  1
  O  O162  1  0.710216  0.499909  0.416970  1
  O  O163  1  0.790013  0.000000  0.416970  1
  O  O164  1  0.290014  0.499924  0.416973  1
  O  O165  1  0.210217  0.499901  0.576471  1
  O  O166  1  0.710215  -0.000000  0.576468  1
  O  O167  1  0.790013  0.499916  0.576467  1
  O  O168  1  0.290014  -0.000000  0.576471  1
  O  O169  1  -0.000000  0.975323  0.444397  1
  O  O170  1  0.500118  0.475327  0.444397  1
  O  O171  1  0.000000  0.524499  0.603895  1
  O  O172  1  0.500120  0.024504  0.603895  1
  O  O173  1  -0.000000  0.024499  0.708541  1
  O  O174  1  0.500112  0.524504  0.708541  1
  O  O175  1  0.000000  0.475322  0.549043  1
  O  O176  1  0.500110  0.975327  0.549044  1
  O  O177  1  0.250102  0.130837  0.496723  1
  O  O178  1  0.750126  0.630837  0.496718  1
  O  O179  1  0.750103  0.130837  0.496717  1
  O  O180  1  0.250125  0.630837  0.496724  1
  O  O181  1  0.250104  0.368989  0.656222  1
  O  O182  1  0.750126  0.868989  0.656215  1
  O  O183  1  0.750104  0.368989  0.656216  1
  O  O184  1  0.250126  0.868989  0.656221  1
  O  O185  1  0.500110  0.146259  0.514671  1
  O  O186  1  -0.000000  0.646260  0.514672  1
  O  O187  1  0.500112  0.353567  0.674170  1
  O  O188  1  0.000000  0.853567  0.674169  1
  O  O189  1  0.500119  0.853566  0.638267  1
  O  O190  1  0.000000  0.353567  0.638268  1
  O  O191  1  0.500118  0.646259  0.478770  1
  O  O192  1  -0.000000  0.146260  0.478769  1
  O  O193  1  0.210216  0.000000  0.735969  1
  O  O194  1  0.710216  0.499909  0.735965  1
  O  O195  1  0.790013  0.000000  0.735965  1
  O  O196  1  0.290014  0.499924  0.735969  1
  Si  Si197  1  0.173186  0.857923  0.200721  1
  Si  Si198  1  0.673189  0.357923  0.200719  1
  Si  Si199  1  0.827040  0.857922  0.200720  1
  Si  Si200  1  0.327042  0.357924  0.200720  1
  Si  Si201  1  0.173187  0.641902  0.360217  1
  Si  Si202  1  0.673189  0.141904  0.360218  1
  Si  Si203  1  0.827041  0.641903  0.360217  1
  Si  Si204  1  0.327043  0.141902  0.360219  1
  Si  Si205  1  0.827042  0.141902  0.314228  1
  Si  Si206  1  0.327041  0.641904  0.314227  1
  Si  Si207  1  0.173190  0.141904  0.314229  1
  Si  Si208  1  0.673187  0.641902  0.314226  1
  Si  Si209  1  0.827042  0.357924  0.154729  1
  Si  Si210  1  0.327041  0.857922  0.154731  1
  Si  Si211  1  0.173189  0.357923  0.154730  1
  Si  Si212  1  0.673186  0.857924  0.154730  1
  Si  Si213  1  0.172929  0.993120  0.123490  1
  Si  Si214  1  0.672935  0.493122  0.123487  1
  Si  Si215  1  0.827292  0.993117  0.123487  1
  Si  Si216  1  0.327300  0.493124  0.123490  1
  Si  Si217  1  0.172930  0.506702  0.282988  1
  Si  Si218  1  0.672936  0.006708  0.282985  1
  Si  Si219  1  0.827294  0.506705  0.282985  1
  Si  Si220  1  0.327301  0.006705  0.282988  1
  Si  Si221  1  0.827302  0.006702  0.391457  1
  Si  Si222  1  0.327295  0.506709  0.391460  1
  Si  Si223  1  0.172935  0.006705  0.391460  1
  Si  Si224  1  0.672929  0.506706  0.391457  1
  Si  Si225  1  0.827301  0.493121  0.231959  1
  Si  Si226  1  0.327294  0.993121  0.231962  1
  Si  Si227  1  0.172934  0.493118  0.231962  1
  Si  Si228  1  0.672928  0.993123  0.231959  1
  Si  Si229  1  0.328374  0.153814  0.200468  1
  Si  Si230  1  0.828376  0.653815  0.200464  1
  Si  Si231  1  0.671852  0.153813  0.200463  1
  Si  Si232  1  0.171854  0.653816  0.200468  1
  Si  Si233  1  0.328375  0.346011  0.359966  1
  Si  Si234  1  0.828377  0.846012  0.359961  1
  Si  Si235  1  0.671854  0.346012  0.359962  1
  Si  Si236  1  0.171856  0.846011  0.359965  1
  Si  Si237  1  0.671856  0.846011  0.314479  1
  Si  Si238  1  0.171853  0.346012  0.314485  1
  Si  Si239  1  0.328377  0.846012  0.314483  1
  Si  Si240  1  0.828376  0.346011  0.314480  1
  Si  Si241  1  0.671854  0.653816  0.154982  1
  Si  Si242  1  0.171852  0.153814  0.154985  1
  Si  Si243  1  0.328376  0.653814  0.154987  1
  Si  Si244  1  0.828374  0.153815  0.154981  1
  Si  Si245  1  0.173186  0.857923  0.519716  1
  Si  Si246  1  0.673189  0.357923  0.519715  1
  Si  Si247  1  0.827040  0.857922  0.519715  1
  Si  Si248  1  0.327042  0.357924  0.519715  1
  Si  Si249  1  0.173187  0.641902  0.679213  1
  Si  Si250  1  0.673189  0.141904  0.679213  1
  Si  Si251  1  0.827041  0.641903  0.679212  1
  Si  Si252  1  0.327043  0.141902  0.679215  1
  Si  Si253  1  0.827042  0.141902  0.633223  1
  Si  Si254  1  0.327041  0.641904  0.633223  1
  Si  Si255  1  0.173190  0.141904  0.633224  1
  Si  Si256  1  0.673187  0.641902  0.633222  1
  Si  Si257  1  0.827042  0.357924  0.473724  1
  Si  Si258  1  0.327041  0.857922  0.473727  1
  Si  Si259  1  0.173189  0.357923  0.473725  1
  Si  Si260  1  0.673186  0.857924  0.473726  1
  Si  Si261  1  0.172929  0.993120  0.442486  1
  Si  Si262  1  0.672935  0.493122  0.442483  1
  Si  Si263  1  0.827292  0.993117  0.442483  1
  Si  Si264  1  0.327300  0.493124  0.442486  1
  Si  Si265  1  0.172930  0.506702  0.601983  1
  Si  Si266  1  0.672936  0.006708  0.601981  1
  Si  Si267  1  0.827294  0.506705  0.601981  1
  Si  Si268  1  0.327301  0.006705  0.601984  1
  Si  Si269  1  0.827302  0.006702  0.710453  1
  Si  Si270  1  0.327295  0.506709  0.710456  1
  Si  Si271  1  0.172935  0.006705  0.710456  1
  Si  Si272  1  0.672929  0.506706  0.710453  1
  Si  Si273  1  0.827301  0.493121  0.550955  1
  Si  Si274  1  0.327294  0.993121  0.550958  1
  Si  Si275  1  0.172934  0.493118  0.550958  1
  Si  Si276  1  0.672928  0.993123  0.550955  1
  Si  Si277  1  0.328374  0.153814  0.519463  1
  Si  Si278  1  0.828376  0.653815  0.519460  1
  Si  Si279  1  0.671852  0.153813  0.519459  1
  Si  Si280  1  0.171854  0.653816  0.519464  1
  Si  Si281  1  0.328375  0.346011  0.678962  1
  Si  Si282  1  0.828377  0.846012  0.678956  1
  Si  Si283  1  0.671854  0.346012  0.678957  1
  Si  Si284  1  0.171856  0.846011  0.678961  1
  Si  Si285  1  0.671856  0.846011  0.633474  1
  Si  Si286  1  0.171853  0.346012  0.633480  1
  Si  Si287  1  0.328377  0.846012  0.633479  1
  Si  Si288  1  0.828376  0.346011  0.633476  1
  Si  Si289  1  0.671854  0.653816  0.473978  1
  Si  Si290  1  0.171852  0.153814  0.473981  1
  Si  Si291  1  0.328376  0.653814  0.473982  1
  Si  Si292  1  0.828374  0.153815  0.473977  1
  H  H293  1  0.210216  0.000000  0.083032  1
  H  H294  1  0.710216  0.499909  0.083029  1
  H  H295  1  0.790013  0.000000  0.083029  1
  H  H296  1  0.290014  0.499924  0.083032  1
  H  H297  1  0.210216  -0.000000  0.750914  1
  H  H298  1  0.710216  0.499909  0.750910  1
  H  H299  1  0.790013  0.000000  0.750910  1
  H  H300  1  0.290014  0.499924  0.750914  1
