# generated using pymatgen
data_Si10H2O21
_symmetry_space_group_name_H-M   'P 1'
_cell_length_a   18.83497301
_cell_length_b   18.78156900
_cell_length_c   64.22197147
_cell_angle_alpha   134.97773495
_cell_angle_beta   134.81563567
_cell_angle_gamma   60.11935797
_symmetry_Int_Tables_number   1
_chemical_formula_structural   Si10H2O21
_chemical_formula_sum   'Si80 H16 O168'
_cell_volume   11400.1923995
_cell_formula_units_Z   8
loop_
 _symmetry_equiv_pos_site_id
 _symmetry_equiv_pos_as_xyz
  1  'x, y, z'
loop_
 _atom_site_type_symbol
 _atom_site_label
 _atom_site_symmetry_multiplicity
 _atom_site_fract_x
 _atom_site_fract_y
 _atom_site_fract_z
 _atom_site_occupancy
  O  O1  1  0.499559  0.125271  0.258486  1
  O  O2  1  0.366658  0.133946  0.260543  1
  O  O3  1  0.183347  0.195577  0.168983  1
  O  O4  1  0.181617  0.304181  0.223679  1
  O  O5  1  0.317621  0.329096  0.229682  1
  O  O6  1  0.316375  0.304575  0.148541  1
  O  O7  1  0.316880  0.171365  0.219358  1
  O  O8  1  0.499557  0.625272  0.258486  1
  O  O9  1  0.132807  0.491162  0.259970  1
  O  O10  1  0.366656  0.633946  0.260542  1
  O  O11  1  0.366398  0.366556  0.208835  1
  O  O12  1  0.366013  0.491485  0.205084  1
  O  O13  1  0.499249  0.357819  0.206670  1
  O  O14  1  0.132807  0.991163  0.259970  1
  O  O15  1  0.366402  0.866555  0.208835  1
  O  O16  1  0.183348  0.695583  0.168983  1
  O  O17  1  0.181615  0.804183  0.223678  1
  O  O18  1  0.317625  0.829097  0.229683  1
  O  O19  1  0.316375  0.804575  0.148542  1
  O  O20  1  0.316878  0.671367  0.219358  1
  O  O21  1  0.366016  0.991484  0.205084  1
  O  O22  1  0.499251  0.857818  0.206670  1
  O  O23  1  0.866662  0.133935  0.260542  1
  O  O24  1  0.683346  0.195589  0.168985  1
  O  O25  1  0.681619  0.304190  0.223681  1
  O  O26  1  0.817631  0.329087  0.229684  1
  O  O27  1  0.816375  0.304572  0.148540  1
  O  O28  1  0.816871  0.171357  0.219356  1
  O  O29  1  0.000000  0.125264  0.258485  1
  O  O30  1  0.632808  0.491175  0.259972  1
  O  O31  1  0.866663  0.633936  0.260543  1
  O  O32  1  0.866396  0.366544  0.208833  1
  O  O33  1  0.866018  0.491476  0.205084  1
  O  O34  1  0.000000  0.625264  0.258485  1
  O  O35  1  0.000000  0.357806  0.206669  1
  O  O36  1  0.632811  0.991175  0.259972  1
  O  O37  1  0.866399  0.866545  0.208834  1
  O  O38  1  0.866016  0.991477  0.205084  1
  O  O39  1  0.683345  0.695589  0.168985  1
  O  O40  1  0.681620  0.804188  0.223681  1
  O  O41  1  0.817635  0.829085  0.229685  1
  O  O42  1  0.816375  0.804571  0.148540  1
  O  O43  1  0.816872  0.671356  0.219356  1
  O  O44  1  0.000000  0.857807  0.206669  1
  O  O45  1  0.133697  0.008673  0.319150  1
  O  O46  1  0.133321  0.133600  0.315401  1
  O  O47  1  0.366916  0.008994  0.264266  1
  O  O48  1  0.499559  0.125271  0.465198  1
  O  O49  1  0.366658  0.133946  0.467254  1
  O  O50  1  0.183347  0.195577  0.375694  1
  O  O51  1  0.182841  0.328789  0.304877  1
  O  O52  1  0.182099  0.171060  0.294554  1
  O  O53  1  0.181617  0.304181  0.430390  1
  O  O54  1  0.318105  0.195973  0.300557  1
  O  O55  1  0.317621  0.329096  0.436393  1
  O  O56  1  0.316375  0.304575  0.355252  1
  O  O57  1  0.316880  0.171365  0.426069  1
  O  O58  1  0.000000  0.142347  0.317567  1
  O  O59  1  0.133708  0.508672  0.319152  1
  O  O60  1  0.133323  0.633601  0.315401  1
  O  O61  1  0.000000  0.374887  0.265750  1
  O  O62  1  0.133061  0.366211  0.263693  1
  O  O63  1  0.499557  0.625272  0.465197  1
  O  O64  1  0.132807  0.491162  0.466681  1
  O  O65  1  0.366912  0.508994  0.264265  1
  O  O66  1  0.366656  0.633946  0.467253  1
  O  O67  1  0.366398  0.366556  0.415546  1
  O  O68  1  0.366013  0.491485  0.411795  1
  O  O69  1  0.000000  0.642340  0.317566  1
  O  O70  1  0.499249  0.357819  0.413381  1
  O  O71  1  0.133064  0.866208  0.263692  1
  O  O72  1  0.132807  0.991163  0.466682  1
  O  O73  1  0.000000  0.874898  0.265753  1
  O  O74  1  0.366402  0.866555  0.415547  1
  O  O75  1  0.183348  0.695583  0.375695  1
  O  O76  1  0.182840  0.828789  0.304877  1
  O  O77  1  0.182099  0.671059  0.294553  1
  O  O78  1  0.181615  0.804183  0.430389  1
  O  O79  1  0.318102  0.695975  0.300557  1
  O  O80  1  0.317625  0.829097  0.436394  1
  O  O81  1  0.316375  0.804575  0.355253  1
  O  O82  1  0.316878  0.671367  0.426069  1
  O  O83  1  0.366016  0.991484  0.411796  1
  O  O84  1  0.499251  0.857818  0.413381  1
  O  O85  1  0.633324  0.133616  0.315404  1
  O  O86  1  0.633706  0.008684  0.319153  1
  O  O87  1  0.866906  0.008987  0.264263  1
  O  O88  1  0.866662  0.133935  0.467254  1
  O  O89  1  0.683346  0.195589  0.375697  1
  O  O90  1  0.682848  0.328805  0.304880  1
  O  O91  1  0.682088  0.171074  0.294552  1
  O  O92  1  0.681619  0.304190  0.430393  1
  O  O93  1  0.818099  0.195972  0.300555  1
  O  O94  1  0.817631  0.329087  0.436396  1
  O  O95  1  0.816375  0.304572  0.355251  1
  O  O96  1  0.816871  0.171357  0.426068  1
  O  O97  1  0.000000  0.125264  0.465197  1
  O  O98  1  0.500472  0.142352  0.317567  1
  O  O99  1  0.633702  0.508686  0.319153  1
  O  O100  1  0.633322  0.633617  0.315405  1
  O  O101  1  0.633058  0.366225  0.263694  1
  O  O102  1  0.632808  0.491175  0.466683  1
  O  O103  1  0.500160  0.374896  0.265751  1
  O  O104  1  0.866913  0.508984  0.264264  1
  O  O105  1  0.866663  0.633936  0.467254  1
  O  O106  1  0.866396  0.366544  0.415544  1
  O  O107  1  0.866018  0.491476  0.411796  1
  O  O108  1  0.000000  0.625264  0.465196  1
  O  O109  1  0.500480  0.642354  0.317569  1
  O  O110  1  0.000000  0.357806  0.413380  1
  O  O111  1  0.633061  0.866225  0.263695  1
  O  O112  1  0.632811  0.991175  0.466684  1
  O  O113  1  0.500165  0.874894  0.265752  1
  O  O114  1  0.866399  0.866545  0.415545  1
  O  O115  1  0.866016  0.991477  0.411795  1
  O  O116  1  0.683345  0.695589  0.375696  1
  O  O117  1  0.682853  0.828803  0.304880  1
  O  O118  1  0.682090  0.671074  0.294552  1
  O  O119  1  0.681620  0.804188  0.430392  1
  O  O120  1  0.818105  0.695970  0.300556  1
  O  O121  1  0.817635  0.829085  0.436396  1
  O  O122  1  0.816375  0.804571  0.355251  1
  O  O123  1  0.816872  0.671356  0.426068  1
  O  O124  1  0.000000  0.857807  0.413380  1
  O  O125  1  0.133697  0.008673  0.525862  1
  O  O126  1  0.133321  0.133600  0.522112  1
  O  O127  1  0.366916  0.008994  0.470977  1
  O  O128  1  0.183347  0.195577  0.582406  1
  O  O129  1  0.182841  0.328789  0.511589  1
  O  O130  1  0.182099  0.171060  0.501265  1
  O  O131  1  0.318105  0.195973  0.507269  1
  O  O132  1  0.316375  0.304575  0.561964  1
  O  O133  1  0.000000  0.142347  0.524278  1
  O  O134  1  0.133708  0.508672  0.525863  1
  O  O135  1  0.133323  0.633601  0.522112  1
  O  O136  1  -0.000000  0.374887  0.472461  1
  O  O137  1  0.133061  0.366211  0.470404  1
  O  O138  1  0.366912  0.508994  0.470976  1
  O  O139  1  0.000000  0.642340  0.524278  1
  O  O140  1  0.133064  0.866208  0.470404  1
  O  O141  1  0.000000  0.874898  0.472464  1
  O  O142  1  0.183348  0.695583  0.582406  1
  O  O143  1  0.182840  0.828789  0.511589  1
  O  O144  1  0.182099  0.671059  0.501265  1
  O  O145  1  0.318102  0.695975  0.507268  1
  O  O146  1  0.316375  0.804575  0.561964  1
  O  O147  1  0.633324  0.133616  0.522115  1
  O  O148  1  0.633706  0.008684  0.525864  1
  O  O149  1  0.866906  0.008987  0.470975  1
  O  O150  1  0.683346  0.195589  0.582408  1
  O  O151  1  0.682848  0.328805  0.511592  1
  O  O152  1  0.682088  0.171074  0.501263  1
  O  O153  1  0.818099  0.195972  0.507266  1
  O  O154  1  0.816375  0.304572  0.561963  1
  O  O155  1  0.500472  0.142352  0.524279  1
  O  O156  1  0.633702  0.508686  0.525864  1
  O  O157  1  0.633322  0.633617  0.522117  1
  O  O158  1  0.633058  0.366225  0.470406  1
  O  O159  1  0.500160  0.374896  0.472462  1
  O  O160  1  0.866913  0.508984  0.470976  1
  O  O161  1  0.500480  0.642354  0.524281  1
  O  O162  1  0.633061  0.866225  0.470406  1
  O  O163  1  0.500165  0.874894  0.472463  1
  O  O164  1  0.683345  0.695589  0.582408  1
  O  O165  1  0.682853  0.828803  0.511592  1
  O  O166  1  0.682090  0.671074  0.501264  1
  O  O167  1  0.818105  0.695970  0.507268  1
  O  O168  1  0.816375  0.804571  0.561963  1
  Si  Si169  1  0.249870  0.250089  0.210432  1
  Si  Si170  1  0.384404  0.108256  0.235222  1
  Si  Si171  1  0.384402  0.608257  0.235221  1
  Si  Si172  1  0.384906  0.392170  0.241609  1
  Si  Si173  1  0.384124  0.377080  0.190497  1
  Si  Si174  1  0.114537  0.376811  0.237903  1
  Si  Si175  1  0.114536  0.876812  0.237902  1
  Si  Si176  1  0.384910  0.892169  0.241610  1
  Si  Si177  1  0.384126  0.877079  0.190498  1
  Si  Si178  1  0.249870  0.750092  0.210432  1
  Si  Si179  1  0.749870  0.250088  0.210433  1
  Si  Si180  1  0.884404  0.108248  0.235221  1
  Si  Si181  1  0.884404  0.608248  0.235221  1
  Si  Si182  1  0.614536  0.376825  0.237904  1
  Si  Si183  1  0.884908  0.392160  0.241609  1
  Si  Si184  1  0.884125  0.377070  0.190496  1
  Si  Si185  1  0.884123  0.877071  0.190496  1
  Si  Si186  1  0.749872  0.750087  0.210433  1
  Si  Si187  1  0.614539  0.876824  0.237905  1
  Si  Si188  1  0.884910  0.892164  0.241610  1
  Si  Si189  1  0.249870  0.250089  0.417143  1
  Si  Si190  1  0.249851  0.250065  0.313803  1
  Si  Si191  1  0.115593  0.123077  0.333738  1
  Si  Si192  1  0.114813  0.107988  0.282626  1
  Si  Si193  1  0.385185  0.123345  0.286333  1
  Si  Si194  1  0.384404  0.108256  0.441933  1
  Si  Si195  1  0.384402  0.608257  0.441933  1
  Si  Si196  1  0.384906  0.392170  0.448321  1
  Si  Si197  1  0.384124  0.377080  0.397209  1
  Si  Si198  1  0.385180  0.623345  0.286332  1
  Si  Si199  1  0.115599  0.623077  0.333739  1
  Si  Si200  1  0.115318  0.391900  0.289014  1
  Si  Si201  1  0.114813  0.607987  0.282626  1
  Si  Si202  1  0.114537  0.376811  0.444614  1
  Si  Si203  1  0.115319  0.891899  0.289014  1
  Si  Si204  1  0.114536  0.876812  0.444614  1
  Si  Si205  1  0.384910  0.892169  0.448322  1
  Si  Si206  1  0.384126  0.877079  0.397209  1
  Si  Si207  1  0.249851  0.750066  0.313804  1
  Si  Si208  1  0.249870  0.750092  0.417144  1
  Si  Si209  1  0.749870  0.250088  0.417145  1
  Si  Si210  1  0.615597  0.123089  0.333740  1
  Si  Si211  1  0.614814  0.107999  0.282628  1
  Si  Si212  1  0.885182  0.123338  0.286332  1
  Si  Si213  1  0.884404  0.108248  0.441932  1
  Si  Si214  1  0.749849  0.250074  0.313803  1
  Si  Si215  1  0.884404  0.608248  0.441932  1
  Si  Si216  1  0.615593  0.623092  0.333739  1
  Si  Si217  1  0.615315  0.391914  0.289015  1
  Si  Si218  1  0.614812  0.608000  0.282627  1
  Si  Si219  1  0.614536  0.376825  0.444616  1
  Si  Si220  1  0.885186  0.623335  0.286332  1
  Si  Si221  1  0.884908  0.392160  0.448320  1
  Si  Si222  1  0.884125  0.377070  0.397208  1
  Si  Si223  1  0.749852  0.750072  0.313803  1
  Si  Si224  1  0.884123  0.877071  0.397208  1
  Si  Si225  1  0.749872  0.750087  0.417145  1
  Si  Si226  1  0.615320  0.891911  0.289016  1
  Si  Si227  1  0.614539  0.876824  0.444616  1
  Si  Si228  1  0.884910  0.892164  0.448321  1
  Si  Si229  1  0.249851  0.250065  0.520515  1
  Si  Si230  1  0.115593  0.123077  0.540449  1
  Si  Si231  1  0.114813  0.107988  0.489338  1
  Si  Si232  1  0.385185  0.123345  0.493045  1
  Si  Si233  1  0.385180  0.623345  0.493043  1
  Si  Si234  1  0.115599  0.623077  0.540450  1
  Si  Si235  1  0.115318  0.391900  0.495725  1
  Si  Si236  1  0.114813  0.607987  0.489337  1
  Si  Si237  1  0.115319  0.891899  0.495725  1
  Si  Si238  1  0.249851  0.750066  0.520515  1
  Si  Si239  1  0.615597  0.123089  0.540452  1
  Si  Si240  1  0.614814  0.107999  0.489339  1
  Si  Si241  1  0.885182  0.123338  0.493044  1
  Si  Si242  1  0.749849  0.250074  0.520514  1
  Si  Si243  1  0.615593  0.623092  0.540450  1
  Si  Si244  1  0.615315  0.391914  0.495727  1
  Si  Si245  1  0.614812  0.608000  0.489338  1
  Si  Si246  1  0.885186  0.623335  0.493044  1
  Si  Si247  1  0.749852  0.750072  0.520515  1
  Si  Si248  1  0.615320  0.891911  0.495727  1
  H  H249  1  0.183347  0.195577  0.154969  1
  H  H250  1  0.316375  0.304575  0.134527  1
  H  H251  1  0.183348  0.695583  0.154969  1
  H  H252  1  0.316375  0.804575  0.134528  1
  H  H253  1  0.683346  0.195589  0.154971  1
  H  H254  1  0.816375  0.304572  0.134526  1
  H  H255  1  0.683345  0.695589  0.154971  1
  H  H256  1  0.816375  0.804571  0.134526  1
  H  H257  1  0.183347  0.195577  0.596420  1
  H  H258  1  0.316375  0.304575  0.575978  1
  H  H259  1  0.183348  0.695583  0.596420  1
  H  H260  1  0.316375  0.804575  0.575978  1
  H  H261  1  0.683346  0.195589  0.596422  1
  H  H262  1  0.816375  0.304572  0.575977  1
  H  H263  1  0.683345  0.695589  0.596421  1
  H  H264  1  0.816375  0.804571  0.575977  1
