# generated using pymatgen
data_Si26H2O53
_symmetry_space_group_name_H-M   'P 1'
_cell_length_a   13.14623884
_cell_length_b   5.11803959
_cell_length_c   69.22945683
_cell_angle_alpha   90.00000000
_cell_angle_beta   90.00000000
_cell_angle_gamma   90.00000000
_symmetry_Int_Tables_number   1
_chemical_formula_structural   Si26H2O53
_chemical_formula_sum   'Si52 H4 O106'
_cell_volume   4657.96352531
_cell_formula_units_Z   2
loop_
 _symmetry_equiv_pos_site_id
 _symmetry_equiv_pos_as_xyz
  1  'x, y, z'
loop_
 _atom_site_type_symbol
 _atom_site_label
 _atom_site_symmetry_multiplicity
 _atom_site_fract_x
 _atom_site_fract_y
 _atom_site_fract_z
 _atom_site_occupancy
  O  O1  1  0.322965  0.249970  0.240419  1
  O  O2  1  0.822959  0.249758  0.085225  1
  O  O3  1  0.676944  0.249949  0.240420  1
  O  O4  1  0.176937  0.249718  0.085224  1
  O  O5  1  0.822963  0.749790  0.149546  1
  O  O6  1  0.176944  0.749769  0.149545  1
  O  O7  1  0.360976  0.500498  0.272558  1
  O  O8  1  0.860969  0.499667  0.117389  1
  O  O9  1  0.638927  0.500504  0.272558  1
  O  O10  1  0.138932  0.499689  0.117386  1
  O  O11  1  0.860974  0.000000  0.117380  1
  O  O12  1  0.138926  0.000000  0.117382  1
  O  O13  1  0.499955  0.250203  0.255607  1
  O  O14  1  0.000000  0.249731  0.100411  1
  O  O15  1  -0.000000  0.749711  0.134358  1
  O  O16  1  0.637392  0.998908  0.209573  1
  O  O17  1  0.362516  0.998903  0.209574  1
  O  O18  1  0.137353  0.499181  0.180406  1
  O  O19  1  0.862524  0.498904  0.180396  1
  O  O20  1  0.862545  0.000000  0.180399  1
  O  O21  1  0.137406  0.000000  0.180388  1
  O  O22  1  0.362549  0.500611  0.209560  1
  O  O23  1  0.637364  0.500605  0.209562  1
  O  O24  1  0.803267  0.249809  0.210058  1
  O  O25  1  0.196646  0.249857  0.210057  1
  O  O26  1  0.303267  0.749891  0.179906  1
  O  O27  1  0.696644  0.749831  0.179907  1
  O  O28  1  0.499956  0.749890  0.191179  1
  O  O29  1  0.000000  0.249818  0.198785  1
  O  O30  1  0.322965  0.249970  0.550810  1
  O  O31  1  0.822959  0.249758  0.395616  1
  O  O32  1  0.676944  0.249949  0.550811  1
  O  O33  1  0.176937  0.249718  0.395615  1
  O  O34  1  0.322959  0.749906  0.304740  1
  O  O35  1  0.822963  0.749790  0.459937  1
  O  O36  1  0.676939  0.749922  0.304741  1
  O  O37  1  0.176944  0.749769  0.459937  1
  O  O38  1  0.360976  0.500498  0.582949  1
  O  O39  1  0.860969  0.499667  0.427780  1
  O  O40  1  0.638927  0.500504  0.582949  1
  O  O41  1  0.138932  0.499689  0.427778  1
  O  O42  1  0.360968  0.000000  0.272602  1
  O  O43  1  0.860974  0.000000  0.427772  1
  O  O44  1  0.638933  0.000000  0.272604  1
  O  O45  1  0.138926  0.000000  0.427774  1
  O  O46  1  0.499955  0.250203  0.565998  1
  O  O47  1  -0.000000  0.249731  0.410803  1
  O  O48  1  0.499952  0.750224  0.289553  1
  O  O49  1  -0.000000  0.749711  0.444750  1
  O  O50  1  0.637392  0.998908  0.519965  1
  O  O51  1  0.137404  0.998596  0.364772  1
  O  O52  1  0.362516  0.998903  0.519965  1
  O  O53  1  0.862537  0.998969  0.364760  1
  O  O54  1  0.637373  0.498900  0.335590  1
  O  O55  1  0.137353  0.499181  0.490798  1
  O  O56  1  0.362466  0.498452  0.335573  1
  O  O57  1  0.862524  0.498904  0.490787  1
  O  O58  1  0.362584  0.000000  0.335612  1
  O  O59  1  0.862545  0.000000  0.490791  1
  O  O60  1  0.637367  0.000000  0.335598  1
  O  O61  1  0.137406  0.000000  0.490779  1
  O  O62  1  0.362549  0.500611  0.519951  1
  O  O63  1  0.862517  0.500679  0.364765  1
  O  O64  1  0.637364  0.500605  0.519953  1
  O  O65  1  0.137332  0.500301  0.364752  1
  O  O66  1  0.803267  0.249809  0.520449  1
  O  O67  1  0.303262  0.249637  0.365252  1
  O  O68  1  0.196646  0.249857  0.520449  1
  O  O69  1  0.696632  0.249803  0.365253  1
  O  O70  1  0.803262  0.749780  0.335104  1
  O  O71  1  0.303267  0.749891  0.490298  1
  O  O72  1  0.196633  0.749608  0.335102  1
  O  O73  1  0.696644  0.749831  0.490299  1
  O  O74  1  0.499956  0.749890  0.501570  1
  O  O75  1  -0.000000  0.749721  0.346375  1
  O  O76  1  0.499947  0.249789  0.353981  1
  O  O77  1  0.000000  0.249818  0.509177  1
  O  O78  1  0.822959  0.249758  0.706008  1
  O  O79  1  0.176937  0.249718  0.706007  1
  O  O80  1  0.322959  0.749906  0.615131  1
  O  O81  1  0.822963  0.749790  0.770329  1
  O  O82  1  0.676939  0.749922  0.615132  1
  O  O83  1  0.176944  0.749769  0.770328  1
  O  O84  1  0.860969  0.499667  0.738172  1
  O  O85  1  0.138932  0.499689  0.738170  1
  O  O86  1  0.360968  0.000000  0.582994  1
  O  O87  1  0.860974  0.000000  0.738164  1
  O  O88  1  0.638933  0.000000  0.582995  1
  O  O89  1  0.138926  0.000000  0.738165  1
  O  O90  1  0.000000  0.249731  0.721194  1
  O  O91  1  0.499952  0.750224  0.599945  1
  O  O92  1  0.000000  0.749711  0.755142  1
  O  O93  1  0.137404  0.998596  0.675163  1
  O  O94  1  0.862537  0.998969  0.675152  1
  O  O95  1  0.637373  0.498900  0.645981  1
  O  O96  1  0.362466  0.498452  0.645965  1
  O  O97  1  0.362584  0.000000  0.646004  1
  O  O98  1  0.637367  0.000000  0.645989  1
  O  O99  1  0.862517  0.500679  0.675157  1
  O  O100  1  0.137332  0.500301  0.675144  1
  O  O101  1  0.303262  0.249637  0.675644  1
  O  O102  1  0.696632  0.249803  0.675645  1
  O  O103  1  0.803262  0.749780  0.645495  1
  O  O104  1  0.196633  0.749608  0.645494  1
  O  O105  1  0.000000  0.749721  0.656767  1
  O  O106  1  0.499947  0.249789  0.664372  1
  Si  Si107  1  0.382655  0.250293  0.260143  1
  Si  Si108  1  0.882652  0.249708  0.104947  1
  Si  Si109  1  0.617258  0.250294  0.260144  1
  Si  Si110  1  0.117248  0.249712  0.104947  1
  Si  Si111  1  0.882650  0.749708  0.129821  1
  Si  Si112  1  0.117254  0.749711  0.129820  1
  Si  Si113  1  0.690136  0.249811  0.217841  1
  Si  Si114  1  0.309778  0.249824  0.217841  1
  Si  Si115  1  0.190135  0.749937  0.172123  1
  Si  Si116  1  0.809777  0.749783  0.172124  1
  Si  Si117  1  0.383357  0.749827  0.196954  1
  Si  Si118  1  0.616557  0.749813  0.196955  1
  Si  Si119  1  0.883355  0.249781  0.193011  1
  Si  Si120  1  0.116555  0.249933  0.193011  1
  Si  Si121  1  0.382655  0.250293  0.570534  1
  Si  Si122  1  0.882652  0.249708  0.415339  1
  Si  Si123  1  0.617258  0.250294  0.570535  1
  Si  Si124  1  0.117248  0.249712  0.415338  1
  Si  Si125  1  0.382655  0.750292  0.285017  1
  Si  Si126  1  0.882650  0.749708  0.440213  1
  Si  Si127  1  0.617253  0.750295  0.285017  1
  Si  Si128  1  0.117254  0.749711  0.440212  1
  Si  Si129  1  0.690136  0.249811  0.528233  1
  Si  Si130  1  0.190130  0.249558  0.373036  1
  Si  Si131  1  0.309778  0.249824  0.528232  1
  Si  Si132  1  0.809764  0.249796  0.373036  1
  Si  Si133  1  0.690129  0.749786  0.327321  1
  Si  Si134  1  0.190135  0.749937  0.482515  1
  Si  Si135  1  0.309768  0.749515  0.327320  1
  Si  Si136  1  0.809777  0.749783  0.482516  1
  Si  Si137  1  0.383357  0.749827  0.507345  1
  Si  Si138  1  0.883343  0.749793  0.352149  1
  Si  Si139  1  0.616557  0.749813  0.507346  1
  Si  Si140  1  0.116552  0.749557  0.352149  1
  Si  Si141  1  0.383345  0.249519  0.348207  1
  Si  Si142  1  0.883355  0.249781  0.503403  1
  Si  Si143  1  0.616551  0.249787  0.348207  1
  Si  Si144  1  0.116555  0.249933  0.503402  1
  Si  Si145  1  0.882652  0.249708  0.725731  1
  Si  Si146  1  0.117248  0.249712  0.725730  1
  Si  Si147  1  0.382655  0.750292  0.595409  1
  Si  Si148  1  0.882650  0.749708  0.750605  1
  Si  Si149  1  0.617253  0.750295  0.595409  1
  Si  Si150  1  0.117254  0.749711  0.750604  1
  Si  Si151  1  0.190130  0.249558  0.683427  1
  Si  Si152  1  0.809764  0.249796  0.683428  1
  Si  Si153  1  0.690129  0.749786  0.637712  1
  Si  Si154  1  0.309768  0.749515  0.637712  1
  Si  Si155  1  0.883343  0.749793  0.662541  1
  Si  Si156  1  0.116552  0.749557  0.662541  1
  Si  Si157  1  0.383345  0.249519  0.658599  1
  Si  Si158  1  0.616551  0.249787  0.658599  1
  H  H159  1  0.822959  0.249758  0.072225  1
  H  H160  1  0.176937  0.249718  0.072224  1
  H  H161  1  0.822963  0.749790  0.783329  1
  H  H162  1  0.176944  0.749769  0.783329  1
