# generated using pymatgen
data_Si6H2O13
_symmetry_space_group_name_H-M   'P 1'
_cell_length_a   13.50435003
_cell_length_b   12.57013567
_cell_length_c   30.98399681
_cell_angle_alpha   90.00000000
_cell_angle_beta   90.00000000
_cell_angle_gamma   90.00000000
_symmetry_Int_Tables_number   1
_chemical_formula_structural   Si6H2O13
_chemical_formula_sum   'Si24 H8 O52'
_cell_volume   5259.58030651
_cell_formula_units_Z   4
loop_
 _symmetry_equiv_pos_site_id
 _symmetry_equiv_pos_as_xyz
  1  'x, y, z'
loop_
 _atom_site_type_symbol
 _atom_site_label
 _atom_site_symmetry_multiplicity
 _atom_site_fract_x
 _atom_site_fract_y
 _atom_site_fract_z
 _atom_site_occupancy
  O  O1  1  0.138453  0.041023  0.190423  1
  O  O2  1  0.361710  0.541020  0.190423  1
  O  O3  1  0.127870  0.851696  0.414260  1
  O  O4  1  0.372308  0.351690  0.414255  1
  O  O5  1  0.372307  0.648119  0.262993  1
  O  O6  1  0.127880  0.148112  0.262996  1
  O  O7  1  0.175575  0.047783  0.410694  1
  O  O8  1  0.324608  0.547782  0.410688  1
  O  O9  1  0.324583  0.452030  0.266560  1
  O  O10  1  0.175598  0.952027  0.266562  1
  O  O11  1  0.150512  0.164158  0.343043  1
  O  O12  1  0.349676  0.664161  0.343040  1
  O  O13  1  0.349662  0.335645  0.334209  1
  O  O14  1  0.150520  0.835646  0.334213  1
  O  O15  1  0.000000  0.011639  0.245181  1
  O  O16  1  0.181035  0.330226  0.297520  1
  O  O17  1  0.319149  0.830230  0.297520  1
  O  O18  1  0.319134  0.169582  0.379736  1
  O  O19  1  0.181055  0.669589  0.379738  1
  O  O20  1  0.245349  0.499908  0.338626  1
  O  O21  1  0.254832  -0.000000  0.338630  1
  O  O22  1  -0.000000  0.988153  0.432070  1
  O  O23  1  -0.000000  0.747812  0.370842  1
  O  O24  1  -0.000000  0.251973  0.306413  1
  O  O25  1  0.138421  0.958792  0.486832  1
  O  O26  1  0.361721  0.458791  0.486825  1
  O  O27  1  0.638436  0.541008  0.190421  1
  O  O28  1  0.861726  0.041012  0.190423  1
  O  O29  1  0.627878  0.351669  0.414255  1
  O  O30  1  0.872300  0.851670  0.414255  1
  O  O31  1  0.872310  0.148100  0.262994  1
  O  O32  1  0.627875  0.648096  0.262994  1
  O  O33  1  0.675603  0.547755  0.410691  1
  O  O34  1  0.824573  0.047757  0.410688  1
  O  O35  1  0.824605  0.952008  0.266558  1
  O  O36  1  0.675586  0.452010  0.266557  1
  O  O37  1  0.650520  0.664141  0.343042  1
  O  O38  1  0.849664  0.164142  0.343041  1
  O  O39  1  0.849679  0.835626  0.334208  1
  O  O40  1  0.650512  0.335632  0.334207  1
  O  O41  1  0.681055  0.830200  0.297514  1
  O  O42  1  0.819139  0.330208  0.297515  1
  O  O43  1  0.819151  0.669558  0.379730  1
  O  O44  1  0.681030  0.169558  0.379726  1
  O  O45  1  0.745352  -0.000000  0.338620  1
  O  O46  1  0.754835  0.499885  0.338623  1
  O  O47  1  0.500101  0.488148  0.432068  1
  O  O48  1  0.500085  0.247815  0.370836  1
  O  O49  1  0.500081  0.511637  0.245181  1
  O  O50  1  0.500100  0.751977  0.306410  1
  O  O51  1  0.638448  0.458760  0.486829  1
  O  O52  1  0.861695  0.958764  0.486826  1
  Si  Si53  1  0.272583  0.595771  0.369471  1
  Si  Si54  1  0.272568  0.404042  0.307781  1
  Si  Si55  1  0.227614  0.904041  0.307783  1
  Si  Si56  1  0.227602  0.095766  0.369475  1
  Si  Si57  1  0.114277  0.227796  0.302040  1
  Si  Si58  1  0.385912  0.727802  0.302037  1
  Si  Si59  1  0.385900  0.272005  0.375211  1
  Si  Si60  1  0.114284  0.772009  0.375216  1
  Si  Si61  1  0.113974  0.963274  0.437053  1
  Si  Si62  1  0.386197  0.463269  0.437049  1
  Si  Si63  1  0.386181  0.536537  0.240199  1
  Si  Si64  1  0.114000  0.036534  0.240201  1
  Si  Si65  1  0.772586  0.904016  0.307777  1
  Si  Si66  1  0.727607  0.404023  0.307777  1
  Si  Si67  1  0.727615  0.595746  0.369470  1
  Si  Si68  1  0.772565  0.095746  0.369466  1
  Si  Si69  1  0.614273  0.271991  0.375208  1
  Si  Si70  1  0.885912  0.771987  0.375211  1
  Si  Si71  1  0.614284  0.727781  0.302039  1
  Si  Si72  1  0.885904  0.227784  0.302039  1
  Si  Si73  1  0.613984  0.536520  0.240199  1
  Si  Si74  1  0.886171  0.963251  0.437050  1
  Si  Si75  1  0.614001  0.463247  0.437050  1
  Si  Si76  1  0.886197  0.036524  0.240199  1
  H  H77  1  0.138453  0.041023  0.161375  1
  H  H78  1  0.361710  0.541020  0.161375  1
  H  H79  1  0.138421  0.958792  0.515879  1
  H  H80  1  0.361721  0.458791  0.515872  1
  H  H81  1  0.638436  0.541008  0.161374  1
  H  H82  1  0.861726  0.041012  0.161375  1
  H  H83  1  0.638448  0.458760  0.515876  1
  H  H84  1  0.861695  0.958764  0.515873  1
