# generated using pymatgen
data_Si12H2O25
_symmetry_space_group_name_H-M   'P 1'
_cell_length_a   5.00751566
_cell_length_b   35.73547428
_cell_length_c   83.08167815
_cell_angle_alpha   149.99913445
_cell_angle_beta   90.00000000
_cell_angle_gamma   90.00000000
_symmetry_Int_Tables_number   1
_chemical_formula_structural   Si12H2O25
_chemical_formula_sum   'Si72 H12 O150'
_cell_volume   7433.75929358
_cell_formula_units_Z   6
loop_
 _symmetry_equiv_pos_site_id
 _symmetry_equiv_pos_as_xyz
  1  'x, y, z'
loop_
 _atom_site_type_symbol
 _atom_site_label
 _atom_site_symmetry_multiplicity
 _atom_site_fract_x
 _atom_site_fract_y
 _atom_site_fract_z
 _atom_site_occupancy
  O  O1  1  0.878784  0.549191  0.131193  1
  O  O2  1  0.545929  0.216386  0.131423  1
  O  O3  1  0.212540  0.882983  0.131401  1
  O  O4  1  0.120282  0.450337  0.131203  1
  O  O5  1  0.787193  0.117493  0.131410  1
  O  O6  1  0.454101  0.784199  0.131434  1
  O  O7  1  0.165891  0.871878  0.182318  1
  O  O8  1  0.833561  0.538341  0.182196  1
  O  O9  1  0.500082  0.205526  0.182360  1
  O  O10  1  0.165977  0.461857  0.277870  1
  O  O11  1  0.833650  0.128321  0.277840  1
  O  O12  1  0.499454  0.794673  0.277649  1
  O  O13  1  0.165915  0.666491  0.182153  1
  O  O14  1  0.833631  0.333704  0.182356  1
  O  O15  1  0.499776  -0.000000  0.182333  1
  O  O16  1  0.167413  0.666970  0.328785  1
  O  O17  1  0.832117  0.333227  0.328633  1
  O  O18  1  0.499769  -0.000000  0.328784  1
  O  O19  1  0.166911  0.871925  0.233279  1
  O  O20  1  0.833051  0.538862  0.233326  1
  O  O21  1  0.498700  0.204886  0.233081  1
  O  O22  1  0.166490  0.461331  0.328610  1
  O  O23  1  0.832635  0.128268  0.328765  1
  O  O24  1  0.500840  0.795307  0.328844  1
  O  O25  1  0.000000  0.000000  0.235382  1
  O  O26  1  0.666547  0.666530  0.235173  1
  O  O27  1  0.332989  0.333669  0.235349  1
  O  O28  1  -0.000000  0.419037  0.235394  1
  O  O29  1  0.666626  0.085283  0.235316  1
  O  O30  1  0.332771  0.751736  0.235154  1
  O  O31  1  -0.000000  0.581163  0.171621  1
  O  O32  1  0.666770  0.248463  0.171853  1
  O  O33  1  0.332918  0.914917  0.171856  1
  O  O34  1  0.000000  0.581818  0.275821  1
  O  O35  1  0.665741  0.247899  0.275599  1
  O  O36  1  0.333366  0.914769  0.275751  1
  O  O37  1  -0.000000  0.000000  0.275801  1
  O  O38  1  0.666661  0.667042  0.275785  1
  O  O39  1  0.332881  0.333151  0.275578  1
  O  O40  1  -0.000000  0.418375  0.339104  1
  O  O41  1  0.666174  0.085423  0.339318  1
  O  O42  1  0.333795  0.752293  0.339317  1
  O  O43  1  0.879063  0.901217  0.218747  1
  O  O44  1  0.545840  0.567914  0.218668  1
  O  O45  1  0.212182  0.234534  0.218619  1
  O  O46  1  0.879260  0.549861  0.292439  1
  O  O47  1  0.545442  0.215999  0.292275  1
  O  O48  1  0.212350  0.882705  0.292281  1
  O  O49  1  0.878784  0.549191  0.379519  1
  O  O50  1  0.545929  0.216386  0.379749  1
  O  O51  1  0.212540  0.882983  0.379727  1
  O  O52  1  0.120479  0.098979  0.292412  1
  O  O53  1  0.787357  0.765662  0.292296  1
  O  O54  1  0.453699  0.432282  0.292310  1
  O  O55  1  0.120752  0.451003  0.218782  1
  O  O56  1  0.786998  0.117211  0.218648  1
  O  O57  1  0.453609  0.783807  0.218618  1
  O  O58  1  0.120282  0.450337  0.379530  1
  O  O59  1  0.787193  0.117493  0.379736  1
  O  O60  1  0.454101  0.784199  0.379760  1
  O  O61  1  0.665844  0.898036  0.188880  1
  O  O62  1  0.333571  0.564223  0.188573  1
  O  O63  1  -0.000000  0.231461  0.188773  1
  O  O64  1  0.665966  0.435976  0.264965  1
  O  O65  1  0.333697  0.102162  0.264915  1
  O  O66  1  0.000000  0.768739  0.264740  1
  O  O67  1  0.665920  0.666383  0.188571  1
  O  O68  1  0.333626  0.333816  0.188856  1
  O  O69  1  0.000000  0.000000  0.188783  1
  O  O70  1  0.667446  0.667204  0.322418  1
  O  O71  1  0.332083  0.332989  0.322090  1
  O  O72  1  0.000000  0.000000  0.322318  1
  O  O73  1  0.666943  0.897788  0.246180  1
  O  O74  1  0.333066  0.564940  0.246245  1
  O  O75  1  0.998634  0.231068  0.246010  1
  O  O76  1  0.666475  0.435253  0.322101  1
  O  O77  1  0.332604  0.102405  0.322397  1
  O  O78  1  0.000000  0.769125  0.322268  1
  O  O79  1  0.165891  0.871878  0.430644  1
  O  O80  1  0.833561  0.538341  0.430522  1
  O  O81  1  0.500082  0.205526  0.430686  1
  O  O82  1  0.165977  0.461857  0.526196  1
  O  O83  1  0.833650  0.128321  0.526166  1
  O  O84  1  0.499454  0.794673  0.525975  1
  O  O85  1  0.165915  0.666491  0.430479  1
  O  O86  1  0.833631  0.333704  0.430682  1
  O  O87  1  0.499776  0.000000  0.430659  1
  O  O88  1  0.167413  0.666970  0.577111  1
  O  O89  1  0.832117  0.333227  0.576959  1
  O  O90  1  0.499769  0.000000  0.577110  1
  O  O91  1  0.166911  0.871925  0.481605  1
  O  O92  1  0.833051  0.538862  0.481652  1
  O  O93  1  0.498700  0.204886  0.481408  1
  O  O94  1  0.166490  0.461331  0.576936  1
  O  O95  1  0.832635  0.128268  0.577091  1
  O  O96  1  0.500840  0.795307  0.577170  1
  O  O97  1  0.000000  0.000000  0.483708  1
  O  O98  1  0.666547  0.666530  0.483499  1
  O  O99  1  0.332989  0.333669  0.483675  1
  O  O100  1  0.000000  0.419037  0.483720  1
  O  O101  1  0.666626  0.085283  0.483642  1
  O  O102  1  0.332771  0.751736  0.483480  1
  O  O103  1  0.000000  0.581163  0.419947  1
  O  O104  1  0.666770  0.248463  0.420179  1
  O  O105  1  0.332918  0.914917  0.420182  1
  O  O106  1  0.000000  0.581818  0.524147  1
  O  O107  1  0.665741  0.247899  0.523925  1
  O  O108  1  0.333366  0.914769  0.524077  1
  O  O109  1  0.000000  0.000000  0.524127  1
  O  O110  1  0.666661  0.667042  0.524111  1
  O  O111  1  0.332881  0.333151  0.523904  1
  O  O112  1  0.000000  0.418375  0.587430  1
  O  O113  1  0.666174  0.085423  0.587644  1
  O  O114  1  0.333795  0.752293  0.587643  1
  O  O115  1  0.879063  0.901217  0.467073  1
  O  O116  1  0.545840  0.567914  0.466994  1
  O  O117  1  0.212182  0.234534  0.466945  1
  O  O118  1  0.879260  0.549861  0.540765  1
  O  O119  1  0.545442  0.215999  0.540602  1
  O  O120  1  0.212350  0.882705  0.540607  1
  O  O121  1  0.878784  0.549191  0.627845  1
  O  O122  1  0.545929  0.216386  0.628075  1
  O  O123  1  0.212540  0.882983  0.628054  1
  O  O124  1  0.120479  0.098979  0.540738  1
  O  O125  1  0.787357  0.765662  0.540622  1
  O  O126  1  0.453699  0.432282  0.540636  1
  O  O127  1  0.120752  0.451003  0.467108  1
  O  O128  1  0.786998  0.117211  0.466974  1
  O  O129  1  0.453609  0.783807  0.466944  1
  O  O130  1  0.120282  0.450337  0.627856  1
  O  O131  1  0.787193  0.117493  0.628062  1
  O  O132  1  0.454101  0.784199  0.628086  1
  O  O133  1  0.665844  0.898036  0.437206  1
  O  O134  1  0.333571  0.564223  0.436899  1
  O  O135  1  0.000000  0.231461  0.437099  1
  O  O136  1  0.665966  0.435976  0.513291  1
  O  O137  1  0.333697  0.102162  0.513241  1
  O  O138  1  -0.000000  0.768739  0.513066  1
  O  O139  1  0.665920  0.666383  0.436897  1
  O  O140  1  0.333626  0.333816  0.437182  1
  O  O141  1  0.000000  0.000000  0.437109  1
  O  O142  1  0.667446  0.667204  0.570744  1
  O  O143  1  0.332083  0.332989  0.570416  1
  O  O144  1  -0.000000  0.000000  0.570645  1
  O  O145  1  0.666943  0.897788  0.494506  1
  O  O146  1  0.333066  0.564940  0.494571  1
  O  O147  1  0.998634  0.231068  0.494336  1
  O  O148  1  0.666475  0.435253  0.570427  1
  O  O149  1  0.332604  0.102405  0.570723  1
  O  O150  1  0.000000  0.769125  0.570594  1
  Si  Si151  1  0.919751  0.916009  0.205800  1
  Si  Si152  1  0.586927  0.582425  0.205609  1
  Si  Si153  1  0.253503  0.249547  0.205767  1
  Si  Si154  1  0.919809  0.468127  0.268466  1
  Si  Si155  1  0.586964  0.134395  0.268399  1
  Si  Si156  1  0.253159  0.800919  0.268252  1
  Si  Si157  1  0.919662  0.616132  0.168107  1
  Si  Si158  1  0.587072  0.283459  0.168347  1
  Si  Si159  1  0.253364  0.949823  0.168306  1
  Si  Si160  1  0.920686  0.616792  0.305396  1
  Si  Si161  1  0.585980  0.282830  0.305157  1
  Si  Si162  1  0.253368  0.949790  0.305330  1
  Si  Si163  1  0.920258  0.915981  0.242701  1
  Si  Si164  1  0.586771  0.582943  0.242714  1
  Si  Si165  1  0.252632  0.249087  0.242506  1
  Si  Si166  1  0.919899  0.467495  0.342612  1
  Si  Si167  1  0.586437  0.134581  0.342849  1
  Si  Si168  1  0.254091  0.801386  0.342811  1
  Si  Si169  1  0.079285  0.084212  0.305365  1
  Si  Si170  1  0.746908  0.751107  0.305341  1
  Si  Si171  1  0.412769  0.417250  0.305158  1
  Si  Si172  1  0.079640  0.532699  0.242736  1
  Si  Si173  1  0.745448  0.198808  0.242520  1
  Si  Si174  1  0.413106  0.865613  0.242661  1
  Si  Si175  1  0.078849  0.383403  0.342624  1
  Si  Si176  1  0.746173  0.050405  0.342808  1
  Si  Si177  1  0.413555  0.717365  0.342854  1
  Si  Si178  1  0.079880  0.384065  0.205828  1
  Si  Si179  1  0.746182  0.050374  0.205760  1
  Si  Si180  1  0.412470  0.716738  0.205576  1
  Si  Si181  1  0.079790  0.084190  0.268446  1
  Si  Si182  1  0.746035  0.750652  0.268261  1
  Si  Si183  1  0.412611  0.417774  0.268441  1
  Si  Si184  1  0.079730  0.532071  0.168122  1
  Si  Si185  1  0.746380  0.199279  0.168310  1
  Si  Si186  1  0.412578  0.865803  0.168351  1
  Si  Si187  1  0.919751  0.916009  0.454126  1
  Si  Si188  1  0.586927  0.582425  0.453935  1
  Si  Si189  1  0.253503  0.249547  0.454093  1
  Si  Si190  1  0.919809  0.468127  0.516793  1
  Si  Si191  1  0.586964  0.134395  0.516725  1
  Si  Si192  1  0.253159  0.800919  0.516578  1
  Si  Si193  1  0.919662  0.616132  0.416434  1
  Si  Si194  1  0.587072  0.283459  0.416673  1
  Si  Si195  1  0.253364  0.949823  0.416632  1
  Si  Si196  1  0.920686  0.616792  0.553722  1
  Si  Si197  1  0.585980  0.282830  0.553483  1
  Si  Si198  1  0.253368  0.949790  0.553656  1
  Si  Si199  1  0.920258  0.915981  0.491027  1
  Si  Si200  1  0.586771  0.582943  0.491040  1
  Si  Si201  1  0.252632  0.249087  0.490833  1
  Si  Si202  1  0.919899  0.467495  0.590938  1
  Si  Si203  1  0.586437  0.134581  0.591175  1
  Si  Si204  1  0.254091  0.801386  0.591137  1
  Si  Si205  1  0.079285  0.084212  0.553691  1
  Si  Si206  1  0.746908  0.751107  0.553667  1
  Si  Si207  1  0.412769  0.417250  0.553484  1
  Si  Si208  1  0.079640  0.532699  0.491062  1
  Si  Si209  1  0.745448  0.198808  0.490846  1
  Si  Si210  1  0.413106  0.865613  0.490987  1
  Si  Si211  1  0.078849  0.383403  0.590950  1
  Si  Si212  1  0.746173  0.050405  0.591134  1
  Si  Si213  1  0.413555  0.717365  0.591180  1
  Si  Si214  1  0.079880  0.384065  0.454154  1
  Si  Si215  1  0.746182  0.050374  0.454086  1
  Si  Si216  1  0.412470  0.716738  0.453902  1
  Si  Si217  1  0.079790  0.084190  0.516772  1
  Si  Si218  1  0.746035  0.750652  0.516587  1
  Si  Si219  1  0.412611  0.417774  0.516767  1
  Si  Si220  1  0.079730  0.532071  0.416448  1
  Si  Si221  1  0.746380  0.199279  0.416636  1
  Si  Si222  1  0.412578  0.865803  0.416677  1
  H  H223  1  0.878784  0.549191  0.120360  1
  H  H224  1  0.545929  0.216386  0.120590  1
  H  H225  1  0.212540  0.882983  0.120569  1
  H  H226  1  0.120282  0.450337  0.120371  1
  H  H227  1  0.787193  0.117493  0.120578  1
  H  H228  1  0.454101  0.784199  0.120601  1
  H  H229  1  0.878784  0.549191  0.638678  1
  H  H230  1  0.545929  0.216386  0.638908  1
  H  H231  1  0.212540  0.882983  0.638886  1
  H  H232  1  0.120282  0.450337  0.638688  1
  H  H233  1  0.787193  0.117493  0.638895  1
  H  H234  1  0.454101  0.784199  0.638919  1
