# generated using pymatgen
data_Si12H2O25
_symmetry_space_group_name_H-M   'P 1'
_cell_length_a   8.32108458
_cell_length_b   18.54608556
_cell_length_c   45.01929350
_cell_angle_alpha   58.06386483
_cell_angle_beta   90.00000000
_cell_angle_gamma   90.00000000
_symmetry_Int_Tables_number   1
_chemical_formula_structural   Si12H2O25
_chemical_formula_sum   'Si48 H8 O100'
_cell_volume   5895.94563435
_cell_formula_units_Z   4
loop_
 _symmetry_equiv_pos_site_id
 _symmetry_equiv_pos_as_xyz
  1  'x, y, z'
loop_
 _atom_site_type_symbol
 _atom_site_label
 _atom_site_symmetry_multiplicity
 _atom_site_fract_x
 _atom_site_fract_y
 _atom_site_fract_z
 _atom_site_occupancy
  O  O1  1  0.503740  0.089242  0.198538  1
  O  O2  1  0.503563  0.590569  0.198599  1
  O  O3  1  0.503546  0.909493  0.238058  1
  O  O4  1  0.503721  0.410821  0.237418  1
  O  O5  1  0.012469  0.090977  0.281224  1
  O  O6  1  0.012718  0.589353  0.281986  1
  O  O7  1  0.012737  0.910746  0.320906  1
  O  O8  1  0.012488  0.409121  0.320852  1
  O  O9  1  0.487136  0.910607  0.320882  1
  O  O10  1  0.487250  0.409241  0.320824  1
  O  O11  1  0.487231  0.090820  0.281254  1
  O  O12  1  0.487116  0.589454  0.281908  1
  O  O13  1  0.996303  0.909397  0.238135  1
  O  O14  1  0.995994  0.410971  0.237383  1
  O  O15  1  0.996012  0.089127  0.198560  1
  O  O16  1  0.996322  0.590702  0.198626  1
  O  O17  1  0.516350  0.200208  0.215695  1
  O  O18  1  0.516086  0.700187  0.216484  1
  O  O19  1  0.516086  0.799876  0.303718  1
  O  O20  1  0.516351  0.299855  0.302938  1
  O  O21  1  0.983681  0.200238  0.215643  1
  O  O22  1  0.983261  0.700183  0.216585  1
  O  O23  1  0.983262  0.799915  0.303810  1
  O  O24  1  0.983681  0.299860  0.302891  1
  O  O25  1  0.749936  0.186844  0.182039  1
  O  O26  1  0.749862  0.687853  0.182585  1
  O  O27  1  0.749862  0.812227  0.264440  1
  O  O28  1  0.749936  0.313236  0.263454  1
  O  O29  1  0.249947  0.183535  0.245848  1
  O  O30  1  0.249799  0.682774  0.246782  1
  O  O31  1  0.249794  0.817306  0.326423  1
  O  O32  1  0.249956  0.316545  0.325820  1
  O  O33  1  0.482925  0.248531  0.150894  1
  O  O34  1  0.483052  0.750261  0.151478  1
  O  O35  1  0.483067  0.749798  0.260536  1
  O  O36  1  0.482941  0.251528  0.259199  1
  O  O37  1  0.016974  0.251738  0.259084  1
  O  O38  1  0.016743  0.749661  0.260688  1
  O  O39  1  0.016728  0.750442  0.151560  1
  O  O40  1  0.016956  0.248360  0.150864  1
  O  O41  1  0.749910  0.000000  0.296579  1
  O  O42  1  0.749913  0.499441  0.296841  1
  O  O43  1  0.249925  -0.000000  0.232059  1
  O  O44  1  0.249928  0.500440  0.231885  1
  O  O45  1  0.518462  0.000000  0.259858  1
  O  O46  1  0.518464  0.500024  0.259861  1
  O  O47  1  0.981481  0.000000  0.259882  1
  O  O48  1  0.981479  0.500036  0.259889  1
  O  O49  1  0.503740  0.089242  0.416453  1
  O  O50  1  0.503563  0.590569  0.416515  1
  O  O51  1  0.503546  0.909493  0.455974  1
  O  O52  1  0.503721  0.410821  0.455333  1
  O  O53  1  0.012469  0.090977  0.499139  1
  O  O54  1  0.012718  0.589353  0.499902  1
  O  O55  1  0.012737  0.910746  0.538822  1
  O  O56  1  0.012488  0.409121  0.538767  1
  O  O57  1  0.487136  0.910607  0.538797  1
  O  O58  1  0.487250  0.409241  0.538740  1
  O  O59  1  0.487231  0.090820  0.499170  1
  O  O60  1  0.487116  0.589454  0.499823  1
  O  O61  1  0.996303  0.909397  0.456050  1
  O  O62  1  0.995994  0.410971  0.455299  1
  O  O63  1  0.996012  0.089127  0.416475  1
  O  O64  1  0.996322  0.590702  0.416541  1
  O  O65  1  0.516350  0.200208  0.433610  1
  O  O66  1  0.516086  0.700187  0.434399  1
  O  O67  1  0.516086  0.799876  0.521633  1
  O  O68  1  0.516351  0.299855  0.520853  1
  O  O69  1  0.983681  0.200238  0.433559  1
  O  O70  1  0.983261  0.700183  0.434500  1
  O  O71  1  0.983262  0.799915  0.521725  1
  O  O72  1  0.983681  0.299860  0.520806  1
  O  O73  1  0.749936  0.186844  0.399954  1
  O  O74  1  0.749862  0.687853  0.400501  1
  O  O75  1  0.749862  0.812227  0.482355  1
  O  O76  1  0.749936  0.313236  0.481369  1
  O  O77  1  0.249947  0.183535  0.463763  1
  O  O78  1  0.249799  0.682774  0.464697  1
  O  O79  1  0.249794  0.817306  0.544339  1
  O  O80  1  0.249956  0.316545  0.543735  1
  O  O81  1  0.482925  0.248531  0.368810  1
  O  O82  1  0.483052  0.750261  0.369393  1
  O  O83  1  0.483067  0.749798  0.478452  1
  O  O84  1  0.482941  0.251528  0.477114  1
  O  O85  1  0.016974  0.251738  0.476999  1
  O  O86  1  0.016743  0.749661  0.478604  1
  O  O87  1  0.016728  0.750442  0.369476  1
  O  O88  1  0.016956  0.248360  0.368779  1
  O  O89  1  0.749910  -0.000000  0.514494  1
  O  O90  1  0.749913  0.499441  0.514756  1
  O  O91  1  0.249925  -0.000000  0.449974  1
  O  O92  1  0.249928  0.500440  0.449800  1
  O  O93  1  0.518462  -0.000000  0.477773  1
  O  O94  1  0.518464  0.500024  0.477776  1
  O  O95  1  0.981481  -0.000000  0.477797  1
  O  O96  1  0.981479  0.500036  0.477804  1
  O  O97  1  0.482925  0.248531  0.586725  1
  O  O98  1  0.483052  0.750261  0.587308  1
  O  O99  1  0.016728  0.750442  0.587391  1
  O  O100  1  0.016956  0.248360  0.586695  1
  Si  Si101  1  0.563909  0.182666  0.186209  1
  Si  Si102  1  0.563806  0.683712  0.186708  1
  Si  Si103  1  0.563805  0.816355  0.266762  1
  Si  Si104  1  0.563908  0.317399  0.265807  1
  Si  Si105  1  0.064459  0.183723  0.250373  1
  Si  Si106  1  0.064335  0.682552  0.251461  1
  Si  Si107  1  0.064340  0.817543  0.331002  1
  Si  Si108  1  0.064459  0.316374  0.330424  1
  Si  Si109  1  0.435309  0.817464  0.330945  1
  Si  Si110  1  0.435427  0.316441  0.330439  1
  Si  Si111  1  0.435428  0.183625  0.250424  1
  Si  Si112  1  0.435303  0.682601  0.251376  1
  Si  Si113  1  0.935884  0.816302  0.266848  1
  Si  Si114  1  0.935972  0.317501  0.265754  1
  Si  Si115  1  0.935975  0.182597  0.186193  1
  Si  Si116  1  0.935885  0.683791  0.186767  1
  Si  Si117  1  0.561393  -0.000000  0.293068  1
  Si  Si118  1  0.561393  0.499493  0.293304  1
  Si  Si119  1  0.061023  0.000000  0.228993  1
  Si  Si120  1  0.061022  0.500607  0.228749  1
  Si  Si121  1  0.438821  0.000000  0.228953  1
  Si  Si122  1  0.438819  0.500507  0.228747  1
  Si  Si123  1  0.938450  0.000000  0.293067  1
  Si  Si124  1  0.938449  0.499411  0.293345  1
  Si  Si125  1  0.563909  0.182666  0.404124  1
  Si  Si126  1  0.563806  0.683712  0.404624  1
  Si  Si127  1  0.563805  0.816355  0.484677  1
  Si  Si128  1  0.563908  0.317399  0.483722  1
  Si  Si129  1  0.064459  0.183723  0.468289  1
  Si  Si130  1  0.064335  0.682552  0.469376  1
  Si  Si131  1  0.064340  0.817543  0.548917  1
  Si  Si132  1  0.064459  0.316374  0.548339  1
  Si  Si133  1  0.435309  0.817464  0.548861  1
  Si  Si134  1  0.435427  0.316441  0.548354  1
  Si  Si135  1  0.435428  0.183625  0.468340  1
  Si  Si136  1  0.435303  0.682601  0.469291  1
  Si  Si137  1  0.935884  0.816302  0.484763  1
  Si  Si138  1  0.935972  0.317501  0.483669  1
  Si  Si139  1  0.935975  0.182597  0.404109  1
  Si  Si140  1  0.935885  0.683791  0.404682  1
  Si  Si141  1  0.561393  0.000000  0.510984  1
  Si  Si142  1  0.561393  0.499493  0.511219  1
  Si  Si143  1  0.061023  -0.000000  0.446908  1
  Si  Si144  1  0.061022  0.500607  0.446664  1
  Si  Si145  1  0.438821  -0.000000  0.446868  1
  Si  Si146  1  0.438819  0.500507  0.446662  1
  Si  Si147  1  0.938450  -0.000000  0.510982  1
  Si  Si148  1  0.938449  0.499411  0.511260  1
  H  H149  1  0.482925  0.248531  0.130903  1
  H  H150  1  0.483052  0.750261  0.131486  1
  H  H151  1  0.016728  0.750442  0.131569  1
  H  H152  1  0.016956  0.248360  0.130873  1
  H  H153  1  0.482925  0.248531  0.606716  1
  H  H154  1  0.483052  0.750261  0.607300  1
  H  H155  1  0.016728  0.750442  0.607382  1
  H  H156  1  0.016956  0.248360  0.606686  1
