# generated using pymatgen
data_Si84H2O169
_symmetry_space_group_name_H-M   'P 1'
_cell_length_a   13.15516101
_cell_length_b   13.16213477
_cell_length_c   99.14342853
_cell_angle_alpha   90.00000000
_cell_angle_beta   90.00000000
_cell_angle_gamma   120.00000000
_symmetry_Int_Tables_number   1
_chemical_formula_structural   Si84H2O169
_chemical_formula_sum   'Si168 H4 O338'
_cell_volume   14866.7851886
_cell_formula_units_Z   2
loop_
 _symmetry_equiv_pos_site_id
 _symmetry_equiv_pos_as_xyz
  1  'x, y, z'
loop_
 _atom_site_type_symbol
 _atom_site_label
 _atom_site_symmetry_multiplicity
 _atom_site_fract_x
 _atom_site_fract_y
 _atom_site_fract_z
 _atom_site_occupancy
  O  O1  1  0.442020  0.584953  0.103739  1
  O  O2  1  0.143101  0.558000  0.103833  1
  O  O3  1  0.414764  0.856927  0.103885  1
  O  O4  1  0.441900  0.584775  0.145274  1
  O  O5  1  0.143063  0.557936  0.145255  1
  O  O6  1  0.414636  0.856848  0.145177  1
  O  O7  1  0.428035  0.230800  0.100725  1
  O  O8  1  0.230947  0.428418  0.100701  1
  O  O9  1  0.197239  0.769077  0.100743  1
  O  O10  1  0.348511  0.563192  0.081087  1
  O  O11  1  0.214704  0.651439  0.081202  1
  O  O12  1  0.436842  0.785338  0.081262  1
  O  O13  1  0.406114  0.406129  0.090227  1
  O  O14  1  0.343183  0.000000  0.106718  1
  O  O15  1  -0.000000  0.343648  0.106729  1
  O  O16  1  0.343008  0.000000  0.142355  1
  O  O17  1  0.000000  0.343582  0.142318  1
  O  O18  1  0.450494  0.160180  0.124536  1
  O  O19  1  0.160601  0.451517  0.124531  1
  O  O20  1  0.290355  0.839710  0.124535  1
  O  O21  1  0.333845  0.669631  0.059510  1
  O  O22  1  0.230895  0.802398  0.230810  1
  O  O23  1  0.197576  0.428370  0.230728  1
  O  O24  1  0.428362  0.197349  0.230822  1
  O  O25  1  0.427966  0.230689  0.148353  1
  O  O26  1  0.230787  0.428210  0.148337  1
  O  O27  1  0.197135  0.768951  0.148340  1
  O  O28  1  0.436831  0.651396  0.211221  1
  O  O29  1  0.348568  0.785272  0.211267  1
  O  O30  1  0.214753  0.563115  0.211113  1
  O  O31  1  0.348397  0.563031  0.167916  1
  O  O32  1  0.214556  0.651342  0.167911  1
  O  O33  1  0.436690  0.785159  0.167784  1
  O  O34  1  0.406181  -0.000000  0.220369  1
  O  O35  1  0.406056  0.406020  0.158821  1
  O  O36  1  0.335918  0.669477  0.189528  1
  O  O37  1  -0.000000  0.406127  0.220277  1
  O  O38  1  0.415051  0.557903  0.233847  1
  O  O39  1  0.442204  0.856827  0.233887  1
  O  O40  1  0.143071  0.584933  0.233768  1
  O  O41  1  0.415062  0.557957  0.275276  1
  O  O42  1  0.442307  0.856845  0.275203  1
  O  O43  1  0.143030  0.584844  0.275281  1
  O  O44  1  0.230921  0.802359  0.278253  1
  O  O45  1  0.197563  0.428274  0.278350  1
  O  O46  1  0.428445  0.197386  0.278246  1
  O  O47  1  0.436907  0.651414  0.297926  1
  O  O48  1  0.348560  0.785210  0.297804  1
  O  O49  1  0.214730  0.563076  0.297929  1
  O  O50  1  0.406154  -0.000000  0.288702  1
  O  O51  1  0.343553  0.343589  0.236748  1
  O  O52  1  0.343690  0.343652  0.272337  1
  O  O53  1  0.160050  0.707980  0.254529  1
  O  O54  1  0.291095  0.451498  0.254549  1
  O  O55  1  0.452178  0.292005  0.254536  1
  O  O56  1  -0.000000  0.406107  0.288807  1
  O  O57  1  0.584921  0.441825  0.103802  1
  O  O58  1  0.557744  0.143006  0.103888  1
  O  O59  1  0.857013  0.414907  0.103767  1
  O  O60  1  0.584884  0.441710  0.145267  1
  O  O61  1  0.557599  0.142865  0.145177  1
  O  O62  1  0.856939  0.414883  0.145267  1
  O  O63  1  0.769080  0.197404  0.100802  1
  O  O64  1  0.802448  0.571441  0.100728  1
  O  O65  1  0.571615  0.802475  0.100807  1
  O  O66  1  0.563077  0.348400  0.081160  1
  O  O67  1  0.651365  0.214593  0.081269  1
  O  O68  1  0.785248  0.436749  0.081125  1
  O  O69  1  0.593727  -0.000000  0.090366  1
  O  O70  1  -0.000000  0.593728  0.090260  1
  O  O71  1  0.656439  0.656169  0.106728  1
  O  O72  1  0.656302  0.656082  0.142316  1
  O  O73  1  0.839928  0.291752  0.124518  1
  O  O74  1  0.708662  0.548064  0.124529  1
  O  O75  1  0.547945  0.707896  0.124515  1
  O  O76  1  0.665536  0.329979  0.059528  1
  O  O77  1  0.571921  0.768984  0.230762  1
  O  O78  1  0.769086  0.571416  0.230711  1
  O  O79  1  0.802783  0.230772  0.230771  1
  O  O80  1  0.768946  0.197330  0.148236  1
  O  O81  1  0.802378  0.571433  0.148323  1
  O  O82  1  0.571486  0.802340  0.148233  1
  O  O83  1  0.651498  0.436616  0.211101  1
  O  O84  1  0.785311  0.348385  0.211237  1
  O  O85  1  0.563118  0.214478  0.211268  1
  O  O86  1  0.563021  0.348287  0.167925  1
  O  O87  1  0.651318  0.214487  0.167786  1
  O  O88  1  0.785185  0.436639  0.167906  1
  O  O89  1  0.593833  0.593645  0.220255  1
  O  O90  1  0.593667  0.000000  0.158684  1
  O  O91  1  0.000000  0.593642  0.158804  1
  O  O92  1  0.666571  0.330283  0.189530  1
  O  O93  1  0.558020  0.414846  0.233755  1
  O  O94  1  0.856938  0.441856  0.233865  1
  O  O95  1  0.585186  0.142851  0.233885  1
  O  O96  1  0.558122  0.414939  0.275319  1
  O  O97  1  0.856887  0.441849  0.275244  1
  O  O98  1  0.585223  0.142800  0.275197  1
  O  O99  1  0.571955  0.768971  0.278357  1
  O  O100  1  0.769169  0.571506  0.278384  1
  O  O101  1  0.802780  0.230772  0.278332  1
  O  O102  1  0.651481  0.436607  0.297979  1
  O  O103  1  0.785281  0.348347  0.297883  1
  O  O104  1  0.563113  0.214470  0.297800  1
  O  O105  1  0.593872  0.593658  0.288851  1
  O  O106  1  0.656757  -0.000000  0.236735  1
  O  O107  1  0.000000  0.656169  0.236742  1
  O  O108  1  0.656877  0.000000  0.272364  1
  O  O109  1  0.000000  0.656176  0.272335  1
  O  O110  1  0.549262  0.839587  0.254551  1
  O  O111  1  0.839334  0.548498  0.254549  1
  O  O112  1  0.709406  0.160000  0.254546  1
  O  O113  1  0.442020  0.584953  0.363771  1
  O  O114  1  0.143101  0.558000  0.363866  1
  O  O115  1  0.414764  0.856927  0.363918  1
  O  O116  1  0.441900  0.584775  0.405307  1
  O  O117  1  0.143063  0.557936  0.405288  1
  O  O118  1  0.414636  0.856848  0.405210  1
  O  O119  1  0.428035  0.230800  0.360758  1
  O  O120  1  0.230947  0.428418  0.360734  1
  O  O121  1  0.197239  0.769077  0.360775  1
  O  O122  1  0.348511  0.563192  0.341120  1
  O  O123  1  0.214704  0.651439  0.341234  1
  O  O124  1  0.436842  0.785338  0.341295  1
  O  O125  1  0.406114  0.406129  0.350260  1
  O  O126  1  0.343183  0.000000  0.366751  1
  O  O127  1  0.000000  0.343648  0.366762  1
  O  O128  1  0.343008  0.000000  0.402387  1
  O  O129  1  0.000000  0.343582  0.402351  1
  O  O130  1  0.450494  0.160180  0.384568  1
  O  O131  1  0.160601  0.451517  0.384563  1
  O  O132  1  0.290355  0.839710  0.384567  1
  O  O133  1  0.333845  0.669631  0.319542  1
  O  O134  1  0.230895  0.802398  0.490842  1
  O  O135  1  0.197576  0.428370  0.490761  1
  O  O136  1  0.428362  0.197349  0.490855  1
  O  O137  1  0.427966  0.230689  0.408386  1
  O  O138  1  0.230787  0.428210  0.408369  1
  O  O139  1  0.197135  0.768951  0.408373  1
  O  O140  1  0.436831  0.651396  0.471254  1
  O  O141  1  0.348568  0.785272  0.471299  1
  O  O142  1  0.214753  0.563115  0.471146  1
  O  O143  1  0.348397  0.563031  0.427949  1
  O  O144  1  0.214556  0.651342  0.427944  1
  O  O145  1  0.436690  0.785159  0.427816  1
  O  O146  1  0.406181  -0.000000  0.480401  1
  O  O147  1  0.406056  0.406020  0.418853  1
  O  O148  1  0.335918  0.669477  0.449560  1
  O  O149  1  0.000000  0.406127  0.480310  1
  O  O150  1  0.415051  0.557903  0.493879  1
  O  O151  1  0.442204  0.856827  0.493920  1
  O  O152  1  0.143071  0.584933  0.493801  1
  O  O153  1  0.415062  0.557957  0.535309  1
  O  O154  1  0.442307  0.856845  0.535235  1
  O  O155  1  0.143030  0.584844  0.535314  1
  O  O156  1  0.230921  0.802359  0.538285  1
  O  O157  1  0.197563  0.428274  0.538382  1
  O  O158  1  0.428445  0.197386  0.538278  1
  O  O159  1  0.436907  0.651414  0.557959  1
  O  O160  1  0.348560  0.785210  0.557836  1
  O  O161  1  0.214730  0.563076  0.557962  1
  O  O162  1  0.406154  0.000000  0.548735  1
  O  O163  1  0.343553  0.343589  0.496781  1
  O  O164  1  0.343690  0.343652  0.532369  1
  O  O165  1  0.160050  0.707980  0.514562  1
  O  O166  1  0.291095  0.451498  0.514582  1
  O  O167  1  0.452178  0.292005  0.514569  1
  O  O168  1  -0.000000  0.406107  0.548840  1
  O  O169  1  0.584921  0.441825  0.363834  1
  O  O170  1  0.557744  0.143006  0.363920  1
  O  O171  1  0.857013  0.414907  0.363799  1
  O  O172  1  0.584884  0.441710  0.405300  1
  O  O173  1  0.557599  0.142865  0.405210  1
  O  O174  1  0.856939  0.414883  0.405299  1
  O  O175  1  0.769080  0.197404  0.360835  1
  O  O176  1  0.802448  0.571441  0.360760  1
  O  O177  1  0.571615  0.802475  0.360839  1
  O  O178  1  0.563077  0.348400  0.341193  1
  O  O179  1  0.651365  0.214593  0.341302  1
  O  O180  1  0.785248  0.436749  0.341158  1
  O  O181  1  0.593727  0.000000  0.350399  1
  O  O182  1  0.000000  0.593728  0.350293  1
  O  O183  1  0.656439  0.656169  0.366761  1
  O  O184  1  0.656302  0.656082  0.402348  1
  O  O185  1  0.839928  0.291752  0.384551  1
  O  O186  1  0.708662  0.548064  0.384561  1
  O  O187  1  0.547945  0.707896  0.384547  1
  O  O188  1  0.665536  0.329979  0.319561  1
  O  O189  1  0.571921  0.768984  0.490795  1
  O  O190  1  0.769086  0.571416  0.490743  1
  O  O191  1  0.802783  0.230772  0.490803  1
  O  O192  1  0.768946  0.197330  0.408269  1
  O  O193  1  0.802378  0.571433  0.408356  1
  O  O194  1  0.571486  0.802340  0.408265  1
  O  O195  1  0.651498  0.436616  0.471133  1
  O  O196  1  0.785311  0.348385  0.471269  1
  O  O197  1  0.563118  0.214478  0.471301  1
  O  O198  1  0.563021  0.348287  0.427957  1
  O  O199  1  0.651318  0.214487  0.427819  1
  O  O200  1  0.785185  0.436639  0.427939  1
  O  O201  1  0.593833  0.593645  0.480288  1
  O  O202  1  0.593667  0.000000  0.418717  1
  O  O203  1  0.000000  0.593642  0.418837  1
  O  O204  1  0.666571  0.330283  0.449562  1
  O  O205  1  0.558020  0.414846  0.493788  1
  O  O206  1  0.856938  0.441856  0.493898  1
  O  O207  1  0.585186  0.142851  0.493918  1
  O  O208  1  0.558122  0.414939  0.535351  1
  O  O209  1  0.856887  0.441849  0.535277  1
  O  O210  1  0.585223  0.142800  0.535229  1
  O  O211  1  0.571955  0.768971  0.538389  1
  O  O212  1  0.769169  0.571506  0.538417  1
  O  O213  1  0.802780  0.230772  0.538364  1
  O  O214  1  0.651481  0.436607  0.558012  1
  O  O215  1  0.785281  0.348347  0.557916  1
  O  O216  1  0.563113  0.214470  0.557833  1
  O  O217  1  0.593872  0.593658  0.548884  1
  O  O218  1  0.656757  0.000000  0.496768  1
  O  O219  1  -0.000000  0.656169  0.496775  1
  O  O220  1  0.656877  0.000000  0.532396  1
  O  O221  1  0.000000  0.656176  0.532367  1
  O  O222  1  0.549262  0.839587  0.514584  1
  O  O223  1  0.839334  0.548498  0.514582  1
  O  O224  1  0.709406  0.160000  0.514579  1
  O  O225  1  0.442020  0.584953  0.623804  1
  O  O226  1  0.143101  0.558000  0.623898  1
  O  O227  1  0.414764  0.856927  0.623950  1
  O  O228  1  0.441900  0.584775  0.665339  1
  O  O229  1  0.143063  0.557936  0.665320  1
  O  O230  1  0.414636  0.856848  0.665243  1
  O  O231  1  0.428035  0.230800  0.620790  1
  O  O232  1  0.230947  0.428418  0.620766  1
  O  O233  1  0.197239  0.769077  0.620808  1
  O  O234  1  0.348511  0.563192  0.601152  1
  O  O235  1  0.214704  0.651439  0.601267  1
  O  O236  1  0.436842  0.785338  0.601327  1
  O  O237  1  0.406114  0.406129  0.610293  1
  O  O238  1  0.343183  -0.000000  0.626783  1
  O  O239  1  0.000000  0.343648  0.626795  1
  O  O240  1  0.343008  -0.000000  0.662420  1
  O  O241  1  -0.000000  0.343582  0.662383  1
  O  O242  1  0.450494  0.160180  0.644601  1
  O  O243  1  0.160601  0.451517  0.644596  1
  O  O244  1  0.290355  0.839710  0.644600  1
  O  O245  1  0.333845  0.669631  0.579575  1
  O  O246  1  0.230895  0.802398  0.750875  1
  O  O247  1  0.197576  0.428370  0.750794  1
  O  O248  1  0.428362  0.197349  0.750888  1
  O  O249  1  0.427966  0.230689  0.668418  1
  O  O250  1  0.230787  0.428210  0.668402  1
  O  O251  1  0.197135  0.768951  0.668405  1
  O  O252  1  0.436831  0.651396  0.731286  1
  O  O253  1  0.348568  0.785272  0.731332  1
  O  O254  1  0.214753  0.563115  0.731178  1
  O  O255  1  0.348397  0.563031  0.687982  1
  O  O256  1  0.214556  0.651342  0.687977  1
  O  O257  1  0.436690  0.785159  0.687849  1
  O  O258  1  0.406181  -0.000000  0.740434  1
  O  O259  1  0.406056  0.406020  0.678886  1
  O  O260  1  0.335918  0.669477  0.709593  1
  O  O261  1  -0.000000  0.406127  0.740342  1
  O  O262  1  0.415051  0.557903  0.753912  1
  O  O263  1  0.442204  0.856827  0.753953  1
  O  O264  1  0.143071  0.584933  0.753833  1
  O  O265  1  0.415062  0.557957  0.795342  1
  O  O266  1  0.442307  0.856845  0.795268  1
  O  O267  1  0.143030  0.584844  0.795346  1
  O  O268  1  0.230921  0.802359  0.798318  1
  O  O269  1  0.197563  0.428274  0.798415  1
  O  O270  1  0.428445  0.197386  0.798311  1
  O  O271  1  0.436907  0.651414  0.817991  1
  O  O272  1  0.348560  0.785210  0.817869  1
  O  O273  1  0.214730  0.563076  0.817994  1
  O  O274  1  0.406154  0.000000  0.808767  1
  O  O275  1  0.343553  0.343589  0.756814  1
  O  O276  1  0.343690  0.343652  0.792402  1
  O  O277  1  0.160050  0.707980  0.774594  1
  O  O278  1  0.291095  0.451498  0.774614  1
  O  O279  1  0.452178  0.292005  0.774601  1
  O  O280  1  0.000000  0.406107  0.808872  1
  O  O281  1  0.584921  0.441825  0.623867  1
  O  O282  1  0.557744  0.143006  0.623953  1
  O  O283  1  0.857013  0.414907  0.623832  1
  O  O284  1  0.584884  0.441710  0.665332  1
  O  O285  1  0.557599  0.142865  0.665243  1
  O  O286  1  0.856939  0.414883  0.665332  1
  O  O287  1  0.769080  0.197404  0.620868  1
  O  O288  1  0.802448  0.571441  0.620793  1
  O  O289  1  0.571615  0.802475  0.620872  1
  O  O290  1  0.563077  0.348400  0.601225  1
  O  O291  1  0.651365  0.214593  0.601334  1
  O  O292  1  0.785248  0.436749  0.601190  1
  O  O293  1  0.593727  0.000000  0.610431  1
  O  O294  1  -0.000000  0.593728  0.610326  1
  O  O295  1  0.656439  0.656169  0.626793  1
  O  O296  1  0.656302  0.656082  0.662381  1
  O  O297  1  0.839928  0.291752  0.644583  1
  O  O298  1  0.708662  0.548064  0.644594  1
  O  O299  1  0.547945  0.707896  0.644580  1
  O  O300  1  0.665536  0.329979  0.579594  1
  O  O301  1  0.571921  0.768984  0.750827  1
  O  O302  1  0.769086  0.571416  0.750776  1
  O  O303  1  0.802783  0.230772  0.750836  1
  O  O304  1  0.768946  0.197330  0.668301  1
  O  O305  1  0.802378  0.571433  0.668389  1
  O  O306  1  0.571486  0.802340  0.668298  1
  O  O307  1  0.651498  0.436616  0.731166  1
  O  O308  1  0.785311  0.348385  0.731302  1
  O  O309  1  0.563118  0.214478  0.731334  1
  O  O310  1  0.563021  0.348287  0.687990  1
  O  O311  1  0.651318  0.214487  0.687851  1
  O  O312  1  0.785185  0.436639  0.687971  1
  O  O313  1  0.593833  0.593645  0.740321  1
  O  O314  1  0.593667  -0.000000  0.678750  1
  O  O315  1  0.000000  0.593642  0.678869  1
  O  O316  1  0.666571  0.330283  0.709595  1
  O  O317  1  0.558020  0.414846  0.753820  1
  O  O318  1  0.856938  0.441856  0.753930  1
  O  O319  1  0.585186  0.142851  0.753950  1
  O  O320  1  0.558122  0.414939  0.795384  1
  O  O321  1  0.856887  0.441849  0.795309  1
  O  O322  1  0.585223  0.142800  0.795262  1
  O  O323  1  0.571955  0.768971  0.798422  1
  O  O324  1  0.769169  0.571506  0.798450  1
  O  O325  1  0.802780  0.230772  0.798397  1
  O  O326  1  0.651481  0.436607  0.818045  1
  O  O327  1  0.785281  0.348347  0.817948  1
  O  O328  1  0.563113  0.214470  0.817865  1
  O  O329  1  0.593872  0.593658  0.808916  1
  O  O330  1  0.656757  0.000000  0.756801  1
  O  O331  1  0.000000  0.656169  0.756807  1
  O  O332  1  0.656877  0.000000  0.792429  1
  O  O333  1  -0.000000  0.656176  0.792400  1
  O  O334  1  0.549262  0.839587  0.774616  1
  O  O335  1  0.839334  0.548498  0.774614  1
  O  O336  1  0.709406  0.160000  0.774611  1
  O  O337  1  0.333845  0.669631  0.839608  1
  O  O338  1  0.665536  0.329979  0.839626  1
  Si  Si339  1  0.489812  0.355055  0.093460  1
  Si  Si340  1  0.355118  0.489955  0.093402  1
  Si  Si341  1  0.134768  0.644765  0.093492  1
  Si  Si342  1  0.439768  0.133829  0.108933  1
  Si  Si343  1  0.134135  0.440324  0.108929  1
  Si  Si344  1  0.306017  0.866159  0.108936  1
  Si  Si345  1  0.439630  0.133724  0.140137  1
  Si  Si346  1  0.133976  0.440276  0.140129  1
  Si  Si347  1  0.305833  0.866028  0.140138  1
  Si  Si348  1  0.333485  0.667054  0.075233  1
  Si  Si349  1  0.333520  0.666828  0.173813  1
  Si  Si350  1  0.355276  0.865098  0.223560  1
  Si  Si351  1  0.134957  0.489918  0.223436  1
  Si  Si352  1  0.489987  0.134659  0.223565  1
  Si  Si353  1  0.489803  0.354960  0.155614  1
  Si  Si354  1  0.355048  0.489781  0.155616  1
  Si  Si355  1  0.134698  0.644673  0.155599  1
  Si  Si356  1  0.333659  0.666977  0.205251  1
  Si  Si357  1  0.355254  0.865070  0.285513  1
  Si  Si358  1  0.134876  0.489851  0.285621  1
  Si  Si359  1  0.489986  0.134639  0.285509  1
  Si  Si360  1  0.133675  0.693206  0.238930  1
  Si  Si361  1  0.306323  0.440235  0.238948  1
  Si  Si362  1  0.440397  0.306581  0.238937  1
  Si  Si363  1  0.133717  0.693192  0.270129  1
  Si  Si364  1  0.306460  0.440297  0.270149  1
  Si  Si365  1  0.440519  0.306649  0.270137  1
  Si  Si366  1  0.333440  0.666900  0.303827  1
  Si  Si367  1  0.644668  0.134728  0.093560  1
  Si  Si368  1  0.865114  0.509939  0.093437  1
  Si  Si369  1  0.509949  0.865156  0.093558  1
  Si  Si370  1  0.866349  0.306575  0.108921  1
  Si  Si371  1  0.693563  0.559447  0.108927  1
  Si  Si372  1  0.559646  0.693247  0.108916  1
  Si  Si373  1  0.866206  0.306501  0.140118  1
  Si  Si374  1  0.693435  0.559363  0.140129  1
  Si  Si375  1  0.559537  0.693171  0.140114  1
  Si  Si376  1  0.666468  0.332886  0.075243  1
  Si  Si377  1  0.510132  0.644697  0.223504  1
  Si  Si378  1  0.644890  0.509847  0.223417  1
  Si  Si379  1  0.865281  0.355100  0.223523  1
  Si  Si380  1  0.644606  0.134623  0.155494  1
  Si  Si381  1  0.865057  0.509885  0.155602  1
  Si  Si382  1  0.509874  0.865034  0.155492  1
  Si  Si383  1  0.666577  0.332763  0.205253  1
  Si  Si384  1  0.666539  0.332821  0.173815  1
  Si  Si385  1  0.666440  0.332722  0.303837  1
  Si  Si386  1  0.510148  0.644714  0.285622  1
  Si  Si387  1  0.644917  0.509888  0.285668  1
  Si  Si388  1  0.865213  0.355075  0.285585  1
  Si  Si389  1  0.560126  0.866000  0.238951  1
  Si  Si390  1  0.865882  0.559559  0.238948  1
  Si  Si391  1  0.693913  0.133640  0.238947  1
  Si  Si392  1  0.560238  0.865961  0.270154  1
  Si  Si393  1  0.865932  0.559570  0.270149  1
  Si  Si394  1  0.694002  0.133633  0.270147  1
  Si  Si395  1  0.489812  0.355055  0.353493  1
  Si  Si396  1  0.355118  0.489955  0.353435  1
  Si  Si397  1  0.134768  0.644765  0.353524  1
  Si  Si398  1  0.439768  0.133829  0.368966  1
  Si  Si399  1  0.134135  0.440324  0.368961  1
  Si  Si400  1  0.306017  0.866159  0.368968  1
  Si  Si401  1  0.439630  0.133724  0.400170  1
  Si  Si402  1  0.133976  0.440276  0.400162  1
  Si  Si403  1  0.305833  0.866028  0.400170  1
  Si  Si404  1  0.333485  0.667054  0.335265  1
  Si  Si405  1  0.333520  0.666828  0.433845  1
  Si  Si406  1  0.355276  0.865098  0.483593  1
  Si  Si407  1  0.134957  0.489918  0.483468  1
  Si  Si408  1  0.489987  0.134659  0.483597  1
  Si  Si409  1  0.489803  0.354960  0.415647  1
  Si  Si410  1  0.355048  0.489781  0.415649  1
  Si  Si411  1  0.134698  0.644673  0.415631  1
  Si  Si412  1  0.333659  0.666977  0.465283  1
  Si  Si413  1  0.355254  0.865070  0.545546  1
  Si  Si414  1  0.134876  0.489851  0.545654  1
  Si  Si415  1  0.489986  0.134639  0.545541  1
  Si  Si416  1  0.133675  0.693206  0.498963  1
  Si  Si417  1  0.306323  0.440235  0.498980  1
  Si  Si418  1  0.440397  0.306581  0.498969  1
  Si  Si419  1  0.133717  0.693192  0.530161  1
  Si  Si420  1  0.306460  0.440297  0.530182  1
  Si  Si421  1  0.440519  0.306649  0.530169  1
  Si  Si422  1  0.333440  0.666900  0.563860  1
  Si  Si423  1  0.644668  0.134728  0.353592  1
  Si  Si424  1  0.865114  0.509939  0.353470  1
  Si  Si425  1  0.509949  0.865156  0.353591  1
  Si  Si426  1  0.866349  0.306575  0.368953  1
  Si  Si427  1  0.693563  0.559447  0.368960  1
  Si  Si428  1  0.559646  0.693247  0.368948  1
  Si  Si429  1  0.866206  0.306501  0.400150  1
  Si  Si430  1  0.693435  0.559363  0.400161  1
  Si  Si431  1  0.559537  0.693171  0.400147  1
  Si  Si432  1  0.666468  0.332886  0.335275  1
  Si  Si433  1  0.510132  0.644697  0.483537  1
  Si  Si434  1  0.644890  0.509847  0.483450  1
  Si  Si435  1  0.865281  0.355100  0.483556  1
  Si  Si436  1  0.644606  0.134623  0.415527  1
  Si  Si437  1  0.865057  0.509885  0.415635  1
  Si  Si438  1  0.509874  0.865034  0.415525  1
  Si  Si439  1  0.666577  0.332763  0.465285  1
  Si  Si440  1  0.666539  0.332821  0.433847  1
  Si  Si441  1  0.666440  0.332722  0.563870  1
  Si  Si442  1  0.510148  0.644714  0.545655  1
  Si  Si443  1  0.644917  0.509888  0.545700  1
  Si  Si444  1  0.865213  0.355075  0.545618  1
  Si  Si445  1  0.560126  0.866000  0.498984  1
  Si  Si446  1  0.865882  0.559559  0.498981  1
  Si  Si447  1  0.693913  0.133640  0.498979  1
  Si  Si448  1  0.560238  0.865961  0.530186  1
  Si  Si449  1  0.865932  0.559570  0.530182  1
  Si  Si450  1  0.694002  0.133633  0.530179  1
  Si  Si451  1  0.489812  0.355055  0.613525  1
  Si  Si452  1  0.355118  0.489955  0.613467  1
  Si  Si453  1  0.134768  0.644765  0.613557  1
  Si  Si454  1  0.439768  0.133829  0.628999  1
  Si  Si455  1  0.134135  0.440324  0.628994  1
  Si  Si456  1  0.306017  0.866159  0.629001  1
  Si  Si457  1  0.439630  0.133724  0.660202  1
  Si  Si458  1  0.133976  0.440276  0.660195  1
  Si  Si459  1  0.305833  0.866028  0.660203  1
  Si  Si460  1  0.333485  0.667054  0.595298  1
  Si  Si461  1  0.333520  0.666828  0.693878  1
  Si  Si462  1  0.355276  0.865098  0.743626  1
  Si  Si463  1  0.134957  0.489918  0.743501  1
  Si  Si464  1  0.489987  0.134659  0.743630  1
  Si  Si465  1  0.489803  0.354960  0.675680  1
  Si  Si466  1  0.355048  0.489781  0.675681  1
  Si  Si467  1  0.134698  0.644673  0.675664  1
  Si  Si468  1  0.333659  0.666977  0.725316  1
  Si  Si469  1  0.355254  0.865070  0.805578  1
  Si  Si470  1  0.134876  0.489851  0.805686  1
  Si  Si471  1  0.489986  0.134639  0.805574  1
  Si  Si472  1  0.133675  0.693206  0.758996  1
  Si  Si473  1  0.306323  0.440235  0.759013  1
  Si  Si474  1  0.440397  0.306581  0.759002  1
  Si  Si475  1  0.133717  0.693192  0.790194  1
  Si  Si476  1  0.306460  0.440297  0.790214  1
  Si  Si477  1  0.440519  0.306649  0.790202  1
  Si  Si478  1  0.333440  0.666900  0.823892  1
  Si  Si479  1  0.644668  0.134728  0.613625  1
  Si  Si480  1  0.865114  0.509939  0.613502  1
  Si  Si481  1  0.509949  0.865156  0.613623  1
  Si  Si482  1  0.866349  0.306575  0.628986  1
  Si  Si483  1  0.693563  0.559447  0.628993  1
  Si  Si484  1  0.559646  0.693247  0.628981  1
  Si  Si485  1  0.866206  0.306501  0.660183  1
  Si  Si486  1  0.693435  0.559363  0.660194  1
  Si  Si487  1  0.559537  0.693171  0.660179  1
  Si  Si488  1  0.666468  0.332886  0.595308  1
  Si  Si489  1  0.510132  0.644697  0.743569  1
  Si  Si490  1  0.644890  0.509847  0.743483  1
  Si  Si491  1  0.865281  0.355100  0.743588  1
  Si  Si492  1  0.644606  0.134623  0.675559  1
  Si  Si493  1  0.865057  0.509885  0.675668  1
  Si  Si494  1  0.509874  0.865034  0.675557  1
  Si  Si495  1  0.666577  0.332763  0.725318  1
  Si  Si496  1  0.666539  0.332821  0.693880  1
  Si  Si497  1  0.666440  0.332722  0.823902  1
  Si  Si498  1  0.510148  0.644714  0.805687  1
  Si  Si499  1  0.644917  0.509888  0.805733  1
  Si  Si500  1  0.865213  0.355075  0.805650  1
  Si  Si501  1  0.560126  0.866000  0.759016  1
  Si  Si502  1  0.865882  0.559559  0.759013  1
  Si  Si503  1  0.693913  0.133640  0.759012  1
  Si  Si504  1  0.560238  0.865961  0.790219  1
  Si  Si505  1  0.865932  0.559570  0.790214  1
  Si  Si506  1  0.694002  0.133633  0.790212  1
  H  H507  1  0.333845  0.669631  0.050432  1
  H  H508  1  0.665536  0.329979  0.050451  1
  H  H509  1  0.333845  0.669631  0.848685  1
  H  H510  1  0.665536  0.329979  0.848704  1
