# generated using pymatgen
data_Si10H2O21
_symmetry_space_group_name_H-M   'P 1'
_cell_length_a   13.14623884
_cell_length_b   5.11803959
_cell_length_c   38.83540818
_cell_angle_alpha   90.00000000
_cell_angle_beta   90.00000000
_cell_angle_gamma   90.00000000
_symmetry_Int_Tables_number   1
_chemical_formula_structural   Si10H2O21
_chemical_formula_sum   'Si20 H4 O42'
_cell_volume   2612.96163624
_cell_formula_units_Z   2
loop_
 _symmetry_equiv_pos_site_id
 _symmetry_equiv_pos_as_xyz
  1  'x, y, z'
loop_
 _atom_site_type_symbol
 _atom_site_label
 _atom_site_symmetry_multiplicity
 _atom_site_fract_x
 _atom_site_fract_y
 _atom_site_fract_z
 _atom_site_occupancy
  O  O1  1  0.322965  0.249970  0.590578  1
  O  O2  1  0.822959  0.249758  0.313924  1
  O  O3  1  0.676944  0.249949  0.590580  1
  O  O4  1  0.176937  0.249718  0.313922  1
  O  O5  1  0.322959  0.749906  0.151923  1
  O  O6  1  0.822963  0.749790  0.428584  1
  O  O7  1  0.676939  0.749922  0.151925  1
  O  O8  1  0.176944  0.749769  0.428583  1
  O  O9  1  0.860969  0.499667  0.371260  1
  O  O10  1  0.138932  0.499689  0.371256  1
  O  O11  1  0.860974  -0.000000  0.371245  1
  O  O12  1  0.138926  -0.000000  0.371248  1
  O  O13  1  0.000000  0.249731  0.340995  1
  O  O14  1  -0.000000  0.749711  0.401511  1
  O  O15  1  0.637392  0.998908  0.535591  1
  O  O16  1  0.137404  0.998596  0.258938  1
  O  O17  1  0.362516  0.998903  0.535592  1
  O  O18  1  0.862537  0.998969  0.258918  1
  O  O19  1  0.637373  0.498900  0.206918  1
  O  O20  1  0.137353  0.499181  0.483597  1
  O  O21  1  0.362466  0.498452  0.206888  1
  O  O22  1  0.862524  0.498904  0.483578  1
  O  O23  1  0.362584  -0.000000  0.206958  1
  O  O24  1  0.862545  -0.000000  0.483585  1
  O  O25  1  0.637367  0.000000  0.206932  1
  O  O26  1  0.137406  0.000000  0.483565  1
  O  O27  1  0.362549  0.500611  0.535567  1
  O  O28  1  0.862517  0.500679  0.258927  1
  O  O29  1  0.637364  0.500605  0.535571  1
  O  O30  1  0.137332  0.500301  0.258904  1
  O  O31  1  0.803267  0.249809  0.536456  1
  O  O32  1  0.303262  0.249637  0.259795  1
  O  O33  1  0.196646  0.249857  0.536454  1
  O  O34  1  0.696632  0.249803  0.259797  1
  O  O35  1  0.803262  0.749780  0.206051  1
  O  O36  1  0.303267  0.749891  0.482706  1
  O  O37  1  0.196633  0.749608  0.206049  1
  O  O38  1  0.696644  0.749831  0.482708  1
  O  O39  1  0.499956  0.749890  0.502801  1
  O  O40  1  -0.000000  0.749721  0.226144  1
  O  O41  1  0.499947  0.249789  0.239702  1
  O  O42  1  0.000000  0.249818  0.516361  1
  Si  Si43  1  0.882652  0.249708  0.349082  1
  Si  Si44  1  0.117248  0.249712  0.349081  1
  Si  Si45  1  0.882650  0.749708  0.393423  1
  Si  Si46  1  0.117254  0.749711  0.393421  1
  Si  Si47  1  0.690136  0.249811  0.550331  1
  Si  Si48  1  0.190130  0.249558  0.273670  1
  Si  Si49  1  0.309778  0.249824  0.550329  1
  Si  Si50  1  0.809764  0.249796  0.273672  1
  Si  Si51  1  0.690129  0.749786  0.192177  1
  Si  Si52  1  0.190135  0.749937  0.468832  1
  Si  Si53  1  0.309768  0.749515  0.192176  1
  Si  Si54  1  0.809777  0.749783  0.468833  1
  Si  Si55  1  0.383357  0.749827  0.513096  1
  Si  Si56  1  0.883343  0.749793  0.236437  1
  Si  Si57  1  0.616557  0.749813  0.513097  1
  Si  Si58  1  0.116552  0.749557  0.236437  1
  Si  Si59  1  0.383345  0.249519  0.229410  1
  Si  Si60  1  0.883355  0.249781  0.506068  1
  Si  Si61  1  0.616551  0.249787  0.229410  1
  Si  Si62  1  0.116555  0.249933  0.506067  1
  H  H63  1  0.322965  0.249970  0.613753  1
  H  H64  1  0.676944  0.249949  0.613755  1
  H  H65  1  0.322959  0.749906  0.128748  1
  H  H66  1  0.676939  0.749922  0.128750  1
