# generated using pymatgen
data_Si6H2O13
_symmetry_space_group_name_H-M   'P 1'
_cell_length_a   12.26212939
_cell_length_b   20.51521873
_cell_length_c   38.12997112
_cell_angle_alpha   90.00000000
_cell_angle_beta   120.00000000
_cell_angle_gamma   90.00000000
_symmetry_Int_Tables_number   1
_chemical_formula_structural   Si6H2O13
_chemical_formula_sum   'Si48 H16 O104'
_cell_volume   8306.9032877
_cell_formula_units_Z   8
loop_
 _symmetry_equiv_pos_site_id
 _symmetry_equiv_pos_as_xyz
  1  'x, y, z'
loop_
 _atom_site_type_symbol
 _atom_site_label
 _atom_site_symmetry_multiplicity
 _atom_site_fract_x
 _atom_site_fract_y
 _atom_site_fract_z
 _atom_site_occupancy
  O  O1  1  0.127267  0.253695  0.307592  1
  O  O2  1  0.117981  0.009478  0.310460  1
  O  O3  1  0.020658  0.560329  0.246132  1
  O  O4  1  0.315931  0.561201  0.341567  1
  O  O5  1  0.221692  0.625654  0.276726  1
  O  O6  1  0.461076  0.628103  0.200471  1
  O  O7  1  0.077324  0.628869  0.199997  1
  O  O8  1  0.461203  0.627488  0.322960  1
  O  O9  1  0.117070  0.491670  0.310231  1
  O  O10  1  0.018360  0.936216  0.248270  1
  O  O11  1  0.312811  0.937234  0.342831  1
  O  O12  1  0.015712  0.685442  0.247838  1
  O  O13  1  0.314182  0.686540  0.342406  1
  O  O14  1  0.020651  0.810896  0.246432  1
  O  O15  1  0.316002  0.812083  0.342936  1
  O  O16  1  0.222602  0.874209  0.277517  1
  O  O17  1  0.460813  0.873046  0.199924  1
  O  O18  1  0.079774  0.877763  0.200638  1
  O  O19  1  0.461264  0.875998  0.324063  1
  O  O20  1  0.111747  0.750114  0.312448  1
  O  O21  1  0.682602  0.060922  0.240107  1
  O  O22  1  0.979293  0.060270  0.240244  1
  O  O23  1  0.686626  0.186142  0.242648  1
  O  O24  1  0.984612  0.185539  0.242956  1
  O  O25  1  0.684669  0.311658  0.240568  1
  O  O26  1  0.978997  0.311026  0.240189  1
  O  O27  1  0.778959  0.125812  0.206359  1
  O  O28  1  0.540466  0.128442  0.175020  1
  O  O29  1  0.920542  0.127911  0.175228  1
  O  O30  1  0.888909  0.249868  0.277078  1
  O  O31  1  0.745503  0.253101  0.307657  1
  O  O32  1  0.759951  0.009299  0.309975  1
  O  O33  1  0.662935  0.559762  0.341587  1
  O  O34  1  0.663364  0.560903  0.246493  1
  O  O35  1  0.685759  0.436928  0.241145  1
  O  O36  1  0.981250  0.436325  0.241193  1
  O  O37  1  0.557563  0.625620  0.277228  1
  O  O38  1  0.776892  0.374143  0.204984  1
  O  O39  1  0.537427  0.373562  0.175152  1
  O  O40  1  0.923380  0.373490  0.175024  1
  O  O41  1  0.766264  0.491555  0.310423  1
  O  O42  1  0.880391  0.509305  0.271038  1
  O  O43  1  0.669071  0.935651  0.342695  1
  O  O44  1  0.665712  0.936956  0.247332  1
  O  O45  1  0.671947  0.684935  0.343531  1
  O  O46  1  0.671035  0.686087  0.247780  1
  O  O47  1  0.661479  0.810332  0.341623  1
  O  O48  1  0.664908  0.811611  0.247239  1
  O  O49  1  0.554079  0.874045  0.276867  1
  O  O50  1  0.777600  0.749770  0.312848  1
  O  O51  1  0.873778  0.753038  0.267090  1
  O  O52  1  0.881099  0.991412  0.272858  1
  O  O53  1  0.335707  0.061269  0.354890  1
  O  O54  1  0.335274  0.063704  0.450006  1
  O  O55  1  0.329022  0.186410  0.353382  1
  O  O56  1  0.334857  0.189091  0.449573  1
  O  O57  1  0.338741  0.311825  0.355032  1
  O  O58  1  0.328735  0.314676  0.449091  1
  O  O59  1  0.443995  0.126460  0.419537  1
  O  O60  1  0.223318  0.251143  0.384007  1
  O  O61  1  0.125455  0.247541  0.429117  1
  O  O62  1  0.119133  0.010680  0.425373  1
  O  O63  1  0.315127  0.563756  0.455883  1
  O  O64  1  0.020203  0.561539  0.456607  1
  O  O65  1  0.331176  0.437178  0.354402  1
  O  O66  1  0.335200  0.439876  0.449825  1
  O  O67  1  0.221557  0.626549  0.491176  1
  O  O68  1  0.443621  0.374962  0.420008  1
  O  O69  1  0.461076  0.628103  0.521980  1
  O  O70  1  0.077324  0.628869  0.521506  1
  O  O71  1  0.118667  0.492351  0.424372  1
  O  O72  1  0.237102  0.510355  0.386358  1
  O  O73  1  0.315900  0.939782  0.456456  1
  O  O74  1  0.018549  0.937299  0.455110  1
  O  O75  1  0.314622  0.689073  0.455996  1
  O  O76  1  0.015745  0.686566  0.454194  1
  O  O77  1  0.313034  0.814597  0.454234  1
  O  O78  1  0.020127  0.811922  0.457070  1
  O  O79  1  0.222376  0.874845  0.491092  1
  O  O80  1  0.460813  0.873046  0.521433  1
  O  O81  1  0.079774  0.877763  0.522147  1
  O  O82  1  0.110489  0.751144  0.419994  1
  O  O83  1  0.252397  0.748037  0.388933  1
  O  O84  1  0.235510  0.992518  0.386778  1
  O  O85  1  0.978528  0.061367  0.450209  1
  O  O86  1  0.682327  0.059778  0.355183  1
  O  O87  1  0.980725  0.186758  0.449341  1
  O  O88  1  0.686637  0.184900  0.353339  1
  O  O89  1  0.983285  0.312414  0.449452  1
  O  O90  1  0.681675  0.310391  0.355109  1
  O  O91  1  0.776605  0.125542  0.419689  1
  O  O92  1  0.540466  0.128442  0.496529  1
  O  O93  1  0.920542  0.127911  0.496737  1
  O  O94  1  0.537807  0.128123  0.373015  1
  O  O95  1  0.887339  0.249787  0.384081  1
  O  O96  1  0.981902  0.437640  0.449478  1
  O  O97  1  0.688902  0.435733  0.354154  1
  O  O98  1  0.779280  0.374027  0.419870  1
  O  O99  1  0.537427  0.373562  0.496661  1
  O  O100  1  0.923380  0.373490  0.496533  1
  O  O101  1  0.540339  0.378313  0.374176  1
  O  O102  1  0.881565  0.509540  0.386646  1
  O  O103  1  0.872377  0.753735  0.389388  1
  O  O104  1  0.882602  0.991984  0.386190  1
  Si  Si105  1  0.253812  0.250707  0.348627  1
  Si  Si106  1  0.251378  0.000000  0.348708  1
  Si  Si107  1  0.081113  0.624610  0.241393  1
  Si  Si108  1  0.332408  0.624658  0.321798  1
  Si  Si109  1  0.251388  0.500159  0.348146  1
  Si  Si110  1  0.082489  0.874893  0.241901  1
  Si  Si111  1  0.332221  0.875107  0.322731  1
  Si  Si112  1  0.251966  0.749404  0.348005  1
  Si  Si113  1  0.001198  0.749716  0.267349  1
  Si  Si114  1  0.667980  0.124850  0.215638  1
  Si  Si115  1  0.918952  0.124390  0.215799  1
  Si  Si116  1  0.998951  0.249747  0.267231  1
  Si  Si117  1  0.748282  0.249985  0.267267  1
  Si  Si118  1  0.746830  0.249386  0.348699  1
  Si  Si119  1  0.587113  0.623957  0.322280  1
  Si  Si120  1  0.586954  0.624756  0.241642  1
  Si  Si121  1  0.667283  0.374568  0.215026  1
  Si  Si122  1  0.917604  0.374224  0.214906  1
  Si  Si123  1  0.747865  0.499618  0.266948  1
  Si  Si124  1  0.748946  0.499133  0.348222  1
  Si  Si125  1  0.000000  0.499300  0.266812  1
  Si  Si126  1  0.585142  0.874269  0.322133  1
  Si  Si127  1  0.585128  0.874416  0.241583  1
  Si  Si128  1  0.746700  0.749427  0.348167  1
  Si  Si129  1  0.747704  0.749867  0.267701  1
  Si  Si130  1  0.746291  0.000000  0.267225  1
  Si  Si131  1  -0.000000  0.000000  0.267622  1
  Si  Si132  1  0.747409  0.000000  0.348505  1
  Si  Si133  1  0.412872  0.125062  0.374298  1
  Si  Si134  1  0.414951  0.126402  0.455222  1
  Si  Si135  1  0.252300  0.250892  0.429032  1
  Si  Si136  1  0.252511  0.001735  0.429999  1
  Si  Si137  1  0.332272  0.626325  0.481712  1
  Si  Si138  1  0.080970  0.625380  0.481282  1
  Si  Si139  1  0.414697  0.375732  0.375005  1
  Si  Si140  1  0.412458  0.376171  0.455219  1
  Si  Si141  1  0.252528  0.501683  0.429418  1
  Si  Si142  1  0.000000  0.500241  0.429552  1
  Si  Si143  1  0.332137  0.876006  0.481200  1
  Si  Si144  1  0.082400  0.875608  0.481750  1
  Si  Si145  1  0.250772  0.750935  0.429508  1
  Si  Si146  1  0.000000  0.750741  0.429874  1
  Si  Si147  1  0.916799  0.124887  0.455307  1
  Si  Si148  1  0.666891  0.124089  0.374455  1
  Si  Si149  1  0.000000  -0.000000  0.429575  1
  Si  Si150  1  0.998362  0.249276  0.429102  1
  Si  Si151  1  0.919828  0.374782  0.455135  1
  Si  Si152  1  0.668342  0.374742  0.374860  1
  H  H153  1  0.461076  0.628103  0.176868  1
  H  H154  1  0.077324  0.628869  0.176393  1
  H  H155  1  0.460813  0.873046  0.176320  1
  H  H156  1  0.079774  0.877763  0.177035  1
  H  H157  1  0.540466  0.128442  0.151416  1
  H  H158  1  0.920542  0.127911  0.151625  1
  H  H159  1  0.537427  0.373562  0.151548  1
  H  H160  1  0.923380  0.373490  0.151421  1
  H  H161  1  0.461076  0.628103  0.545584  1
  H  H162  1  0.077324  0.628869  0.545109  1
  H  H163  1  0.460813  0.873046  0.545036  1
  H  H164  1  0.079774  0.877763  0.545751  1
  H  H165  1  0.540466  0.128442  0.520132  1
  H  H166  1  0.920542  0.127911  0.520341  1
  H  H167  1  0.537427  0.373562  0.520264  1
  H  H168  1  0.923380  0.373490  0.520137  1
