# generated using pymatgen
data_Si12H2O25
_symmetry_space_group_name_H-M   'P 1'
_cell_length_a   13.53865779
_cell_length_b   29.44536118
_cell_length_c   55.14075547
_cell_angle_alpha   90.00000000
_cell_angle_beta   120.00000000
_cell_angle_gamma   90.00000000
_symmetry_Int_Tables_number   1
_chemical_formula_structural   Si12H2O25
_chemical_formula_sum   'Si144 H24 O300'
_cell_volume   19036.8829826
_cell_formula_units_Z   12
loop_
 _symmetry_equiv_pos_site_id
 _symmetry_equiv_pos_as_xyz
  1  'x, y, z'
loop_
 _atom_site_type_symbol
 _atom_site_label
 _atom_site_symmetry_multiplicity
 _atom_site_fract_x
 _atom_site_fract_y
 _atom_site_fract_z
 _atom_site_occupancy
  O  O1  1  0.116655  0.186724  0.121029  1
  O  O2  1  0.766399  0.186721  0.121053  1
  O  O3  1  0.116649  0.313314  0.121027  1
  O  O4  1  0.766396  0.313315  0.121052  1
  O  O5  1  0.745228  0.250016  0.149586  1
  O  O6  1  0.253973  0.250019  0.149584  1
  O  O7  1  0.333187  0.166693  0.156568  1
  O  O8  1  0.694458  0.166675  0.156565  1
  O  O9  1  0.638171  0.000000  0.149747  1
  O  O10  1  0.361343  0.000000  0.149749  1
  O  O11  1  0.412245  0.083433  0.169124  1
  O  O12  1  0.920937  0.083384  0.231603  1
  O  O13  1  0.783412  0.020140  0.202875  1
  O  O14  1  0.566039  0.025552  0.256218  1
  O  O15  1  0.867134  0.025526  0.256212  1
  O  O16  1  0.432502  0.020173  0.202875  1
  O  O17  1  0.566121  0.025550  0.182331  1
  O  O18  1  0.465539  0.141459  0.206903  1
  O  O19  1  0.767069  0.141450  0.206897  1
  O  O20  1  0.549532  0.146861  0.174111  1
  O  O21  1  0.549430  0.146873  0.260303  1
  O  O22  1  0.900662  0.146822  0.260300  1
  O  O23  1  -0.000000  0.250017  0.212222  1
  O  O24  1  0.253863  0.250020  0.212195  1
  O  O25  1  0.116536  0.186725  0.207020  1
  O  O26  1  0.116530  0.313312  0.207019  1
  O  O27  1  0.972012  0.166656  0.224697  1
  O  O28  1  0.333078  0.166703  0.224691  1
  O  O29  1  0.899285  0.191988  0.174396  1
  O  O30  1  0.200885  0.191981  0.174377  1
  O  O31  1  0.899280  0.308044  0.174394  1
  O  O32  1  0.200877  0.308056  0.174375  1
  O  O33  1  0.412163  0.083441  0.231611  1
  O  O34  1  0.666360  0.083422  0.169129  1
  O  O35  1  0.361313  0.000000  0.238532  1
  O  O36  1  0.361333  0.499994  0.149739  1
  O  O37  1  0.638162  0.499993  0.149738  1
  O  O38  1  0.694451  0.333355  0.156562  1
  O  O39  1  0.333179  0.333343  0.156565  1
  O  O40  1  0.566030  0.474487  0.256210  1
  O  O41  1  0.000000  0.500083  0.238521  1
  O  O42  1  0.566113  0.474485  0.182322  1
  O  O43  1  0.972003  0.333378  0.224695  1
  O  O44  1  0.867122  0.474511  0.256203  1
  O  O45  1  0.767059  0.358585  0.206893  1
  O  O46  1  0.465533  0.358579  0.206900  1
  O  O47  1  0.900648  0.353214  0.260295  1
  O  O48  1  0.549419  0.353168  0.260300  1
  O  O49  1  0.232833  0.641470  0.264170  1
  O  O50  1  0.549524  0.353173  0.174108  1
  O  O51  1  0.412153  0.416600  0.231605  1
  O  O52  1  0.666350  0.416611  0.169122  1
  O  O53  1  0.412239  0.416602  0.169119  1
  O  O54  1  0.920929  0.416650  0.231597  1
  O  O55  1  0.078841  0.583478  0.251047  1
  O  O56  1  0.333332  0.583432  0.251048  1
  O  O57  1  0.432495  0.479866  0.202867  1
  O  O58  1  0.783404  0.479894  0.202866  1
  O  O59  1  0.216211  0.520181  0.256035  1
  O  O60  1  0.361306  0.500018  0.238524  1
  O  O61  1  0.333069  0.333338  0.224689  1
  O  O62  1  0.883203  0.686719  0.178468  1
  O  O63  1  0.000000  0.750020  0.212165  1
  O  O64  1  0.100556  0.691973  0.199159  1
  O  O65  1  0.027914  0.833311  0.231637  1
  O  O66  1  0.305417  0.833342  0.231661  1
  O  O67  1  0.233670  0.813314  0.178500  1
  O  O68  1  0.883210  0.813320  0.178470  1
  O  O69  1  0.078856  0.916560  0.251054  1
  O  O70  1  0.233666  0.686721  0.178498  1
  O  O71  1  0.100563  0.808069  0.199162  1
  O  O72  1  0.333340  0.916610  0.251053  1
  O  O73  1  0.232845  0.858567  0.264173  1
  O  O74  1  0.216222  0.979858  0.256044  1
  O  O75  1  0.254620  0.750020  0.212210  1
  O  O76  1  0.305409  0.666699  0.231659  1
  O  O77  1  0.000000  0.000000  0.238529  1
  O  O78  1  0.027905  0.666728  0.231634  1
  O  O79  1  0.745365  0.250020  0.332871  1
  O  O80  1  0.000000  0.250020  0.332839  1
  O  O81  1  0.116655  0.186724  0.366561  1
  O  O82  1  0.766399  0.186721  0.366585  1
  O  O83  1  0.116649  0.313314  0.366559  1
  O  O84  1  0.766396  0.313315  0.366584  1
  O  O85  1  0.694510  0.166708  0.313417  1
  O  O86  1  0.971956  0.166677  0.313403  1
  O  O87  1  0.899396  0.191986  0.345882  1
  O  O88  1  0.899389  0.308055  0.345879  1
  O  O89  1  0.920833  0.083412  0.293992  1
  O  O90  1  0.666352  0.083455  0.293994  1
  O  O91  1  0.783315  0.020163  0.288985  1
  O  O92  1  0.766970  0.141460  0.280889  1
  O  O93  1  0.745228  0.250016  0.395118  1
  O  O94  1  0.253973  0.250019  0.395116  1
  O  O95  1  0.638224  0.000000  0.306505  1
  O  O96  1  0.694501  0.333333  0.313415  1
  O  O97  1  0.920819  0.416626  0.293986  1
  O  O98  1  0.666343  0.416586  0.293988  1
  O  O99  1  0.587517  0.583393  0.313435  1
  O  O100  1  0.333296  0.583404  0.375914  1
  O  O101  1  0.587420  0.583387  0.375916  1
  O  O102  1  0.078744  0.583453  0.313430  1
  O  O103  1  0.783304  0.479876  0.288976  1
  O  O104  1  0.567000  0.520130  0.342147  1
  O  O105  1  0.216102  0.520162  0.342150  1
  O  O106  1  0.000000  0.500049  0.306486  1
  O  O107  1  0.638217  0.499978  0.306496  1
  O  O108  1  0.433502  0.525525  0.288807  1
  O  O109  1  0.132406  0.525570  0.288810  1
  O  O110  1  0.433398  0.525527  0.362694  1
  O  O111  1  0.232731  0.641463  0.338153  1
  O  O112  1  0.534293  0.641435  0.338160  1
  O  O113  1  0.766959  0.358577  0.280885  1
  O  O114  1  0.450383  0.646835  0.284761  1
  O  O115  1  0.099117  0.646893  0.284749  1
  O  O116  1  0.450277  0.646827  0.370944  1
  O  O117  1  0.666634  0.666657  0.388493  1
  O  O118  1  0.971949  0.333362  0.313400  1
  O  O119  1  0.666743  0.666665  0.320365  1
  O  O120  1  -0.000000  0.750017  0.332874  1
  O  O121  1  0.745879  0.750020  0.332846  1
  O  O122  1  0.883290  0.686724  0.338059  1
  O  O123  1  0.883297  0.813313  0.338061  1
  O  O124  1  0.027826  0.833330  0.320375  1
  O  O125  1  0.666643  0.833379  0.388496  1
  O  O126  1  0.305421  0.833362  0.388493  1
  O  O127  1  0.666753  0.833377  0.320368  1
  O  O128  1  0.100602  0.691981  0.370689  1
  O  O129  1  0.798835  0.691997  0.370667  1
  O  O130  1  0.100606  0.808051  0.370691  1
  O  O131  1  0.798844  0.808041  0.370669  1
  O  O132  1  0.587528  0.916649  0.313441  1
  O  O133  1  0.333306  0.916628  0.375921  1
  O  O134  1  0.587425  0.916648  0.375921  1
  O  O135  1  0.078752  0.916582  0.313436  1
  O  O136  1  0.567007  0.979909  0.342155  1
  O  O137  1  0.216110  0.979872  0.342159  1
  O  O138  1  0.433510  0.974514  0.288815  1
  O  O139  1  0.132418  0.974467  0.288819  1
  O  O140  1  0.433406  0.974508  0.362703  1
  O  O141  1  0.232741  0.858572  0.338157  1
  O  O142  1  0.534300  0.858603  0.338163  1
  O  O143  1  0.450395  0.853206  0.284764  1
  O  O144  1  0.099132  0.853143  0.284753  1
  O  O145  1  0.450285  0.853207  0.370947  1
  O  O146  1  0.000000  0.000000  0.306494  1
  O  O147  1  0.027816  0.666703  0.320372  1
  O  O148  1  0.305413  0.666668  0.388491  1
  O  O149  1  0.333187  0.166693  0.402100  1
  O  O150  1  0.694458  0.166675  0.402097  1
  O  O151  1  0.638171  0.000000  0.395279  1
  O  O152  1  0.361343  0.000000  0.395281  1
  O  O153  1  0.412245  0.083433  0.414656  1
  O  O154  1  0.920937  0.083384  0.477135  1
  O  O155  1  0.783412  0.020140  0.448407  1
  O  O156  1  0.566039  0.025552  0.501750  1
  O  O157  1  0.867134  0.025526  0.501744  1
  O  O158  1  0.432502  0.020173  0.448407  1
  O  O159  1  0.566121  0.025550  0.427863  1
  O  O160  1  0.465539  0.141459  0.452435  1
  O  O161  1  0.767069  0.141450  0.452429  1
  O  O162  1  0.549532  0.146861  0.419643  1
  O  O163  1  0.549430  0.146873  0.505835  1
  O  O164  1  0.900662  0.146822  0.505831  1
  O  O165  1  0.000000  0.250017  0.457754  1
  O  O166  1  0.253863  0.250020  0.457727  1
  O  O167  1  0.116536  0.186725  0.452552  1
  O  O168  1  0.116530  0.313312  0.452551  1
  O  O169  1  0.972012  0.166656  0.470229  1
  O  O170  1  0.333078  0.166703  0.470223  1
  O  O171  1  0.899285  0.191988  0.419928  1
  O  O172  1  0.200885  0.191981  0.419909  1
  O  O173  1  0.899280  0.308044  0.419926  1
  O  O174  1  0.200877  0.308056  0.419907  1
  O  O175  1  0.412163  0.083441  0.477143  1
  O  O176  1  0.666360  0.083422  0.414661  1
  O  O177  1  0.361313  0.000000  0.484064  1
  O  O178  1  0.361333  0.499994  0.395271  1
  O  O179  1  0.638162  0.499993  0.395270  1
  O  O180  1  0.694451  0.333355  0.402094  1
  O  O181  1  0.333179  0.333343  0.402097  1
  O  O182  1  0.566030  0.474487  0.501742  1
  O  O183  1  0.000000  0.500083  0.484053  1
  O  O184  1  0.566113  0.474485  0.427854  1
  O  O185  1  0.972003  0.333378  0.470227  1
  O  O186  1  0.867122  0.474511  0.501735  1
  O  O187  1  0.767059  0.358585  0.452425  1
  O  O188  1  0.465533  0.358579  0.452432  1
  O  O189  1  0.900648  0.353214  0.505827  1
  O  O190  1  0.549419  0.353168  0.505832  1
  O  O191  1  0.232833  0.641470  0.509702  1
  O  O192  1  0.549524  0.353173  0.419640  1
  O  O193  1  0.412153  0.416600  0.477137  1
  O  O194  1  0.666350  0.416611  0.414654  1
  O  O195  1  0.412239  0.416602  0.414651  1
  O  O196  1  0.920929  0.416650  0.477129  1
  O  O197  1  0.078841  0.583478  0.496579  1
  O  O198  1  0.333332  0.583432  0.496580  1
  O  O199  1  0.432495  0.479866  0.448399  1
  O  O200  1  0.783404  0.479894  0.448398  1
  O  O201  1  0.216211  0.520181  0.501567  1
  O  O202  1  0.361306  0.500018  0.484056  1
  O  O203  1  0.333069  0.333338  0.470220  1
  O  O204  1  0.254681  0.750015  0.395476  1
  O  O205  1  0.745773  0.750019  0.395473  1
  O  O206  1  0.883203  0.686719  0.424000  1
  O  O207  1  0.000000  0.750020  0.457697  1
  O  O208  1  0.100556  0.691973  0.444691  1
  O  O209  1  0.027914  0.833311  0.477169  1
  O  O210  1  0.305417  0.833342  0.477193  1
  O  O211  1  0.233670  0.813314  0.424032  1
  O  O212  1  0.883210  0.813320  0.424002  1
  O  O213  1  0.078856  0.916560  0.496586  1
  O  O214  1  0.233666  0.686721  0.424030  1
  O  O215  1  0.100563  0.808069  0.444694  1
  O  O216  1  0.333340  0.916610  0.496585  1
  O  O217  1  0.232845  0.858567  0.509705  1
  O  O218  1  0.216222  0.979858  0.501576  1
  O  O219  1  0.254620  0.750020  0.457742  1
  O  O220  1  0.305409  0.666699  0.477191  1
  O  O221  1  -0.000000  0.000000  0.484061  1
  O  O222  1  0.027905  0.666728  0.477166  1
  O  O223  1  0.745365  0.250020  0.578403  1
  O  O224  1  0.000000  0.250020  0.578371  1
  O  O225  1  0.116655  0.186724  0.612093  1
  O  O226  1  0.766399  0.186721  0.612117  1
  O  O227  1  0.116649  0.313314  0.612091  1
  O  O228  1  0.766396  0.313315  0.612116  1
  O  O229  1  0.694510  0.166708  0.558949  1
  O  O230  1  0.971956  0.166677  0.558935  1
  O  O231  1  0.899396  0.191986  0.591414  1
  O  O232  1  0.899389  0.308055  0.591411  1
  O  O233  1  0.920833  0.083412  0.539524  1
  O  O234  1  0.666352  0.083455  0.539526  1
  O  O235  1  0.783315  0.020163  0.534517  1
  O  O236  1  0.766970  0.141460  0.526421  1
  O  O237  1  0.638224  0.000000  0.552037  1
  O  O238  1  0.694501  0.333333  0.558947  1
  O  O239  1  0.920819  0.416626  0.539517  1
  O  O240  1  0.666343  0.416586  0.539520  1
  O  O241  1  0.587517  0.583393  0.558967  1
  O  O242  1  0.333296  0.583404  0.621446  1
  O  O243  1  0.587420  0.583387  0.621448  1
  O  O244  1  0.078744  0.583453  0.558962  1
  O  O245  1  0.783304  0.479876  0.534508  1
  O  O246  1  0.567000  0.520130  0.587679  1
  O  O247  1  0.216102  0.520162  0.587682  1
  O  O248  1  0.000000  0.500049  0.552017  1
  O  O249  1  0.638217  0.499978  0.552028  1
  O  O250  1  0.433502  0.525525  0.534339  1
  O  O251  1  0.132406  0.525570  0.534342  1
  O  O252  1  0.433398  0.525527  0.608226  1
  O  O253  1  0.232731  0.641463  0.583685  1
  O  O254  1  0.534293  0.641435  0.583692  1
  O  O255  1  0.766959  0.358577  0.526417  1
  O  O256  1  0.450383  0.646835  0.530293  1
  O  O257  1  0.099117  0.646893  0.530281  1
  O  O258  1  0.450277  0.646827  0.616476  1
  O  O259  1  0.666634  0.666657  0.634025  1
  O  O260  1  0.971949  0.333362  0.558932  1
  O  O261  1  0.666743  0.666665  0.565897  1
  O  O262  1  0.000000  0.750017  0.578406  1
  O  O263  1  0.745879  0.750020  0.578378  1
  O  O264  1  0.883290  0.686724  0.583591  1
  O  O265  1  0.883297  0.813313  0.583593  1
  O  O266  1  0.027826  0.833330  0.565906  1
  O  O267  1  0.666643  0.833379  0.634028  1
  O  O268  1  0.305421  0.833362  0.634025  1
  O  O269  1  0.666753  0.833377  0.565900  1
  O  O270  1  0.100602  0.691981  0.616221  1
  O  O271  1  0.798835  0.691997  0.616199  1
  O  O272  1  0.100606  0.808051  0.616223  1
  O  O273  1  0.798844  0.808041  0.616201  1
  O  O274  1  0.587528  0.916649  0.558973  1
  O  O275  1  0.333306  0.916628  0.621453  1
  O  O276  1  0.587425  0.916648  0.621453  1
  O  O277  1  0.078752  0.916582  0.558968  1
  O  O278  1  0.567007  0.979909  0.587687  1
  O  O279  1  0.216110  0.979872  0.587691  1
  O  O280  1  0.433510  0.974514  0.534347  1
  O  O281  1  0.132418  0.974467  0.534351  1
  O  O282  1  0.433406  0.974508  0.608235  1
  O  O283  1  0.232741  0.858572  0.583689  1
  O  O284  1  0.534300  0.858603  0.583695  1
  O  O285  1  0.450395  0.853206  0.530296  1
  O  O286  1  0.099132  0.853143  0.530285  1
  O  O287  1  0.450285  0.853207  0.616479  1
  O  O288  1  0.000000  0.000000  0.552026  1
  O  O289  1  0.027816  0.666703  0.565904  1
  O  O290  1  0.305413  0.666668  0.634023  1
  O  O291  1  0.638171  0.000000  0.640811  1
  O  O292  1  0.361343  0.000000  0.640813  1
  O  O293  1  0.361333  0.499994  0.640803  1
  O  O294  1  0.638162  0.499993  0.640802  1
  O  O295  1  0.254681  0.750015  0.641008  1
  O  O296  1  0.745773  0.750019  0.641005  1
  O  O297  1  0.883203  0.686719  0.669532  1
  O  O298  1  0.233670  0.813314  0.669564  1
  O  O299  1  0.883210  0.813320  0.669534  1
  O  O300  1  0.233666  0.686721  0.669562  1
  Si  Si301  1  0.227443  0.197785  0.149737  1
  Si  Si302  1  0.772401  0.197782  0.149747  1
  Si  Si303  1  0.772398  0.302249  0.149745  1
  Si  Si304  1  0.227435  0.302252  0.149735  1
  Si  Si305  1  0.894125  0.031150  0.231639  1
  Si  Si306  1  0.666694  0.135668  0.175751  1
  Si  Si307  1  0.000000  0.302250  0.205549  1
  Si  Si308  1  0.227356  0.197787  0.205531  1
  Si  Si309  1  0.000000  0.197783  0.205551  1
  Si  Si310  1  0.439050  0.031193  0.175707  1
  Si  Si311  1  0.666228  0.031188  0.175710  1
  Si  Si312  1  0.438979  0.031195  0.231642  1
  Si  Si313  1  0.227351  0.302252  0.205529  1
  Si  Si314  1  0.439052  0.135673  0.175756  1
  Si  Si315  1  0.893941  0.135631  0.231527  1
  Si  Si316  1  0.438965  0.135675  0.231532  1
  Si  Si317  1  0.438969  0.468846  0.231634  1
  Si  Si318  1  0.439043  0.468842  0.175700  1
  Si  Si319  1  0.105521  0.531229  0.257619  1
  Si  Si320  1  0.894115  0.468886  0.231630  1
  Si  Si321  1  0.333150  0.635665  0.257647  1
  Si  Si322  1  0.333365  0.531183  0.257616  1
  Si  Si323  1  0.893930  0.364404  0.231523  1
  Si  Si324  1  0.666686  0.364365  0.175746  1
  Si  Si325  1  0.438956  0.364365  0.231529  1
  Si  Si326  1  0.105924  0.635710  0.257637  1
  Si  Si327  1  0.666220  0.468845  0.175701  1
  Si  Si328  1  0.439045  0.364363  0.175753  1
  Si  Si329  1  0.333375  0.968857  0.257624  1
  Si  Si330  1  0.227494  0.802255  0.205697  1
  Si  Si331  1  -0.000000  0.697786  0.205662  1
  Si  Si332  1  0.227487  0.697785  0.205695  1
  Si  Si333  1  -0.000000  0.802254  0.205664  1
  Si  Si334  1  0.105533  0.968808  0.257628  1
  Si  Si335  1  0.105937  0.864327  0.257641  1
  Si  Si336  1  0.333161  0.864375  0.257650  1
  Si  Si337  1  0.893852  0.135651  0.287411  1
  Si  Si338  1  0.666655  0.135689  0.287416  1
  Si  Si339  1  0.000000  0.302253  0.339354  1
  Si  Si340  1  0.894031  0.031170  0.287404  1
  Si  Si341  1  0.772509  0.197787  0.339381  1
  Si  Si342  1  0.000000  0.197787  0.339357  1
  Si  Si343  1  0.666191  0.031207  0.287409  1
  Si  Si344  1  0.772504  0.302254  0.339378  1
  Si  Si345  1  0.560762  0.635637  0.369304  1
  Si  Si346  1  0.333097  0.635648  0.369298  1
  Si  Si347  1  0.560853  0.635637  0.313529  1
  Si  Si348  1  0.105844  0.635690  0.313521  1
  Si  Si349  1  0.105428  0.531209  0.313385  1
  Si  Si350  1  0.893840  0.364386  0.287407  1
  Si  Si351  1  0.666646  0.364351  0.287413  1
  Si  Si352  1  0.894018  0.468867  0.287395  1
  Si  Si353  1  0.666182  0.468833  0.287401  1
  Si  Si354  1  0.560567  0.531155  0.313385  1
  Si  Si355  1  0.333305  0.531169  0.369319  1
  Si  Si356  1  0.560471  0.531157  0.369316  1
  Si  Si357  1  0.105436  0.968827  0.313393  1
  Si  Si358  1  0.000000  0.697784  0.339539  1
  Si  Si359  1  0.560768  0.864399  0.369307  1
  Si  Si360  1  0.333107  0.864385  0.369302  1
  Si  Si361  1  0.772399  0.697787  0.339518  1
  Si  Si362  1  0.000000  0.802249  0.339540  1
  Si  Si363  1  0.560861  0.864404  0.313533  1
  Si  Si364  1  0.105855  0.864345  0.313525  1
  Si  Si365  1  0.772405  0.802252  0.339520  1
  Si  Si366  1  0.560576  0.968886  0.313393  1
  Si  Si367  1  0.333314  0.968864  0.369328  1
  Si  Si368  1  0.560478  0.968878  0.369324  1
  Si  Si369  1  0.227443  0.197785  0.395269  1
  Si  Si370  1  0.772401  0.197782  0.395278  1
  Si  Si371  1  0.772398  0.302249  0.395277  1
  Si  Si372  1  0.227435  0.302252  0.395267  1
  Si  Si373  1  0.894125  0.031150  0.477171  1
  Si  Si374  1  0.666694  0.135668  0.421283  1
  Si  Si375  1  -0.000000  0.302250  0.451081  1
  Si  Si376  1  0.227356  0.197787  0.451063  1
  Si  Si377  1  0.000000  0.197783  0.451083  1
  Si  Si378  1  0.439050  0.031193  0.421239  1
  Si  Si379  1  0.666228  0.031188  0.421242  1
  Si  Si380  1  0.438979  0.031195  0.477174  1
  Si  Si381  1  0.227351  0.302252  0.451061  1
  Si  Si382  1  0.439052  0.135673  0.421288  1
  Si  Si383  1  0.893941  0.135631  0.477059  1
  Si  Si384  1  0.438965  0.135675  0.477064  1
  Si  Si385  1  0.438969  0.468846  0.477166  1
  Si  Si386  1  0.439043  0.468842  0.421231  1
  Si  Si387  1  0.105521  0.531229  0.503151  1
  Si  Si388  1  0.894115  0.468886  0.477162  1
  Si  Si389  1  0.333150  0.635665  0.503179  1
  Si  Si390  1  0.333365  0.531183  0.503148  1
  Si  Si391  1  0.893930  0.364404  0.477055  1
  Si  Si392  1  0.666686  0.364365  0.421278  1
  Si  Si393  1  0.438956  0.364365  0.477061  1
  Si  Si394  1  0.105924  0.635710  0.503169  1
  Si  Si395  1  0.666220  0.468845  0.421233  1
  Si  Si396  1  0.439045  0.364363  0.421285  1
  Si  Si397  1  0.772326  0.802251  0.395314  1
  Si  Si398  1  0.227530  0.697780  0.395323  1
  Si  Si399  1  0.227534  0.802251  0.395325  1
  Si  Si400  1  0.772318  0.697786  0.395312  1
  Si  Si401  1  0.333375  0.968857  0.503156  1
  Si  Si402  1  0.227494  0.802255  0.451229  1
  Si  Si403  1  0.000000  0.697786  0.451194  1
  Si  Si404  1  0.227487  0.697785  0.451227  1
  Si  Si405  1  0.000000  0.802254  0.451196  1
  Si  Si406  1  0.105533  0.968808  0.503160  1
  Si  Si407  1  0.105937  0.864327  0.503173  1
  Si  Si408  1  0.333161  0.864375  0.503182  1
  Si  Si409  1  0.893852  0.135651  0.532943  1
  Si  Si410  1  0.666655  0.135689  0.532948  1
  Si  Si411  1  -0.000000  0.302253  0.584886  1
  Si  Si412  1  0.894031  0.031170  0.532936  1
  Si  Si413  1  0.772509  0.197787  0.584913  1
  Si  Si414  1  0.000000  0.197787  0.584889  1
  Si  Si415  1  0.666191  0.031207  0.532941  1
  Si  Si416  1  0.772504  0.302254  0.584910  1
  Si  Si417  1  0.560762  0.635637  0.614836  1
  Si  Si418  1  0.333097  0.635648  0.614829  1
  Si  Si419  1  0.560853  0.635637  0.559061  1
  Si  Si420  1  0.105844  0.635690  0.559053  1
  Si  Si421  1  0.105428  0.531209  0.558917  1
  Si  Si422  1  0.893840  0.364386  0.532939  1
  Si  Si423  1  0.666646  0.364351  0.532945  1
  Si  Si424  1  0.894018  0.468867  0.532927  1
  Si  Si425  1  0.666182  0.468833  0.532933  1
  Si  Si426  1  0.560567  0.531155  0.558917  1
  Si  Si427  1  0.333305  0.531169  0.614851  1
  Si  Si428  1  0.560471  0.531157  0.614848  1
  Si  Si429  1  0.105436  0.968827  0.558925  1
  Si  Si430  1  0.000000  0.697784  0.585071  1
  Si  Si431  1  0.560768  0.864399  0.614839  1
  Si  Si432  1  0.333107  0.864385  0.614834  1
  Si  Si433  1  0.772399  0.697787  0.585050  1
  Si  Si434  1  0.000000  0.802249  0.585072  1
  Si  Si435  1  0.560861  0.864404  0.559064  1
  Si  Si436  1  0.105855  0.864345  0.559057  1
  Si  Si437  1  0.772405  0.802252  0.585052  1
  Si  Si438  1  0.560576  0.968886  0.558925  1
  Si  Si439  1  0.333314  0.968864  0.614860  1
  Si  Si440  1  0.560478  0.968878  0.614856  1
  Si  Si441  1  0.772326  0.802251  0.640846  1
  Si  Si442  1  0.227530  0.697780  0.640855  1
  Si  Si443  1  0.227534  0.802251  0.640857  1
  Si  Si444  1  0.772318  0.697786  0.640844  1
  H  H445  1  0.116655  0.186724  0.104707  1
  H  H446  1  0.766399  0.186721  0.104731  1
  H  H447  1  0.116649  0.313314  0.104705  1
  H  H448  1  0.766396  0.313315  0.104730  1
  H  H449  1  0.638171  0.000000  0.133425  1
  H  H450  1  0.361343  0.000000  0.133427  1
  H  H451  1  0.361333  0.499994  0.133418  1
  H  H452  1  0.638162  0.499993  0.133416  1
  H  H453  1  0.883203  0.686719  0.162147  1
  H  H454  1  0.233670  0.813314  0.162178  1
  H  H455  1  0.883210  0.813320  0.162148  1
  H  H456  1  0.233666  0.686721  0.162176  1
  H  H457  1  0.116655  0.186724  0.628414  1
  H  H458  1  0.766399  0.186721  0.628439  1
  H  H459  1  0.116649  0.313314  0.628412  1
  H  H460  1  0.766396  0.313315  0.628437  1
  H  H461  1  0.638171  0.000000  0.657133  1
  H  H462  1  0.361343  0.000000  0.657134  1
  H  H463  1  0.361333  0.499994  0.657125  1
  H  H464  1  0.638162  0.499993  0.657124  1
  H  H465  1  0.883203  0.686719  0.685854  1
  H  H466  1  0.233670  0.813314  0.685886  1
  H  H467  1  0.883210  0.813320  0.685856  1
  H  H468  1  0.233666  0.686721  0.685884  1
