# generated using pymatgen
data_Si12H2O25
_symmetry_space_group_name_H-M   'P 1'
_cell_length_a   13.44944935
_cell_length_b   13.44833066
_cell_length_c   49.41177757
_cell_angle_alpha   90.00000000
_cell_angle_beta   90.00000000
_cell_angle_gamma   90.00000000
_symmetry_Int_Tables_number   1
_chemical_formula_structural   Si12H2O25
_chemical_formula_sum   'Si96 H16 O200'
_cell_volume   8937.23875784
_cell_formula_units_Z   8
loop_
 _symmetry_equiv_pos_site_id
 _symmetry_equiv_pos_as_xyz
  1  'x, y, z'
loop_
 _atom_site_type_symbol
 _atom_site_label
 _atom_site_symmetry_multiplicity
 _atom_site_fract_x
 _atom_site_fract_y
 _atom_site_fract_z
 _atom_site_occupancy
  O  O1  1  0.379365  0.360667  0.119407  1
  O  O2  1  0.120446  0.860687  0.119414  1
  O  O3  1  0.620447  0.139453  0.119412  1
  O  O4  1  0.879364  0.639480  0.119405  1
  O  O5  1  0.473416  0.120585  0.300658  1
  O  O6  1  0.120444  0.139481  0.269933  1
  O  O7  1  0.139306  0.026567  0.366005  1
  O  O8  1  0.223399  0.110695  0.227480  1
  O  O9  1  0.129357  0.223590  0.368711  1
  O  O10  1  0.110529  0.129561  0.323557  1
  O  O11  1  0.129347  0.276577  0.232615  1
  O  O12  1  0.026391  0.120601  0.224783  1
  O  O13  1  0.360536  0.026559  0.159431  1
  O  O14  1  0.379368  0.139452  0.255505  1
  O  O15  1  0.276405  0.110668  0.297957  1
  O  O16  1  0.389287  0.129552  0.201881  1
  O  O17  1  0.370450  0.276549  0.292821  1
  O  O18  1  0.370461  0.223580  0.156728  1
  O  O19  1  0.120435  0.639491  0.255505  1
  O  O20  1  0.473422  0.379556  0.164556  1
  O  O21  1  0.139314  0.526570  0.159435  1
  O  O22  1  0.473397  0.620598  0.224769  1
  O  O23  1  0.139275  0.473598  0.229908  1
  O  O24  1  0.120441  0.360695  0.133835  1
  O  O25  1  0.223404  0.389467  0.363572  1
  O  O26  1  0.389290  0.629541  0.323549  1
  O  O27  1  0.110528  0.370601  0.187460  1
  O  O28  1  0.276384  0.610683  0.227475  1
  O  O29  1  0.026396  0.379554  0.360870  1
  O  O30  1  0.360510  0.526553  0.365998  1
  O  O31  1  0.379362  0.639453  0.269924  1
  O  O32  1  0.379365  0.360667  0.391597  1
  O  O33  1  0.026392  0.620596  0.300655  1
  O  O34  1  0.360504  0.473572  0.295524  1
  O  O35  1  0.110493  0.629560  0.201880  1
  O  O36  1  0.276411  0.389466  0.161860  1
  O  O37  1  0.223404  0.610673  0.297953  1
  O  O38  1  0.389286  0.370583  0.337973  1
  O  O39  1  0.139291  0.973589  0.295531  1
  O  O40  1  0.120446  0.860687  0.391603  1
  O  O41  1  0.473412  0.879543  0.360871  1
  O  O42  1  0.389304  0.870592  0.187459  1
  O  O43  1  0.370446  0.723574  0.368703  1
  O  O44  1  0.370438  0.776561  0.232611  1
  O  O45  1  0.276401  0.889462  0.363574  1
  O  O46  1  0.379373  0.860665  0.133833  1
  O  O47  1  0.360488  0.973582  0.229904  1
  O  O48  1  0.026408  0.879558  0.164567  1
  O  O49  1  0.129362  0.776567  0.292828  1
  O  O50  1  0.110506  0.870602  0.337979  1
  O  O51  1  0.129371  0.723593  0.156730  1
  O  O52  1  0.223423  0.889477  0.161862  1
  O  O53  1  0.620447  0.139453  0.391602  1
  O  O54  1  0.639297  0.026556  0.295528  1
  O  O55  1  0.973417  0.120595  0.360872  1
  O  O56  1  0.870436  0.223595  0.232608  1
  O  O57  1  0.889313  0.129559  0.187458  1
  O  O58  1  0.870444  0.276564  0.368700  1
  O  O59  1  0.776404  0.110669  0.363574  1
  O  O60  1  0.860496  0.026572  0.229904  1
  O  O61  1  0.879373  0.139487  0.133833  1
  O  O62  1  0.526411  0.120596  0.164567  1
  O  O63  1  0.610520  0.129543  0.337977  1
  O  O64  1  0.629371  0.276559  0.156727  1
  O  O65  1  0.629362  0.223578  0.292823  1
  O  O66  1  0.723424  0.110681  0.161862  1
  O  O67  1  0.973417  0.620598  0.164555  1
  O  O68  1  0.639317  0.473581  0.159432  1
  O  O69  1  0.620433  0.360669  0.255503  1
  O  O70  1  0.620441  0.639453  0.133831  1
  O  O71  1  0.973399  0.379561  0.224771  1
  O  O72  1  0.639273  0.526561  0.229905  1
  O  O73  1  0.889297  0.370601  0.323549  1
  O  O74  1  0.723404  0.610669  0.363569  1
  O  O75  1  0.776385  0.389480  0.227475  1
  O  O76  1  0.610519  0.629552  0.187455  1
  O  O77  1  0.879359  0.360688  0.269924  1
  O  O78  1  0.526393  0.620582  0.360868  1
  O  O79  1  0.860515  0.473587  0.365997  1
  O  O80  1  0.526393  0.379545  0.300656  1
  O  O81  1  0.860502  0.526567  0.295523  1
  O  O82  1  0.879364  0.639480  0.391594  1
  O  O83  1  0.776408  0.610692  0.161857  1
  O  O84  1  0.610505  0.370593  0.201878  1
  O  O85  1  0.889283  0.629558  0.337970  1
  O  O86  1  0.723404  0.389467  0.297953  1
  O  O87  1  0.973409  0.879556  0.300657  1
  O  O88  1  0.639301  0.973572  0.366002  1
  O  O89  1  0.620441  0.860668  0.269929  1
  O  O90  1  0.723397  0.889470  0.227478  1
  O  O91  1  0.610516  0.870585  0.323553  1
  O  O92  1  0.629347  0.723583  0.232608  1
  O  O93  1  0.629357  0.776549  0.368704  1
  O  O94  1  0.526386  0.879559  0.224780  1
  O  O95  1  0.879364  0.860695  0.255503  1
  O  O96  1  0.860532  0.973596  0.159430  1
  O  O97  1  0.776400  0.889467  0.297955  1
  O  O98  1  0.870460  0.776574  0.156724  1
  O  O99  1  0.889281  0.870601  0.201879  1
  O  O100  1  0.870449  0.723590  0.292817  1
  O  O101  1  0.473416  0.120585  0.572848  1
  O  O102  1  0.120444  0.139481  0.542123  1
  O  O103  1  0.139306  0.026567  0.638194  1
  O  O104  1  0.223399  0.110695  0.499669  1
  O  O105  1  0.129357  0.223590  0.640900  1
  O  O106  1  0.110529  0.129561  0.595747  1
  O  O107  1  0.129347  0.276577  0.504804  1
  O  O108  1  0.026391  0.120601  0.496972  1
  O  O109  1  0.360536  0.026559  0.431621  1
  O  O110  1  0.379368  0.139452  0.527695  1
  O  O111  1  0.276405  0.110668  0.570147  1
  O  O112  1  0.389287  0.129552  0.474070  1
  O  O113  1  0.370450  0.276549  0.565010  1
  O  O114  1  0.370461  0.223580  0.428917  1
  O  O115  1  0.120435  0.639491  0.527694  1
  O  O116  1  0.473422  0.379556  0.436746  1
  O  O117  1  0.139314  0.526570  0.431624  1
  O  O118  1  0.473397  0.620598  0.496959  1
  O  O119  1  0.139275  0.473598  0.502097  1
  O  O120  1  0.120441  0.360695  0.406025  1
  O  O121  1  0.223404  0.389467  0.635762  1
  O  O122  1  0.389290  0.629541  0.595739  1
  O  O123  1  0.110528  0.370601  0.459649  1
  O  O124  1  0.276384  0.610683  0.499665  1
  O  O125  1  0.026396  0.379554  0.633059  1
  O  O126  1  0.360510  0.526553  0.638188  1
  O  O127  1  0.379362  0.639453  0.542114  1
  O  O128  1  0.379365  0.360667  0.663786  1
  O  O129  1  0.026392  0.620596  0.572845  1
  O  O130  1  0.360504  0.473572  0.567714  1
  O  O131  1  0.110493  0.629560  0.474069  1
  O  O132  1  0.276411  0.389466  0.434049  1
  O  O133  1  0.223404  0.610673  0.570143  1
  O  O134  1  0.389286  0.370583  0.610162  1
  O  O135  1  0.139291  0.973589  0.567720  1
  O  O136  1  0.120446  0.860687  0.663793  1
  O  O137  1  0.473412  0.879543  0.633060  1
  O  O138  1  0.389304  0.870592  0.459648  1
  O  O139  1  0.370446  0.723574  0.640892  1
  O  O140  1  0.370438  0.776561  0.504800  1
  O  O141  1  0.276401  0.889462  0.635763  1
  O  O142  1  0.379373  0.860665  0.406023  1
  O  O143  1  0.360488  0.973582  0.502094  1
  O  O144  1  0.026408  0.879558  0.436757  1
  O  O145  1  0.129362  0.776567  0.565017  1
  O  O146  1  0.110506  0.870602  0.610168  1
  O  O147  1  0.129371  0.723593  0.428920  1
  O  O148  1  0.223423  0.889477  0.434052  1
  O  O149  1  0.620447  0.139453  0.663791  1
  O  O150  1  0.639297  0.026556  0.567717  1
  O  O151  1  0.973417  0.120595  0.633061  1
  O  O152  1  0.870436  0.223595  0.504797  1
  O  O153  1  0.889313  0.129559  0.459647  1
  O  O154  1  0.870444  0.276564  0.640889  1
  O  O155  1  0.776404  0.110669  0.635763  1
  O  O156  1  0.860496  0.026572  0.502093  1
  O  O157  1  0.879373  0.139487  0.406022  1
  O  O158  1  0.526411  0.120596  0.436757  1
  O  O159  1  0.610520  0.129543  0.610166  1
  O  O160  1  0.629371  0.276559  0.428916  1
  O  O161  1  0.629362  0.223578  0.565013  1
  O  O162  1  0.723424  0.110681  0.434052  1
  O  O163  1  0.973417  0.620598  0.436744  1
  O  O164  1  0.639317  0.473581  0.431621  1
  O  O165  1  0.620433  0.360669  0.527693  1
  O  O166  1  0.620441  0.639453  0.406021  1
  O  O167  1  0.973399  0.379561  0.496961  1
  O  O168  1  0.639273  0.526561  0.502094  1
  O  O169  1  0.889297  0.370601  0.595738  1
  O  O170  1  0.723404  0.610669  0.635759  1
  O  O171  1  0.776385  0.389480  0.499665  1
  O  O172  1  0.610519  0.629552  0.459645  1
  O  O173  1  0.879359  0.360688  0.542114  1
  O  O174  1  0.526393  0.620582  0.633057  1
  O  O175  1  0.860515  0.473587  0.638186  1
  O  O176  1  0.526393  0.379545  0.572845  1
  O  O177  1  0.860502  0.526567  0.567713  1
  O  O178  1  0.879364  0.639480  0.663784  1
  O  O179  1  0.776408  0.610692  0.434047  1
  O  O180  1  0.610505  0.370593  0.474068  1
  O  O181  1  0.889283  0.629558  0.610160  1
  O  O182  1  0.723404  0.389467  0.570143  1
  O  O183  1  0.973409  0.879556  0.572847  1
  O  O184  1  0.639301  0.973572  0.638191  1
  O  O185  1  0.620441  0.860668  0.542119  1
  O  O186  1  0.723397  0.889470  0.499667  1
  O  O187  1  0.610516  0.870585  0.595743  1
  O  O188  1  0.629347  0.723583  0.504798  1
  O  O189  1  0.629357  0.776549  0.640894  1
  O  O190  1  0.526386  0.879559  0.496970  1
  O  O191  1  0.879364  0.860695  0.527692  1
  O  O192  1  0.860532  0.973596  0.431620  1
  O  O193  1  0.776400  0.889467  0.570144  1
  O  O194  1  0.870460  0.776574  0.428914  1
  O  O195  1  0.889281  0.870601  0.474068  1
  O  O196  1  0.870449  0.723590  0.565007  1
  O  O197  1  0.120441  0.360695  0.678214  1
  O  O198  1  0.379373  0.860665  0.678212  1
  O  O199  1  0.879373  0.139487  0.678212  1
  O  O200  1  0.620441  0.639453  0.678210  1
  Si  Si201  1  0.160615  0.089382  0.296745  1
  Si  Si202  1  0.089202  0.125077  0.355072  1
  Si  Si203  1  0.124894  0.160782  0.238417  1
  Si  Si204  1  0.339183  0.089379  0.228692  1
  Si  Si205  1  0.410625  0.125072  0.170367  1
  Si  Si206  1  0.374913  0.160753  0.287021  1
  Si  Si207  1  0.089196  0.625079  0.170364  1
  Si  Si208  1  0.124898  0.660775  0.287022  1
  Si  Si209  1  0.160626  0.410775  0.160648  1
  Si  Si210  1  0.160594  0.589392  0.228692  1
  Si  Si211  1  0.089187  0.375083  0.218974  1
  Si  Si212  1  0.124896  0.339387  0.374509  1
  Si  Si213  1  0.339193  0.410759  0.364784  1
  Si  Si214  1  0.410610  0.625064  0.355065  1
  Si  Si215  1  0.374897  0.660764  0.238409  1
  Si  Si216  1  0.410609  0.375063  0.306457  1
  Si  Si217  1  0.374916  0.339374  0.150924  1
  Si  Si218  1  0.339190  0.589367  0.296738  1
  Si  Si219  1  0.089190  0.875078  0.306463  1
  Si  Si220  1  0.124911  0.839389  0.150930  1
  Si  Si221  1  0.160616  0.910771  0.364790  1
  Si  Si222  1  0.410604  0.875074  0.218975  1
  Si  Si223  1  0.374909  0.839368  0.374506  1
  Si  Si224  1  0.339213  0.910766  0.160646  1
  Si  Si225  1  0.589199  0.125067  0.306462  1
  Si  Si226  1  0.624912  0.160762  0.150928  1
  Si  Si227  1  0.660617  0.089367  0.364788  1
  Si  Si228  1  0.910611  0.125081  0.218974  1
  Si  Si229  1  0.874910  0.160772  0.374505  1
  Si  Si230  1  0.839213  0.089390  0.160646  1
  Si  Si231  1  0.660623  0.589378  0.160645  1
  Si  Si232  1  0.589203  0.375073  0.170362  1
  Si  Si233  1  0.624897  0.339372  0.287020  1
  Si  Si234  1  0.589183  0.625074  0.218969  1
  Si  Si235  1  0.624896  0.660754  0.374504  1
  Si  Si236  1  0.660595  0.410768  0.228690  1
  Si  Si237  1  0.910615  0.375076  0.355064  1
  Si  Si238  1  0.874895  0.339391  0.238408  1
  Si  Si239  1  0.839194  0.589381  0.364782  1
  Si  Si240  1  0.839190  0.410772  0.296738  1
  Si  Si241  1  0.910607  0.625077  0.306455  1
  Si  Si242  1  0.874914  0.660780  0.150921  1
  Si  Si243  1  0.660612  0.910761  0.296742  1
  Si  Si244  1  0.589196  0.875064  0.355068  1
  Si  Si245  1  0.624892  0.839376  0.238412  1
  Si  Si246  1  0.839183  0.910777  0.228690  1
  Si  Si247  1  0.910621  0.875081  0.170365  1
  Si  Si248  1  0.874909  0.839386  0.287019  1
  Si  Si249  1  0.160615  0.089382  0.568934  1
  Si  Si250  1  0.089202  0.125077  0.627262  1
  Si  Si251  1  0.124894  0.160782  0.510606  1
  Si  Si252  1  0.339183  0.089379  0.500881  1
  Si  Si253  1  0.410625  0.125072  0.442556  1
  Si  Si254  1  0.374913  0.160753  0.559211  1
  Si  Si255  1  0.089196  0.625079  0.442553  1
  Si  Si256  1  0.124898  0.660775  0.559211  1
  Si  Si257  1  0.160626  0.410775  0.432838  1
  Si  Si258  1  0.160594  0.589392  0.500881  1
  Si  Si259  1  0.089187  0.375083  0.491163  1
  Si  Si260  1  0.124896  0.339387  0.646698  1
  Si  Si261  1  0.339193  0.410759  0.636974  1
  Si  Si262  1  0.410610  0.625064  0.627254  1
  Si  Si263  1  0.374897  0.660764  0.510598  1
  Si  Si264  1  0.410609  0.375063  0.578647  1
  Si  Si265  1  0.374916  0.339374  0.423113  1
  Si  Si266  1  0.339190  0.589367  0.568927  1
  Si  Si267  1  0.089190  0.875078  0.578653  1
  Si  Si268  1  0.124911  0.839389  0.423120  1
  Si  Si269  1  0.160616  0.910771  0.636979  1
  Si  Si270  1  0.410604  0.875074  0.491164  1
  Si  Si271  1  0.374909  0.839368  0.646696  1
  Si  Si272  1  0.339213  0.910766  0.432836  1
  Si  Si273  1  0.589199  0.125067  0.578651  1
  Si  Si274  1  0.624912  0.160762  0.423118  1
  Si  Si275  1  0.660617  0.089367  0.636978  1
  Si  Si276  1  0.910611  0.125081  0.491164  1
  Si  Si277  1  0.874910  0.160772  0.646695  1
  Si  Si278  1  0.839213  0.089390  0.432836  1
  Si  Si279  1  0.660623  0.589378  0.432834  1
  Si  Si280  1  0.589203  0.375073  0.442551  1
  Si  Si281  1  0.624897  0.339372  0.559209  1
  Si  Si282  1  0.589183  0.625074  0.491159  1
  Si  Si283  1  0.624896  0.660754  0.646694  1
  Si  Si284  1  0.660595  0.410768  0.500880  1
  Si  Si285  1  0.910615  0.375076  0.627254  1
  Si  Si286  1  0.874895  0.339391  0.510597  1
  Si  Si287  1  0.839194  0.589381  0.636972  1
  Si  Si288  1  0.839190  0.410772  0.568928  1
  Si  Si289  1  0.910607  0.625077  0.578645  1
  Si  Si290  1  0.874914  0.660780  0.423111  1
  Si  Si291  1  0.660612  0.910761  0.568931  1
  Si  Si292  1  0.589196  0.875064  0.627258  1
  Si  Si293  1  0.624892  0.839376  0.510602  1
  Si  Si294  1  0.839183  0.910777  0.500880  1
  Si  Si295  1  0.910621  0.875081  0.442554  1
  Si  Si296  1  0.874909  0.839386  0.559208  1
  H  H297  1  0.379365  0.360667  0.101193  1
  H  H298  1  0.120446  0.860687  0.101199  1
  H  H299  1  0.620447  0.139453  0.101198  1
  H  H300  1  0.879364  0.639480  0.101190  1
  H  H301  1  0.120441  0.360695  0.115621  1
  H  H302  1  0.379373  0.860665  0.115619  1
  H  H303  1  0.879373  0.139487  0.115619  1
  H  H304  1  0.620441  0.639453  0.115617  1
  H  H305  1  0.379365  0.360667  0.682001  1
  H  H306  1  0.120446  0.860687  0.682007  1
  H  H307  1  0.620447  0.139453  0.682006  1
  H  H308  1  0.879364  0.639480  0.681998  1
  H  H309  1  0.120441  0.360695  0.696429  1
  H  H310  1  0.379373  0.860665  0.696427  1
  H  H311  1  0.879373  0.139487  0.696426  1
  H  H312  1  0.620441  0.639453  0.696424  1
