# generated using pymatgen
data_Si20H6O43
_symmetry_space_group_name_H-M   'P 1'
_cell_length_a   13.03001073
_cell_length_b   12.67812019
_cell_length_c   43.92315298
_cell_angle_alpha   90.00000000
_cell_angle_beta   120.00000000
_cell_angle_gamma   90.00000000
_symmetry_Int_Tables_number   1
_chemical_formula_structural   Si20H6O43
_chemical_formula_sum   'Si40 H12 O86'
_cell_volume   6283.8205993
_cell_formula_units_Z   2
loop_
 _symmetry_equiv_pos_site_id
 _symmetry_equiv_pos_as_xyz
  1  'x, y, z'
loop_
 _atom_site_type_symbol
 _atom_site_label
 _atom_site_symmetry_multiplicity
 _atom_site_fract_x
 _atom_site_fract_y
 _atom_site_fract_z
 _atom_site_occupancy
  O  O1  1  0.212637  0.437740  0.156845  1
  O  O2  1  0.229060  0.162945  0.151993  1
  O  O3  1  0.297729  0.097439  0.213626  1
  O  O4  1  0.454340  0.146881  0.193904  1
  O  O5  1  0.332685  0.293894  0.200987  1
  O  O6  1  0.436234  0.425202  0.183240  1
  O  O7  1  0.354240  0.499955  0.220311  1
  O  O8  1  0.111261  0.982681  0.186767  1
  O  O9  1  0.538327  0.162816  0.151936  1
  O  O10  1  0.677388  0.097460  0.213595  1
  O  O11  1  0.599641  0.293842  0.200916  1
  O  O12  1  0.570810  0.437734  0.156818  1
  O  O13  1  0.643226  0.499847  0.220285  1
  O  O14  1  0.773910  0.982922  0.186862  1
  O  O15  1  0.212637  0.437740  0.453498  1
  O  O16  1  0.229015  0.162975  0.356751  1
  O  O17  1  0.229060  0.162945  0.448646  1
  O  O18  1  0.021122  0.097578  0.315563  1
  O  O19  1  0.297729  0.097439  0.510279  1
  O  O20  1  0.021178  0.097548  0.428126  1
  O  O21  1  0.297742  0.097687  0.315497  1
  O  O22  1  0.087988  0.147023  0.381768  1
  O  O23  1  0.454340  0.146881  0.490557  1
  O  O24  1  0.454377  0.147040  0.381711  1
  O  O25  1  0.063960  0.294016  0.338631  1
  O  O26  1  0.332685  0.293894  0.497639  1
  O  O27  1  0.064000  0.293993  0.417838  1
  O  O28  1  0.332730  0.294104  0.338604  1
  O  O29  1  0.123756  0.425381  0.387133  1
  O  O30  1  0.436234  0.425202  0.479893  1
  O  O31  1  0.436276  0.425311  0.387130  1
  O  O32  1  0.212675  0.437818  0.347174  1
  O  O33  1  0.223582  0.017121  0.253560  1
  O  O34  1  0.354240  0.499955  0.516964  1
  O  O35  1  0.111299  0.982787  0.287018  1
  O  O36  1  0.459165  0.837227  0.288520  1
  O  O37  1  0.320011  0.902358  0.226846  1
  O  O38  1  0.320103  0.902583  0.308927  1
  O  O39  1  0.397792  0.706031  0.239595  1
  O  O40  1  0.397850  0.706201  0.319312  1
  O  O41  1  0.426677  0.562309  0.283764  1
  O  O42  1  0.111261  0.982681  0.483419  1
  O  O43  1  0.354266  0.500199  0.325751  1
  O  O44  1  0.886198  0.017255  0.253628  1
  O  O45  1  0.538327  0.162816  0.448589  1
  O  O46  1  0.677482  0.097686  0.428194  1
  O  O47  1  0.677388  0.097460  0.510248  1
  O  O48  1  0.599696  0.294011  0.417868  1
  O  O49  1  0.599641  0.293842  0.497569  1
  O  O50  1  0.570810  0.437734  0.453471  1
  O  O51  1  0.886229  0.017358  0.450040  1
  O  O52  1  0.643226  0.499847  0.516937  1
  O  O53  1  0.773910  0.982922  0.483514  1
  O  O54  1  0.784808  0.562219  0.283711  1
  O  O55  1  0.784853  0.562307  0.390047  1
  O  O56  1  0.768474  0.837066  0.288443  1
  O  O57  1  0.768436  0.837091  0.380325  1
  O  O58  1  0.976365  0.902459  0.308924  1
  O  O59  1  0.699759  0.902602  0.421585  1
  O  O60  1  0.976317  0.902490  0.421472  1
  O  O61  1  0.699753  0.902357  0.226801  1
  O  O62  1  0.543112  0.853000  0.246547  1
  O  O63  1  0.909505  0.853013  0.355295  1
  O  O64  1  0.543158  0.853164  0.355405  1
  O  O65  1  0.933528  0.706019  0.319283  1
  O  O66  1  0.664797  0.706149  0.398574  1
  O  O67  1  0.933496  0.706044  0.398480  1
  O  O68  1  0.664764  0.705940  0.239527  1
  O  O69  1  0.561207  0.574731  0.257332  1
  O  O70  1  0.873731  0.574662  0.350047  1
  O  O71  1  0.561257  0.574841  0.350109  1
  O  O72  1  0.643245  0.500089  0.411504  1
  O  O73  1  0.998741  0.500021  0.322565  1
  O  O74  1  0.998740  0.500017  0.408300  1
  O  O75  1  0.223582  0.017121  0.550213  1
  O  O76  1  0.459165  0.837227  0.585173  1
  O  O77  1  0.320011  0.902358  0.523498  1
  O  O78  1  0.397792  0.706031  0.536247  1
  O  O79  1  0.426677  0.562309  0.580417  1
  O  O80  1  0.886198  0.017255  0.550281  1
  O  O81  1  0.784808  0.562219  0.580364  1
  O  O82  1  0.768474  0.837066  0.585095  1
  O  O83  1  0.699753  0.902357  0.523454  1
  O  O84  1  0.543112  0.853000  0.543199  1
  O  O85  1  0.664764  0.705940  0.536180  1
  O  O86  1  0.561207  0.574731  0.553984  1
  Si  Si87  1  0.331714  0.172787  0.191525  1
  Si  Si88  1  0.332060  0.414720  0.191513  1
  Si  Si89  1  0.236451  0.000000  0.220195  1
  Si  Si90  1  0.568842  0.172721  0.191464  1
  Si  Si91  1  0.568255  0.414661  0.191481  1
  Si  Si92  1  0.760969  0.000000  0.220221  1
  Si  Si93  1  0.095838  0.172891  0.347744  1
  Si  Si94  1  0.331714  0.172787  0.488178  1
  Si  Si95  1  0.095909  0.172894  0.418131  1
  Si  Si96  1  0.331745  0.172941  0.347710  1
  Si  Si97  1  0.095853  0.414824  0.347953  1
  Si  Si98  1  0.332060  0.414720  0.488166  1
  Si  Si99  1  0.095864  0.414824  0.418037  1
  Si  Si100  1  0.332121  0.414867  0.347947  1
  Si  Si101  1  0.236524  0.000000  0.290758  1
  Si  Si102  1  0.428617  0.827170  0.248994  1
  Si  Si103  1  0.428649  0.827325  0.318996  1
  Si  Si104  1  0.429176  0.585232  0.249085  1
  Si  Si105  1  0.429233  0.585380  0.319186  1
  Si  Si106  1  0.236451  -0.000000  0.516848  1
  Si  Si107  1  0.568875  0.172874  0.418123  1
  Si  Si108  1  0.568842  0.172721  0.488116  1
  Si  Si109  1  0.568312  0.414808  0.418049  1
  Si  Si110  1  0.568255  0.414661  0.488134  1
  Si  Si111  1  0.761038  0.000000  0.446332  1
  Si  Si112  1  0.998745  0.000000  0.443099  1
  Si  Si113  1  0.998745  0.000000  0.287636  1
  Si  Si114  1  0.901653  0.827154  0.318942  1
  Si  Si115  1  0.665780  0.827256  0.389404  1
  Si  Si116  1  0.901586  0.827150  0.389309  1
  Si  Si117  1  0.665745  0.827102  0.248926  1
  Si  Si118  1  0.901633  0.585210  0.319145  1
  Si  Si119  1  0.665431  0.585323  0.389287  1
  Si  Si120  1  0.901625  0.585210  0.389226  1
  Si  Si121  1  0.665364  0.585172  0.249050  1
  Si  Si122  1  0.760969  -0.000000  0.516874  1
  Si  Si123  1  0.428617  0.827170  0.545647  1
  Si  Si124  1  0.429176  0.585232  0.545738  1
  Si  Si125  1  0.665745  0.827102  0.545578  1
  Si  Si126  1  0.665364  0.585172  0.545702  1
  H  H127  1  0.212637  0.437740  0.136355  1
  H  H128  1  0.229060  0.162945  0.131503  1
  H  H129  1  0.111261  0.982681  0.166276  1
  H  H130  1  0.538327  0.162816  0.131446  1
  H  H131  1  0.570810  0.437734  0.136328  1
  H  H132  1  0.773910  0.982922  0.166371  1
  H  H133  1  0.223582  0.017121  0.570703  1
  H  H134  1  0.459165  0.837227  0.605663  1
  H  H135  1  0.426677  0.562309  0.600907  1
  H  H136  1  0.886198  0.017255  0.570771  1
  H  H137  1  0.784808  0.562219  0.600854  1
  H  H138  1  0.768474  0.837066  0.605586  1
