# generated using pymatgen
data_Si12H2O25
_symmetry_space_group_name_H-M   'P 1'
_cell_length_a   13.90613991
_cell_length_b   9.56864993
_cell_length_c   39.53262254
_cell_angle_alpha   90.00000000
_cell_angle_beta   90.00000000
_cell_angle_gamma   90.00000000
_symmetry_Int_Tables_number   1
_chemical_formula_structural   Si12H2O25
_chemical_formula_sum   'Si48 H8 O100'
_cell_volume   5260.32874664
_cell_formula_units_Z   4
loop_
 _symmetry_equiv_pos_site_id
 _symmetry_equiv_pos_as_xyz
  1  'x, y, z'
loop_
 _atom_site_type_symbol
 _atom_site_label
 _atom_site_symmetry_multiplicity
 _atom_site_fract_x
 _atom_site_fract_y
 _atom_site_fract_z
 _atom_site_occupancy
  O  O1  1  0.589928  0.361881  0.149245  1
  O  O2  1  0.909876  0.861881  0.149244  1
  O  O3  1  0.517681  0.236067  0.201286  1
  O  O4  1  0.016592  0.236682  0.425367  1
  O  O5  1  0.517213  0.236713  0.545731  1
  O  O6  1  0.017746  0.236082  0.321599  1
  O  O7  1  0.982116  0.736066  0.201286  1
  O  O8  1  0.483220  0.736683  0.425367  1
  O  O9  1  0.982599  0.736714  0.545731  1
  O  O10  1  0.482051  0.736080  0.321600  1
  O  O11  1  0.482695  0.760194  0.545860  1
  O  O12  1  0.983682  0.759567  0.321772  1
  O  O13  1  0.483769  0.759613  0.201124  1
  O  O14  1  0.983290  0.760349  0.425288  1
  O  O15  1  0.017117  0.260196  0.545861  1
  O  O16  1  0.516114  0.259567  0.321772  1
  O  O17  1  0.016027  0.259612  0.201124  1
  O  O18  1  0.516522  0.260350  0.425288  1
  O  O19  1  0.500091  0.497574  0.194362  1
  O  O20  1  0.000000  0.498436  0.418547  1
  O  O21  1  0.499824  0.498376  0.552696  1
  O  O22  1  0.000000  0.497587  0.328500  1
  O  O23  1  -0.000000  0.997574  0.194362  1
  O  O24  1  0.499996  0.998436  0.418547  1
  O  O25  1  0.000000  0.998376  0.552696  1
  O  O26  1  0.499722  0.997587  0.328500  1
  O  O27  1  0.589928  0.361881  0.597699  1
  O  O28  1  0.090532  0.362218  0.373563  1
  O  O29  1  0.909876  0.861881  0.597697  1
  O  O30  1  0.409271  0.862218  0.373564  1
  O  O31  1  0.409853  0.634252  0.149346  1
  O  O32  1  0.909183  0.633742  0.373472  1
  O  O33  1  0.089952  0.134252  0.149347  1
  O  O34  1  0.590621  0.133742  0.373470  1
  O  O35  1  0.665814  0.391747  0.208749  1
  O  O36  1  0.164824  0.390994  0.433554  1
  O  O37  1  0.665535  0.392025  0.538344  1
  O  O38  1  0.165878  0.391827  0.314090  1
  O  O39  1  0.833980  0.891739  0.208747  1
  O  O40  1  0.334991  0.891000  0.433556  1
  O  O41  1  0.834279  0.892031  0.538342  1
  O  O42  1  0.333917  0.891819  0.314091  1
  O  O43  1  0.334199  0.605360  0.538409  1
  O  O44  1  0.835176  0.606018  0.313512  1
  O  O45  1  0.335187  0.606143  0.209247  1
  O  O46  1  0.834904  0.606428  0.433508  1
  O  O47  1  0.165614  0.105367  0.538410  1
  O  O48  1  0.664618  0.106011  0.313511  1
  O  O49  1  0.164607  0.106136  0.209249  1
  O  O50  1  0.664910  0.106435  0.433506  1
  O  O51  1  0.649439  0.852531  0.223712  1
  O  O52  1  0.149813  0.850040  0.447657  1
  O  O53  1  0.649535  0.851567  0.523557  1
  O  O54  1  0.149445  0.852365  0.299153  1
  O  O55  1  0.850357  0.352534  0.223712  1
  O  O56  1  0.350000  0.350037  0.447657  1
  O  O57  1  0.850278  0.351565  0.523557  1
  O  O58  1  0.350350  0.352368  0.299153  1
  O  O59  1  0.350292  0.145634  0.523527  1
  O  O60  1  0.850021  0.148127  0.299602  1
  O  O61  1  0.349994  0.148040  0.223266  1
  O  O62  1  0.850035  0.147113  0.447686  1
  O  O63  1  0.149521  0.645632  0.523527  1
  O  O64  1  0.649775  0.648129  0.299602  1
  O  O65  1  0.149802  0.648043  0.223266  1
  O  O66  1  0.649778  0.647110  0.447687  1
  O  O67  1  0.523946  0.748087  0.261454  1
  O  O68  1  0.023992  0.748287  0.485536  1
  O  O69  1  0.523978  0.748416  0.485651  1
  O  O70  1  0.023956  0.748112  0.261432  1
  O  O71  1  0.975849  0.248088  0.261454  1
  O  O72  1  0.475821  0.248287  0.485536  1
  O  O73  1  0.975836  0.248417  0.485651  1
  O  O74  1  0.475839  0.248113  0.261432  1
  O  O75  1  0.498566  0.997875  0.234936  1
  O  O76  1  -0.000000  0.998443  0.459105  1
  O  O77  1  0.499820  0.998375  0.512115  1
  O  O78  1  0.998593  0.997846  0.287972  1
  O  O79  1  0.001231  0.497875  0.234936  1
  O  O80  1  0.499946  0.498444  0.459104  1
  O  O81  1  0.000000  0.498376  0.512115  1
  O  O82  1  0.501204  0.497846  0.287973  1
  O  O83  1  0.747204  0.018253  0.258190  1
  O  O84  1  0.252953  0.979738  0.488958  1
  O  O85  1  0.746543  0.018010  0.489002  1
  O  O86  1  0.247037  0.017899  0.264581  1
  O  O87  1  0.752595  0.518253  0.258192  1
  O  O88  1  0.246856  0.479738  0.488956  1
  O  O89  1  0.753266  0.518011  0.489004  1
  O  O90  1  0.252762  0.517899  0.264579  1
  O  O91  1  0.721379  0.267842  0.264278  1
  O  O92  1  0.221318  0.230003  0.482956  1
  O  O93  1  0.721404  0.267815  0.482878  1
  O  O94  1  0.221322  0.267515  0.258576  1
  O  O95  1  0.778418  0.767842  0.264278  1
  O  O96  1  0.278494  0.730003  0.482956  1
  O  O97  1  0.778408  0.767814  0.482878  1
  O  O98  1  0.278474  0.767515  0.258576  1
  O  O99  1  0.409853  0.634252  0.597799  1
  O  O100  1  0.089952  0.134252  0.597801  1
  Si  Si101  1  0.570175  0.372053  0.188105  1
  Si  Si102  1  0.069743  0.372560  0.412385  1
  Si  Si103  1  0.569745  0.372644  0.558896  1
  Si  Si104  1  0.070270  0.372157  0.334727  1
  Si  Si105  1  0.929622  0.872051  0.188104  1
  Si  Si106  1  0.430069  0.872562  0.412386  1
  Si  Si107  1  0.930066  0.872646  0.558895  1
  Si  Si108  1  0.429527  0.872156  0.334728  1
  Si  Si109  1  0.430035  0.624211  0.558969  1
  Si  Si110  1  0.930351  0.623666  0.334669  1
  Si  Si111  1  0.430512  0.623790  0.188163  1
  Si  Si112  1  0.930017  0.624417  0.412327  1
  Si  Si113  1  0.069776  0.124213  0.558970  1
  Si  Si114  1  0.569446  0.123664  0.334668  1
  Si  Si115  1  0.069285  0.123788  0.188165  1
  Si  Si116  1  0.569795  0.124419  0.412326  1
  Si  Si117  1  0.537209  0.844608  0.229726  1
  Si  Si118  1  0.037560  0.844727  0.453810  1
  Si  Si119  1  0.537268  0.844598  0.517426  1
  Si  Si120  1  0.037195  0.844555  0.293172  1
  Si  Si121  1  0.962587  0.344607  0.229726  1
  Si  Si122  1  0.462252  0.344726  0.453810  1
  Si  Si123  1  0.962545  0.344597  0.517426  1
  Si  Si124  1  0.462601  0.344554  0.293172  1
  Si  Si125  1  0.462541  0.152289  0.517341  1
  Si  Si126  1  0.962270  0.152208  0.293275  1
  Si  Si127  1  0.462229  0.152227  0.229616  1
  Si  Si128  1  0.962274  0.152251  0.453874  1
  Si  Si129  1  0.037271  0.652289  0.517341  1
  Si  Si130  1  0.537526  0.652209  0.293275  1
  Si  Si131  1  0.037567  0.652227  0.229616  1
  Si  Si132  1  0.537538  0.652251  0.453874  1
  Si  Si133  1  0.743627  0.134030  0.285844  1
  Si  Si134  1  0.244954  0.115827  0.510218  1
  Si  Si135  1  0.743549  0.133832  0.461350  1
  Si  Si136  1  0.243557  0.133820  0.236965  1
  Si  Si137  1  0.756169  0.634033  0.285845  1
  Si  Si138  1  0.254857  0.615824  0.510217  1
  Si  Si139  1  0.756263  0.633829  0.461352  1
  Si  Si140  1  0.256240  0.633824  0.236964  1
  Si  Si141  1  0.256230  0.863742  0.461360  1
  Si  Si142  1  0.754793  0.881956  0.236995  1
  Si  Si143  1  0.254769  0.881746  0.285823  1
  Si  Si144  1  0.754781  0.881776  0.510201  1
  Si  Si145  1  0.243582  0.363738  0.461359  1
  Si  Si146  1  0.745004  0.381959  0.236996  1
  Si  Si147  1  0.245027  0.381748  0.285822  1
  Si  Si148  1  0.745031  0.381772  0.510203  1
  H  H149  1  0.589928  0.361881  0.126479  1
  H  H150  1  0.909876  0.861881  0.126478  1
  H  H151  1  0.589928  0.361881  0.620465  1
  H  H152  1  0.909876  0.861881  0.620463  1
  H  H153  1  0.409853  0.634252  0.126580  1
  H  H154  1  0.089952  0.134252  0.126581  1
  H  H155  1  0.409853  0.634252  0.620565  1
  H  H156  1  0.089952  0.134252  0.620567  1
