# generated using pymatgen
data_Si56H2O113
_symmetry_space_group_name_H-M   'P 1'
_cell_length_a   13.15516101
_cell_length_b   13.16213477
_cell_length_c   73.36290442
_cell_angle_alpha   90.00000000
_cell_angle_beta   90.00000000
_cell_angle_gamma   120.00000000
_symmetry_Int_Tables_number   1
_chemical_formula_structural   Si56H2O113
_chemical_formula_sum   'Si112 H4 O226'
_cell_volume   11000.9362898
_cell_formula_units_Z   2
loop_
 _symmetry_equiv_pos_site_id
 _symmetry_equiv_pos_as_xyz
  1  'x, y, z'
loop_
 _atom_site_type_symbol
 _atom_site_label
 _atom_site_symmetry_multiplicity
 _atom_site_fract_x
 _atom_site_fract_y
 _atom_site_fract_z
 _atom_site_occupancy
  O  O1  1  0.442020  0.584953  0.140194  1
  O  O2  1  0.143101  0.558000  0.140321  1
  O  O3  1  0.414764  0.856927  0.140391  1
  O  O4  1  0.441900  0.584775  0.196325  1
  O  O5  1  0.143063  0.557936  0.196300  1
  O  O6  1  0.414636  0.856848  0.196194  1
  O  O7  1  0.428035  0.230800  0.136121  1
  O  O8  1  0.230947  0.428418  0.136089  1
  O  O9  1  0.197239  0.769077  0.136145  1
  O  O10  1  0.348511  0.563192  0.109582  1
  O  O11  1  0.214704  0.651439  0.109737  1
  O  O12  1  0.436842  0.785338  0.109818  1
  O  O13  1  0.406114  0.406129  0.121934  1
  O  O14  1  0.343183  -0.000000  0.144220  1
  O  O15  1  -0.000000  0.343648  0.144235  1
  O  O16  1  0.343008  -0.000000  0.192380  1
  O  O17  1  0.000000  0.343582  0.192330  1
  O  O18  1  0.450494  0.160180  0.168299  1
  O  O19  1  0.160601  0.451517  0.168292  1
  O  O20  1  0.290355  0.839710  0.168298  1
  O  O21  1  0.333845  0.669631  0.080422  1
  O  O22  1  0.230895  0.802398  0.311919  1
  O  O23  1  0.197576  0.428370  0.311809  1
  O  O24  1  0.428362  0.197349  0.311936  1
  O  O25  1  0.427966  0.230689  0.200486  1
  O  O26  1  0.230787  0.428210  0.200464  1
  O  O27  1  0.197135  0.768951  0.200468  1
  O  O28  1  0.436831  0.651396  0.285446  1
  O  O29  1  0.348568  0.785272  0.285508  1
  O  O30  1  0.214753  0.563115  0.285301  1
  O  O31  1  0.348397  0.563031  0.226924  1
  O  O32  1  0.214556  0.651342  0.226917  1
  O  O33  1  0.436690  0.785159  0.226745  1
  O  O34  1  0.406181  -0.000000  0.297809  1
  O  O35  1  0.406056  0.406020  0.214632  1
  O  O36  1  0.335918  0.669477  0.256130  1
  O  O37  1  -0.000000  0.406127  0.297685  1
  O  O38  1  0.415051  0.557903  0.316023  1
  O  O39  1  0.442204  0.856827  0.316078  1
  O  O40  1  0.143071  0.584933  0.315917  1
  O  O41  1  0.415062  0.557957  0.372012  1
  O  O42  1  0.442307  0.856845  0.371912  1
  O  O43  1  0.143030  0.584844  0.372018  1
  O  O44  1  0.230921  0.802359  0.376034  1
  O  O45  1  0.197563  0.428274  0.376165  1
  O  O46  1  0.428445  0.197386  0.376024  1
  O  O47  1  0.436907  0.651414  0.402621  1
  O  O48  1  0.348560  0.785210  0.402455  1
  O  O49  1  0.214730  0.563076  0.402625  1
  O  O50  1  0.406154  -0.000000  0.390155  1
  O  O51  1  0.343553  0.343589  0.319944  1
  O  O52  1  0.343690  0.343652  0.368039  1
  O  O53  1  0.160050  0.707980  0.343974  1
  O  O54  1  0.291095  0.451498  0.344000  1
  O  O55  1  0.452178  0.292005  0.343983  1
  O  O56  1  -0.000000  0.406107  0.390297  1
  O  O57  1  0.584921  0.441825  0.140279  1
  O  O58  1  0.557744  0.143006  0.140395  1
  O  O59  1  0.857013  0.414907  0.140232  1
  O  O60  1  0.584884  0.441710  0.196316  1
  O  O61  1  0.557599  0.142865  0.196194  1
  O  O62  1  0.856939  0.414883  0.196315  1
  O  O63  1  0.769080  0.197404  0.136225  1
  O  O64  1  0.802448  0.571441  0.136124  1
  O  O65  1  0.571615  0.802475  0.136231  1
  O  O66  1  0.563077  0.348400  0.109681  1
  O  O67  1  0.651365  0.214593  0.109828  1
  O  O68  1  0.785248  0.436749  0.109633  1
  O  O69  1  0.593727  0.000000  0.122122  1
  O  O70  1  -0.000000  0.593728  0.121979  1
  O  O71  1  0.656439  0.656169  0.144233  1
  O  O72  1  0.656302  0.656082  0.192327  1
  O  O73  1  0.839928  0.291752  0.168275  1
  O  O74  1  0.708662  0.548064  0.168289  1
  O  O75  1  0.547945  0.707896  0.168271  1
  O  O76  1  0.665536  0.329979  0.080447  1
  O  O77  1  0.571921  0.768984  0.311854  1
  O  O78  1  0.769086  0.571416  0.311785  1
  O  O79  1  0.802783  0.230772  0.311866  1
  O  O80  1  0.768946  0.197330  0.200328  1
  O  O81  1  0.802378  0.571433  0.200446  1
  O  O82  1  0.571486  0.802340  0.200324  1
  O  O83  1  0.651498  0.436616  0.285284  1
  O  O84  1  0.785311  0.348385  0.285468  1
  O  O85  1  0.563118  0.214478  0.285510  1
  O  O86  1  0.563021  0.348287  0.226936  1
  O  O87  1  0.651318  0.214487  0.226748  1
  O  O88  1  0.785185  0.436639  0.226910  1
  O  O89  1  0.593833  0.593645  0.297656  1
  O  O90  1  0.593667  0.000000  0.214448  1
  O  O91  1  0.000000  0.593642  0.214610  1
  O  O92  1  0.666571  0.330283  0.256132  1
  O  O93  1  0.558020  0.414846  0.315899  1
  O  O94  1  0.856938  0.441856  0.316048  1
  O  O95  1  0.585186  0.142851  0.316075  1
  O  O96  1  0.558122  0.414939  0.372069  1
  O  O97  1  0.856887  0.441849  0.371968  1
  O  O98  1  0.585223  0.142800  0.371904  1
  O  O99  1  0.571955  0.768971  0.376174  1
  O  O100  1  0.769169  0.571506  0.376212  1
  O  O101  1  0.802780  0.230772  0.376141  1
  O  O102  1  0.651481  0.436607  0.402693  1
  O  O103  1  0.785281  0.348347  0.402562  1
  O  O104  1  0.563113  0.214470  0.402450  1
  O  O105  1  0.593872  0.593658  0.390356  1
  O  O106  1  0.656757  -0.000000  0.319927  1
  O  O107  1  0.000000  0.656169  0.319936  1
  O  O108  1  0.656877  -0.000000  0.368075  1
  O  O109  1  0.000000  0.656176  0.368036  1
  O  O110  1  0.549262  0.839587  0.344003  1
  O  O111  1  0.839334  0.548498  0.344000  1
  O  O112  1  0.709406  0.160000  0.343996  1
  O  O113  1  0.442020  0.584953  0.491604  1
  O  O114  1  0.143101  0.558000  0.491732  1
  O  O115  1  0.414764  0.856927  0.491802  1
  O  O116  1  0.441900  0.584775  0.547736  1
  O  O117  1  0.143063  0.557936  0.547710  1
  O  O118  1  0.414636  0.856848  0.547605  1
  O  O119  1  0.428035  0.230800  0.487532  1
  O  O120  1  0.230947  0.428418  0.487500  1
  O  O121  1  0.197239  0.769077  0.487556  1
  O  O122  1  0.348511  0.563192  0.460993  1
  O  O123  1  0.214704  0.651439  0.461148  1
  O  O124  1  0.436842  0.785338  0.461229  1
  O  O125  1  0.406114  0.406129  0.473345  1
  O  O126  1  0.343183  0.000000  0.495631  1
  O  O127  1  0.000000  0.343648  0.495646  1
  O  O128  1  0.343008  0.000000  0.543790  1
  O  O129  1  0.000000  0.343582  0.543741  1
  O  O130  1  0.450494  0.160180  0.519710  1
  O  O131  1  0.160601  0.451517  0.519703  1
  O  O132  1  0.290355  0.839710  0.519709  1
  O  O133  1  0.333845  0.669631  0.431833  1
  O  O134  1  0.230895  0.802398  0.663330  1
  O  O135  1  0.197576  0.428370  0.663220  1
  O  O136  1  0.428362  0.197349  0.663347  1
  O  O137  1  0.427966  0.230689  0.551897  1
  O  O138  1  0.230787  0.428210  0.551875  1
  O  O139  1  0.197135  0.768951  0.551879  1
  O  O140  1  0.436831  0.651396  0.636857  1
  O  O141  1  0.348568  0.785272  0.636919  1
  O  O142  1  0.214753  0.563115  0.636712  1
  O  O143  1  0.348397  0.563031  0.578335  1
  O  O144  1  0.214556  0.651342  0.578328  1
  O  O145  1  0.436690  0.785159  0.578156  1
  O  O146  1  0.406181  -0.000000  0.649220  1
  O  O147  1  0.406056  0.406020  0.566043  1
  O  O148  1  0.335918  0.669477  0.607541  1
  O  O149  1  0.000000  0.406127  0.649096  1
  O  O150  1  0.415051  0.557903  0.667434  1
  O  O151  1  0.442204  0.856827  0.667489  1
  O  O152  1  0.143071  0.584933  0.667328  1
  O  O153  1  0.415062  0.557957  0.723423  1
  O  O154  1  0.442307  0.856845  0.723323  1
  O  O155  1  0.143030  0.584844  0.723429  1
  O  O156  1  0.230921  0.802359  0.727445  1
  O  O157  1  0.197563  0.428274  0.727576  1
  O  O158  1  0.428445  0.197386  0.727435  1
  O  O159  1  0.436907  0.651414  0.754031  1
  O  O160  1  0.348560  0.785210  0.753866  1
  O  O161  1  0.214730  0.563076  0.754036  1
  O  O162  1  0.406154  0.000000  0.741566  1
  O  O163  1  0.343553  0.343589  0.671355  1
  O  O164  1  0.343690  0.343652  0.719450  1
  O  O165  1  0.160050  0.707980  0.695385  1
  O  O166  1  0.291095  0.451498  0.695411  1
  O  O167  1  0.452178  0.292005  0.695394  1
  O  O168  1  -0.000000  0.406107  0.741708  1
  O  O169  1  0.584921  0.441825  0.491690  1
  O  O170  1  0.557744  0.143006  0.491806  1
  O  O171  1  0.857013  0.414907  0.491642  1
  O  O172  1  0.584884  0.441710  0.547727  1
  O  O173  1  0.557599  0.142865  0.547605  1
  O  O174  1  0.856939  0.414883  0.547726  1
  O  O175  1  0.769080  0.197404  0.487636  1
  O  O176  1  0.802448  0.571441  0.487535  1
  O  O177  1  0.571615  0.802475  0.487642  1
  O  O178  1  0.563077  0.348400  0.461091  1
  O  O179  1  0.651365  0.214593  0.461239  1
  O  O180  1  0.785248  0.436749  0.461044  1
  O  O181  1  0.593727  0.000000  0.473532  1
  O  O182  1  0.000000  0.593728  0.473390  1
  O  O183  1  0.656439  0.656169  0.495644  1
  O  O184  1  0.656302  0.656082  0.543738  1
  O  O185  1  0.839928  0.291752  0.519686  1
  O  O186  1  0.708662  0.548064  0.519700  1
  O  O187  1  0.547945  0.707896  0.519682  1
  O  O188  1  0.665536  0.329979  0.431858  1
  O  O189  1  0.571921  0.768984  0.663265  1
  O  O190  1  0.769086  0.571416  0.663196  1
  O  O191  1  0.802783  0.230772  0.663277  1
  O  O192  1  0.768946  0.197330  0.551739  1
  O  O193  1  0.802378  0.571433  0.551857  1
  O  O194  1  0.571486  0.802340  0.551734  1
  O  O195  1  0.651498  0.436616  0.636695  1
  O  O196  1  0.785311  0.348385  0.636878  1
  O  O197  1  0.563118  0.214478  0.636921  1
  O  O198  1  0.563021  0.348287  0.578346  1
  O  O199  1  0.651318  0.214487  0.578159  1
  O  O200  1  0.785185  0.436639  0.578321  1
  O  O201  1  0.593833  0.593645  0.649066  1
  O  O202  1  0.593667  0.000000  0.565859  1
  O  O203  1  0.000000  0.593642  0.566021  1
  O  O204  1  0.666571  0.330283  0.607543  1
  O  O205  1  0.558020  0.414846  0.667310  1
  O  O206  1  0.856938  0.441856  0.667459  1
  O  O207  1  0.585186  0.142851  0.667486  1
  O  O208  1  0.558122  0.414939  0.723480  1
  O  O209  1  0.856887  0.441849  0.723379  1
  O  O210  1  0.585223  0.142800  0.723315  1
  O  O211  1  0.571955  0.768971  0.727585  1
  O  O212  1  0.769169  0.571506  0.727623  1
  O  O213  1  0.802780  0.230772  0.727552  1
  O  O214  1  0.651481  0.436607  0.754104  1
  O  O215  1  0.785281  0.348347  0.753973  1
  O  O216  1  0.563113  0.214470  0.753861  1
  O  O217  1  0.593872  0.593658  0.741767  1
  O  O218  1  0.656757  -0.000000  0.671338  1
  O  O219  1  -0.000000  0.656169  0.671347  1
  O  O220  1  0.656877  0.000000  0.719486  1
  O  O221  1  0.000000  0.656176  0.719447  1
  O  O222  1  0.549262  0.839587  0.695414  1
  O  O223  1  0.839334  0.548498  0.695411  1
  O  O224  1  0.709406  0.160000  0.695407  1
  O  O225  1  0.333845  0.669631  0.783244  1
  O  O226  1  0.665536  0.329979  0.783269  1
  Si  Si227  1  0.489812  0.355055  0.126303  1
  Si  Si228  1  0.355118  0.489955  0.126225  1
  Si  Si229  1  0.134768  0.644765  0.126346  1
  Si  Si230  1  0.439768  0.133829  0.147214  1
  Si  Si231  1  0.134135  0.440324  0.147207  1
  Si  Si232  1  0.306017  0.866159  0.147217  1
  Si  Si233  1  0.439630  0.133724  0.189383  1
  Si  Si234  1  0.133976  0.440276  0.189372  1
  Si  Si235  1  0.305833  0.866028  0.189383  1
  Si  Si236  1  0.333485  0.667054  0.101671  1
  Si  Si237  1  0.333520  0.666828  0.234892  1
  Si  Si238  1  0.355276  0.865098  0.302122  1
  Si  Si239  1  0.134957  0.489918  0.301954  1
  Si  Si240  1  0.489987  0.134659  0.302128  1
  Si  Si241  1  0.489803  0.354960  0.210299  1
  Si  Si242  1  0.355048  0.489781  0.210301  1
  Si  Si243  1  0.134698  0.644673  0.210278  1
  Si  Si244  1  0.333659  0.666977  0.277378  1
  Si  Si245  1  0.355254  0.865070  0.385846  1
  Si  Si246  1  0.134876  0.489851  0.385991  1
  Si  Si247  1  0.489986  0.134639  0.385839  1
  Si  Si248  1  0.133675  0.693206  0.322893  1
  Si  Si249  1  0.306323  0.440235  0.322917  1
  Si  Si250  1  0.440397  0.306581  0.322902  1
  Si  Si251  1  0.133717  0.693192  0.365055  1
  Si  Si252  1  0.306460  0.440297  0.365082  1
  Si  Si253  1  0.440519  0.306649  0.365066  1
  Si  Si254  1  0.333440  0.666900  0.410595  1
  Si  Si255  1  0.644668  0.134728  0.126438  1
  Si  Si256  1  0.865114  0.509939  0.126272  1
  Si  Si257  1  0.509949  0.865156  0.126436  1
  Si  Si258  1  0.866349  0.306575  0.147197  1
  Si  Si259  1  0.693563  0.559447  0.147206  1
  Si  Si260  1  0.559646  0.693247  0.147190  1
  Si  Si261  1  0.866206  0.306501  0.189356  1
  Si  Si262  1  0.693435  0.559363  0.189371  1
  Si  Si263  1  0.559537  0.693171  0.189352  1
  Si  Si264  1  0.666468  0.332886  0.101684  1
  Si  Si265  1  0.510132  0.644697  0.302046  1
  Si  Si266  1  0.644890  0.509847  0.301929  1
  Si  Si267  1  0.865281  0.355100  0.302071  1
  Si  Si268  1  0.644606  0.134623  0.210137  1
  Si  Si269  1  0.865057  0.509885  0.210283  1
  Si  Si270  1  0.509874  0.865034  0.210134  1
  Si  Si271  1  0.666577  0.332763  0.277381  1
  Si  Si272  1  0.666539  0.332821  0.234895  1
  Si  Si273  1  0.666440  0.332722  0.410609  1
  Si  Si274  1  0.510148  0.644714  0.385993  1
  Si  Si275  1  0.644917  0.509888  0.386054  1
  Si  Si276  1  0.865213  0.355075  0.385943  1
  Si  Si277  1  0.560126  0.866000  0.322921  1
  Si  Si278  1  0.865882  0.559559  0.322917  1
  Si  Si279  1  0.693913  0.133640  0.322915  1
  Si  Si280  1  0.560238  0.865961  0.365088  1
  Si  Si281  1  0.865932  0.559570  0.365082  1
  Si  Si282  1  0.694002  0.133633  0.365079  1
  Si  Si283  1  0.489812  0.355055  0.477714  1
  Si  Si284  1  0.355118  0.489955  0.477636  1
  Si  Si285  1  0.134768  0.644765  0.477756  1
  Si  Si286  1  0.439768  0.133829  0.498625  1
  Si  Si287  1  0.134135  0.440324  0.498618  1
  Si  Si288  1  0.306017  0.866159  0.498628  1
  Si  Si289  1  0.439630  0.133724  0.540794  1
  Si  Si290  1  0.133976  0.440276  0.540783  1
  Si  Si291  1  0.305833  0.866028  0.540794  1
  Si  Si292  1  0.333485  0.667054  0.453081  1
  Si  Si293  1  0.333520  0.666828  0.586303  1
  Si  Si294  1  0.355276  0.865098  0.653533  1
  Si  Si295  1  0.134957  0.489918  0.653365  1
  Si  Si296  1  0.489987  0.134659  0.653539  1
  Si  Si297  1  0.489803  0.354960  0.561710  1
  Si  Si298  1  0.355048  0.489781  0.561712  1
  Si  Si299  1  0.134698  0.644673  0.561688  1
  Si  Si300  1  0.333659  0.666977  0.628789  1
  Si  Si301  1  0.355254  0.865070  0.737257  1
  Si  Si302  1  0.134876  0.489851  0.737402  1
  Si  Si303  1  0.489986  0.134639  0.737250  1
  Si  Si304  1  0.133675  0.693206  0.674304  1
  Si  Si305  1  0.306323  0.440235  0.674328  1
  Si  Si306  1  0.440397  0.306581  0.674313  1
  Si  Si307  1  0.133717  0.693192  0.716466  1
  Si  Si308  1  0.306460  0.440297  0.716493  1
  Si  Si309  1  0.440519  0.306649  0.716477  1
  Si  Si310  1  0.333440  0.666900  0.762006  1
  Si  Si311  1  0.644668  0.134728  0.477849  1
  Si  Si312  1  0.865114  0.509939  0.477683  1
  Si  Si313  1  0.509949  0.865156  0.477846  1
  Si  Si314  1  0.866349  0.306575  0.498608  1
  Si  Si315  1  0.693563  0.559447  0.498617  1
  Si  Si316  1  0.559646  0.693247  0.498601  1
  Si  Si317  1  0.866206  0.306501  0.540767  1
  Si  Si318  1  0.693435  0.559363  0.540782  1
  Si  Si319  1  0.559537  0.693171  0.540763  1
  Si  Si320  1  0.666468  0.332886  0.453095  1
  Si  Si321  1  0.510132  0.644697  0.653457  1
  Si  Si322  1  0.644890  0.509847  0.653340  1
  Si  Si323  1  0.865281  0.355100  0.653482  1
  Si  Si324  1  0.644606  0.134623  0.561548  1
  Si  Si325  1  0.865057  0.509885  0.561694  1
  Si  Si326  1  0.509874  0.865034  0.561545  1
  Si  Si327  1  0.666577  0.332763  0.628791  1
  Si  Si328  1  0.666539  0.332821  0.586306  1
  Si  Si329  1  0.666440  0.332722  0.762020  1
  Si  Si330  1  0.510148  0.644714  0.737404  1
  Si  Si331  1  0.644917  0.509888  0.737465  1
  Si  Si332  1  0.865213  0.355075  0.737354  1
  Si  Si333  1  0.560126  0.866000  0.674332  1
  Si  Si334  1  0.865882  0.559559  0.674328  1
  Si  Si335  1  0.693913  0.133640  0.674326  1
  Si  Si336  1  0.560238  0.865961  0.716499  1
  Si  Si337  1  0.865932  0.559570  0.716493  1
  Si  Si338  1  0.694002  0.133633  0.716490  1
  H  H339  1  0.333845  0.669631  0.068154  1
  H  H340  1  0.665536  0.329979  0.068180  1
  H  H341  1  0.333845  0.669631  0.795512  1
  H  H342  1  0.665536  0.329979  0.795537  1
