# generated using pymatgen
data_Si12H2O25
_symmetry_space_group_name_H-M   'P 1'
_cell_length_a   7.58105935
_cell_length_b   19.19557793
_cell_length_c   57.23092842
_cell_angle_alpha   134.99978641
_cell_angle_beta   90.00000000
_cell_angle_gamma   90.00000000
_symmetry_Int_Tables_number   1
_chemical_formula_structural   Si12H2O25
_chemical_formula_sum   'Si48 H8 O100'
_cell_volume   5889.09419836
_cell_formula_units_Z   4
loop_
 _symmetry_equiv_pos_site_id
 _symmetry_equiv_pos_as_xyz
  1  'x, y, z'
loop_
 _atom_site_type_symbol
 _atom_site_label
 _atom_site_symmetry_multiplicity
 _atom_site_fract_x
 _atom_site_fract_y
 _atom_site_fract_z
 _atom_site_occupancy
  O  O1  1  0.125164  0.250101  0.200709  1
  O  O2  1  0.125187  0.509073  0.200705  1
  O  O3  1  0.874604  0.750079  0.200703  1
  O  O4  1  0.874583  0.009073  0.200700  1
  O  O5  1  0.330534  0.115258  0.184114  1
  O  O6  1  0.330425  0.574022  0.248097  1
  O  O7  1  0.330468  0.573992  0.184116  1
  O  O8  1  0.330421  0.384970  0.248097  1
  O  O9  1  0.669347  0.615217  0.184124  1
  O  O10  1  0.669283  0.073990  0.248080  1
  O  O11  1  0.669319  0.884935  0.248085  1
  O  O12  1  0.669414  0.074063  0.184123  1
  O  O13  1  0.000000  0.096437  0.184986  1
  O  O14  1  0.000000  0.596439  0.184986  1
  O  O15  1  0.136004  0.073884  0.139280  1
  O  O16  1  0.135983  0.426323  0.222875  1
  O  O17  1  0.136009  0.426298  0.139279  1
  O  O18  1  0.863778  0.926330  0.139280  1
  O  O19  1  0.863760  0.573856  0.139282  1
  O  O20  1  0.863744  0.926299  0.222864  1
  O  O21  1  0.542825  0.250128  0.227911  1
  O  O22  1  0.542771  0.623775  0.227912  1
  O  O23  1  0.456981  0.750073  0.227903  1
  O  O24  1  0.457021  0.123788  0.227899  1
  O  O25  1  0.125164  0.250101  0.437875  1
  O  O26  1  0.125187  0.509073  0.437871  1
  O  O27  1  0.125166  0.250078  0.315018  1
  O  O28  1  0.125191  0.991111  0.315021  1
  O  O29  1  0.874611  0.750110  0.315026  1
  O  O30  1  0.874583  0.491111  0.315029  1
  O  O31  1  0.874604  0.750079  0.437870  1
  O  O32  1  0.874583  0.009073  0.437867  1
  O  O33  1  0.330534  0.115258  0.421280  1
  O  O34  1  0.330425  0.574022  0.485264  1
  O  O35  1  0.330460  0.384937  0.331608  1
  O  O36  1  0.330441  0.926148  0.267629  1
  O  O37  1  0.330404  0.115217  0.267623  1
  O  O38  1  0.330468  0.573992  0.421283  1
  O  O39  1  0.330421  0.384970  0.485264  1
  O  O40  1  0.330420  0.926173  0.331609  1
  O  O41  1  0.669299  0.884960  0.331610  1
  O  O42  1  0.669299  0.426213  0.267650  1
  O  O43  1  0.669347  0.615217  0.421290  1
  O  O44  1  0.669283  0.073990  0.485246  1
  O  O45  1  0.669319  0.884935  0.485252  1
  O  O46  1  0.669339  0.426148  0.331608  1
  O  O47  1  0.669305  0.615247  0.267649  1
  O  O48  1  0.669414  0.074063  0.421290  1
  O  O49  1  -0.000000  0.096437  0.422153  1
  O  O50  1  -0.000000  0.596453  0.257865  1
  O  O51  1  0.000000  0.403732  0.330742  1
  O  O52  1  -0.000000  0.903731  0.257861  1
  O  O53  1  0.000000  0.096441  0.257861  1
  O  O54  1  0.000000  0.596439  0.422153  1
  O  O55  1  0.000000  0.403743  0.257869  1
  O  O56  1  0.000000  0.903757  0.330741  1
  O  O57  1  0.136004  0.073884  0.376447  1
  O  O58  1  0.135983  0.426323  0.460042  1
  O  O59  1  0.136009  0.426298  0.376445  1
  O  O60  1  0.136025  0.073856  0.292849  1
  O  O61  1  0.863778  0.926330  0.376447  1
  O  O62  1  0.863787  0.573892  0.292867  1
  O  O63  1  0.863760  0.573856  0.376449  1
  O  O64  1  0.863744  0.926299  0.460031  1
  O  O65  1  0.542785  0.250074  0.287816  1
  O  O66  1  0.542758  0.876397  0.287819  1
  O  O67  1  0.542825  0.250128  0.465077  1
  O  O68  1  0.542771  0.623775  0.465078  1
  O  O69  1  0.456981  0.750073  0.465069  1
  O  O70  1  0.457021  0.123788  0.465066  1
  O  O71  1  0.456954  0.750097  0.287827  1
  O  O72  1  0.456995  0.376410  0.287825  1
  O  O73  1  0.125166  0.250078  0.552185  1
  O  O74  1  0.125191  0.991111  0.552188  1
  O  O75  1  0.874611  0.750110  0.552192  1
  O  O76  1  0.874583  0.491111  0.552196  1
  O  O77  1  0.330460  0.384937  0.568774  1
  O  O78  1  0.330441  0.926148  0.504796  1
  O  O79  1  0.330404  0.115217  0.504790  1
  O  O80  1  0.330420  0.926173  0.568776  1
  O  O81  1  0.669299  0.884960  0.568777  1
  O  O82  1  0.669299  0.426213  0.504817  1
  O  O83  1  0.669339  0.426148  0.568775  1
  O  O84  1  0.669305  0.615247  0.504816  1
  O  O85  1  -0.000000  0.596453  0.495031  1
  O  O86  1  0.000000  0.403732  0.567909  1
  O  O87  1  0.000000  0.903731  0.495028  1
  O  O88  1  -0.000000  0.096441  0.495027  1
  O  O89  1  -0.000000  0.403743  0.495035  1
  O  O90  1  0.000000  0.903757  0.567908  1
  O  O91  1  0.136004  0.073884  0.613614  1
  O  O92  1  0.136009  0.426298  0.613612  1
  O  O93  1  0.136025  0.073856  0.530016  1
  O  O94  1  0.863778  0.926330  0.613614  1
  O  O95  1  0.863787  0.573892  0.530034  1
  O  O96  1  0.863760  0.573856  0.613616  1
  O  O97  1  0.542785  0.250074  0.524983  1
  O  O98  1  0.542758  0.876397  0.524986  1
  O  O99  1  0.456954  0.750097  0.524993  1
  O  O100  1  0.456995  0.376410  0.524992  1
  Si  Si101  1  0.146394  0.135860  0.177259  1
  Si  Si102  1  0.146333  0.524475  0.231452  1
  Si  Si103  1  0.146364  0.524454  0.177258  1
  Si  Si104  1  0.146326  0.364342  0.231454  1
  Si  Si105  1  0.853435  0.635839  0.177262  1
  Si  Si106  1  0.853391  0.024454  0.231443  1
  Si  Si107  1  0.853416  0.864321  0.231445  1
  Si  Si108  1  0.853472  0.024483  0.177261  1
  Si  Si109  1  0.499894  0.637020  0.204239  1
  Si  Si110  1  0.499955  0.137067  0.204236  1
  Si  Si111  1  0.146394  0.135860  0.414426  1
  Si  Si112  1  0.146333  0.524475  0.468619  1
  Si  Si113  1  0.146354  0.364321  0.338466  1
  Si  Si114  1  0.146354  0.975705  0.284273  1
  Si  Si115  1  0.146331  0.135839  0.284271  1
  Si  Si116  1  0.146364  0.524454  0.414425  1
  Si  Si117  1  0.146326  0.364342  0.468621  1
  Si  Si118  1  0.146336  0.975727  0.338468  1
  Si  Si119  1  0.853414  0.864349  0.338469  1
  Si  Si120  1  0.853415  0.475736  0.284288  1
  Si  Si121  1  0.853435  0.635839  0.414428  1
  Si  Si122  1  0.853391  0.024454  0.468609  1
  Si  Si123  1  0.853416  0.864321  0.468612  1
  Si  Si124  1  0.853425  0.475704  0.338469  1
  Si  Si125  1  0.853421  0.635867  0.284285  1
  Si  Si126  1  0.853472  0.024483  0.414427  1
  Si  Si127  1  0.499867  0.137024  0.257853  1
  Si  Si128  1  0.499858  0.863151  0.311491  1
  Si  Si129  1  0.499880  0.363176  0.257872  1
  Si  Si130  1  0.499894  0.637020  0.441405  1
  Si  Si131  1  0.499955  0.137067  0.441403  1
  Si  Si132  1  0.499876  0.863130  0.257859  1
  Si  Si133  1  0.499897  0.363134  0.311489  1
  Si  Si134  1  0.499864  0.637042  0.257871  1
  Si  Si135  1  0.146354  0.364321  0.575633  1
  Si  Si136  1  0.146354  0.975705  0.521440  1
  Si  Si137  1  0.146331  0.135839  0.521437  1
  Si  Si138  1  0.146336  0.975727  0.575634  1
  Si  Si139  1  0.853414  0.864349  0.575635  1
  Si  Si140  1  0.853415  0.475736  0.521455  1
  Si  Si141  1  0.853425  0.475704  0.575636  1
  Si  Si142  1  0.853421  0.635867  0.521452  1
  Si  Si143  1  0.499867  0.137024  0.495020  1
  Si  Si144  1  0.499858  0.863151  0.548658  1
  Si  Si145  1  0.499880  0.363176  0.495039  1
  Si  Si146  1  0.499876  0.863130  0.495026  1
  Si  Si147  1  0.499897  0.363134  0.548656  1
  Si  Si148  1  0.499864  0.637042  0.495038  1
  H  H149  1  0.136004  0.073884  0.123555  1
  H  H150  1  0.136009  0.426298  0.123553  1
  H  H151  1  0.863778  0.926330  0.123555  1
  H  H152  1  0.863760  0.573856  0.123557  1
  H  H153  1  0.136004  0.073884  0.629340  1
  H  H154  1  0.136009  0.426298  0.629338  1
  H  H155  1  0.863778  0.926330  0.629340  1
  H  H156  1  0.863760  0.573856  0.629342  1
