# generated using pymatgen
data_Si11(HO6)4
_symmetry_space_group_name_H-M   'P 1'
_cell_length_a   8.49308350
_cell_length_b   14.48572599
_cell_length_c   32.24565095
_cell_angle_alpha   90.00000000
_cell_angle_beta   90.00000000
_cell_angle_gamma   90.00000000
_symmetry_Int_Tables_number   1
_chemical_formula_structural   Si11(HO6)4
_chemical_formula_sum   'Si22 H8 O48'
_cell_volume   3967.13343595
_cell_formula_units_Z   2
loop_
 _symmetry_equiv_pos_site_id
 _symmetry_equiv_pos_as_xyz
  1  'x, y, z'
loop_
 _atom_site_type_symbol
 _atom_site_label
 _atom_site_symmetry_multiplicity
 _atom_site_fract_x
 _atom_site_fract_y
 _atom_site_fract_z
 _atom_site_occupancy
  O  O1  1  0.409899  0.319706  0.182973  1
  O  O2  1  0.589887  0.819703  0.182970  1
  O  O3  1  0.409893  0.680267  0.182971  1
  O  O4  1  0.589885  0.180264  0.182974  1
  O  O5  1  0.589889  0.319704  0.243516  1
  O  O6  1  0.114822  0.319703  0.321238  1
  O  O7  1  0.409899  0.319706  0.446367  1
  O  O8  1  0.884964  0.319707  0.368646  1
  O  O9  1  0.589887  0.819703  0.446364  1
  O  O10  1  0.114820  0.819703  0.368642  1
  O  O11  1  0.409897  0.819707  0.243514  1
  O  O12  1  0.884963  0.819706  0.321234  1
  O  O13  1  0.409893  0.680267  0.446365  1
  O  O14  1  0.884959  0.680268  0.368643  1
  O  O15  1  0.589883  0.680265  0.243514  1
  O  O16  1  0.114816  0.680264  0.321235  1
  O  O17  1  0.409896  0.180268  0.243516  1
  O  O18  1  0.884960  0.180267  0.321238  1
  O  O19  1  0.589885  0.180264  0.446367  1
  O  O20  1  0.114819  0.180264  0.368647  1
  O  O21  1  0.416842  0.000000  0.267159  1
  O  O22  1  0.204586  0.000000  0.366815  1
  O  O23  1  0.582939  -0.000000  0.422722  1
  O  O24  1  0.795196  -0.000000  0.323066  1
  O  O25  1  0.416842  0.499987  0.422722  1
  O  O26  1  0.204586  0.499982  0.323066  1
  O  O27  1  0.582939  0.499984  0.267159  1
  O  O28  1  0.795195  0.499987  0.366815  1
  O  O29  1  0.317576  0.119939  0.318303  1
  O  O30  1  0.398749  0.119937  0.392962  1
  O  O31  1  0.682202  0.119939  0.371581  1
  O  O32  1  0.601030  0.119941  0.296922  1
  O  O33  1  0.317576  0.619939  0.371579  1
  O  O34  1  0.398749  0.619937  0.296919  1
  O  O35  1  0.682199  0.619940  0.318300  1
  O  O36  1  0.601026  0.619941  0.392960  1
  O  O37  1  0.682204  0.880031  0.371579  1
  O  O38  1  0.601031  0.880034  0.296919  1
  O  O39  1  0.317580  0.880032  0.318299  1
  O  O40  1  0.398754  0.880029  0.392959  1
  O  O41  1  0.682207  0.380032  0.318303  1
  O  O42  1  0.601034  0.380034  0.392962  1
  O  O43  1  0.317581  0.380031  0.371581  1
  O  O44  1  0.398753  0.380030  0.296922  1
  O  O45  1  0.589889  0.319704  0.506910  1
  O  O46  1  0.409897  0.819707  0.506908  1
  O  O47  1  0.589883  0.680265  0.506908  1
  O  O48  1  0.409896  0.180268  0.506910  1
  Si  Si49  1  0.428265  0.105954  0.279709  1
  Si  Si50  1  0.252226  0.105950  0.363807  1
  Si  Si51  1  0.571513  0.105950  0.410175  1
  Si  Si52  1  0.747553  0.105953  0.326076  1
  Si  Si53  1  0.428264  0.605952  0.410173  1
  Si  Si54  1  0.252224  0.605950  0.326074  1
  Si  Si55  1  0.571511  0.605951  0.279706  1
  Si  Si56  1  0.747552  0.605954  0.363805  1
  Si  Si57  1  0.571516  0.894017  0.410172  1
  Si  Si58  1  0.747555  0.894021  0.326074  1
  Si  Si59  1  0.428268  0.894021  0.279706  1
  Si  Si60  1  0.252228  0.894018  0.363804  1
  Si  Si61  1  0.571517  0.394018  0.279708  1
  Si  Si62  1  0.747557  0.394021  0.363807  1
  Si  Si63  1  0.428269  0.394020  0.410175  1
  Si  Si64  1  0.252230  0.394017  0.326076  1
  Si  Si65  1  0.499893  0.249985  0.213245  1
  Si  Si66  1  -0.000000  0.249985  0.344943  1
  Si  Si67  1  0.499890  0.749985  0.213243  1
  Si  Si68  1  0.000000  0.749985  0.344938  1
  Si  Si69  1  0.499893  0.249985  0.476638  1
  Si  Si70  1  0.499890  0.749985  0.476637  1
  H  H71  1  0.409899  0.319706  0.155063  1
  H  H72  1  0.589887  0.819703  0.155060  1
  H  H73  1  0.409893  0.680267  0.155060  1
  H  H74  1  0.589885  0.180264  0.155063  1
  H  H75  1  0.589889  0.319704  0.534821  1
  H  H76  1  0.409897  0.819707  0.534818  1
  H  H77  1  0.589883  0.680265  0.534819  1
  H  H78  1  0.409896  0.180268  0.534821  1
