# generated using pymatgen
data_Si18H2O37
_symmetry_space_group_name_H-M   'P 1'
_cell_length_a   7.52286856
_cell_length_b   18.52622819
_cell_length_c   68.76078300
_cell_angle_alpha   46.50772482
_cell_angle_beta   90.00000000
_cell_angle_gamma   90.00000000
_symmetry_Int_Tables_number   1
_chemical_formula_structural   Si18H2O37
_chemical_formula_sum   'Si72 H8 O148'
_cell_volume   6952.30890875
_cell_formula_units_Z   4
loop_
 _symmetry_equiv_pos_site_id
 _symmetry_equiv_pos_as_xyz
  1  'x, y, z'
loop_
 _atom_site_type_symbol
 _atom_site_label
 _atom_site_symmetry_multiplicity
 _atom_site_fract_x
 _atom_site_fract_y
 _atom_site_fract_z
 _atom_site_occupancy
  O  O1  1  0.148104  0.946405  0.113322  1
  O  O2  1  0.351727  0.446405  0.113322  1
  O  O3  1  0.485696  0.616496  0.273822  1
  O  O4  1  0.014134  0.383307  0.224345  1
  O  O5  1  0.514137  0.116496  0.204314  1
  O  O6  1  0.985694  0.883307  0.154837  1
  O  O7  1  0.514135  0.383307  0.154837  1
  O  O8  1  0.985696  0.616495  0.204314  1
  O  O9  1  0.485694  0.883307  0.224345  1
  O  O10  1  0.014137  0.116495  0.273822  1
  O  O11  1  0.903890  0.577104  0.246496  1
  O  O12  1  0.595941  0.422699  0.182409  1
  O  O13  1  0.095942  0.077104  0.246250  1
  O  O14  1  0.403889  0.922699  0.182164  1
  O  O15  1  0.095941  0.422698  0.182164  1
  O  O16  1  0.403890  0.577104  0.246250  1
  O  O17  1  0.903889  0.922699  0.182409  1
  O  O18  1  0.595941  0.077104  0.246495  1
  O  O19  1  0.156185  0.602520  0.266205  1
  O  O20  1  0.343646  0.397282  0.211545  1
  O  O21  1  0.843647  0.102520  0.217114  1
  O  O22  1  0.656184  0.897283  0.162454  1
  O  O23  1  0.843647  0.397282  0.162455  1
  O  O24  1  0.656186  0.602520  0.217114  1
  O  O25  1  0.156184  0.897283  0.211545  1
  O  O26  1  0.343648  0.102520  0.266205  1
  O  O27  1  0.821497  0.618218  0.274127  1
  O  O28  1  0.678335  0.381585  0.225289  1
  O  O29  1  0.178337  0.118218  0.203370  1
  O  O30  1  0.321495  0.881584  0.154533  1
  O  O31  1  0.178334  0.381585  0.154532  1
  O  O32  1  0.321496  0.618217  0.203370  1
  O  O33  1  0.821494  0.881585  0.225289  1
  O  O34  1  0.678335  0.118217  0.274127  1
  O  O35  1  0.648104  0.553398  0.129900  1
  O  O36  1  0.851727  0.446405  0.242459  1
  O  O37  1  0.351727  0.053398  0.186200  1
  O  O38  1  0.148104  0.946405  0.298759  1
  O  O39  1  0.351727  0.446405  0.298759  1
  O  O40  1  0.148104  0.553398  0.186200  1
  O  O41  1  0.648104  0.946405  0.242459  1
  O  O42  1  0.851727  0.053397  0.129900  1
  O  O43  1  0.964095  0.749901  0.228634  1
  O  O44  1  0.535736  0.249901  0.228634  1
  O  O45  1  0.035736  0.249902  0.200026  1
  O  O46  1  0.464095  0.749901  0.200026  1
  O  O47  1  0.648785  0.749902  0.268498  1
  O  O48  1  0.851046  0.249902  0.268498  1
  O  O49  1  0.351046  0.249902  0.160161  1
  O  O50  1  0.148785  0.749901  0.160161  1
  O  O51  1  0.485696  0.616496  0.459259  1
  O  O52  1  0.014134  0.383307  0.409782  1
  O  O53  1  0.514137  0.116496  0.389751  1
  O  O54  1  0.985694  0.883307  0.340274  1
  O  O55  1  0.514135  0.383307  0.340275  1
  O  O56  1  0.985696  0.616495  0.389751  1
  O  O57  1  0.485694  0.883307  0.409782  1
  O  O58  1  0.014137  0.116495  0.459259  1
  O  O59  1  0.903890  0.577104  0.431933  1
  O  O60  1  0.595941  0.422699  0.367847  1
  O  O61  1  0.095942  0.077104  0.431687  1
  O  O62  1  0.403889  0.922699  0.367601  1
  O  O63  1  0.095941  0.422698  0.367601  1
  O  O64  1  0.403890  0.577104  0.431687  1
  O  O65  1  0.903889  0.922699  0.367846  1
  O  O66  1  0.595941  0.077104  0.431932  1
  O  O67  1  0.156185  0.602520  0.451642  1
  O  O68  1  0.343646  0.397282  0.396982  1
  O  O69  1  0.843647  0.102520  0.402551  1
  O  O70  1  0.656184  0.897283  0.347891  1
  O  O71  1  0.843647  0.397282  0.347892  1
  O  O72  1  0.656186  0.602520  0.402551  1
  O  O73  1  0.156184  0.897283  0.396982  1
  O  O74  1  0.343648  0.102520  0.451642  1
  O  O75  1  0.821497  0.618218  0.459564  1
  O  O76  1  0.678335  0.381585  0.410726  1
  O  O77  1  0.178337  0.118218  0.388808  1
  O  O78  1  0.321495  0.881584  0.339970  1
  O  O79  1  0.178334  0.381585  0.339970  1
  O  O80  1  0.321496  0.618217  0.388808  1
  O  O81  1  0.821494  0.881585  0.410726  1
  O  O82  1  0.678335  0.118217  0.459564  1
  O  O83  1  0.648104  0.553398  0.315337  1
  O  O84  1  0.851727  0.446405  0.427896  1
  O  O85  1  0.351727  0.053398  0.371637  1
  O  O86  1  0.148104  0.946405  0.484196  1
  O  O87  1  0.351727  0.446405  0.484196  1
  O  O88  1  0.148104  0.553398  0.371637  1
  O  O89  1  0.648104  0.946405  0.427896  1
  O  O90  1  0.851727  0.053397  0.315337  1
  O  O91  1  0.964095  0.749901  0.414071  1
  O  O92  1  0.535736  0.249901  0.414071  1
  O  O93  1  0.035736  0.249902  0.385463  1
  O  O94  1  0.464095  0.749901  0.385463  1
  O  O95  1  0.648785  0.749902  0.453935  1
  O  O96  1  0.851046  0.249902  0.453935  1
  O  O97  1  0.351046  0.249902  0.345598  1
  O  O98  1  0.148785  0.749901  0.345598  1
  O  O99  1  0.485696  0.616496  0.644696  1
  O  O100  1  0.014134  0.383307  0.595220  1
  O  O101  1  0.514137  0.116496  0.575188  1
  O  O102  1  0.985694  0.883307  0.525712  1
  O  O103  1  0.514135  0.383307  0.525712  1
  O  O104  1  0.985696  0.616495  0.575189  1
  O  O105  1  0.485694  0.883307  0.595220  1
  O  O106  1  0.014137  0.116495  0.644696  1
  O  O107  1  0.903890  0.577104  0.617370  1
  O  O108  1  0.595941  0.422699  0.553284  1
  O  O109  1  0.095942  0.077104  0.617124  1
  O  O110  1  0.403889  0.922699  0.553038  1
  O  O111  1  0.095941  0.422698  0.553038  1
  O  O112  1  0.403890  0.577104  0.617124  1
  O  O113  1  0.903889  0.922699  0.553283  1
  O  O114  1  0.595941  0.077104  0.617370  1
  O  O115  1  0.156185  0.602520  0.637079  1
  O  O116  1  0.343646  0.397282  0.582420  1
  O  O117  1  0.843647  0.102520  0.587988  1
  O  O118  1  0.656184  0.897283  0.533328  1
  O  O119  1  0.843647  0.397282  0.533329  1
  O  O120  1  0.656186  0.602520  0.587989  1
  O  O121  1  0.156184  0.897283  0.582419  1
  O  O122  1  0.343648  0.102520  0.637079  1
  O  O123  1  0.821497  0.618218  0.645001  1
  O  O124  1  0.678335  0.381585  0.596163  1
  O  O125  1  0.178337  0.118218  0.574245  1
  O  O126  1  0.321495  0.881584  0.525407  1
  O  O127  1  0.178334  0.381585  0.525407  1
  O  O128  1  0.321496  0.618217  0.574245  1
  O  O129  1  0.821494  0.881585  0.596163  1
  O  O130  1  0.678335  0.118217  0.645001  1
  O  O131  1  0.648104  0.553398  0.500774  1
  O  O132  1  0.851727  0.446405  0.613333  1
  O  O133  1  0.351727  0.053398  0.557074  1
  O  O134  1  0.148104  0.946405  0.669633  1
  O  O135  1  0.351727  0.446405  0.669634  1
  O  O136  1  0.148104  0.553398  0.557075  1
  O  O137  1  0.648104  0.946405  0.613333  1
  O  O138  1  0.851727  0.053397  0.500775  1
  O  O139  1  0.964095  0.749901  0.599508  1
  O  O140  1  0.535736  0.249901  0.599508  1
  O  O141  1  0.035736  0.249902  0.570900  1
  O  O142  1  0.464095  0.749901  0.570900  1
  O  O143  1  0.648785  0.749902  0.639372  1
  O  O144  1  0.851046  0.249902  0.639372  1
  O  O145  1  0.351046  0.249902  0.531035  1
  O  O146  1  0.148785  0.749901  0.531035  1
  O  O147  1  0.648104  0.553398  0.686211  1
  O  O148  1  0.851727  0.053397  0.686212  1
  Si  Si149  1  0.962338  0.635209  0.254486  1
  Si  Si150  1  0.537493  0.364593  0.211950  1
  Si  Si151  1  0.037494  0.135209  0.216709  1
  Si  Si152  1  0.462338  0.864594  0.174173  1
  Si  Si153  1  0.037492  0.364594  0.174173  1
  Si  Si154  1  0.462338  0.635209  0.216709  1
  Si  Si155  1  0.962337  0.864594  0.211950  1
  Si  Si156  1  0.537493  0.135209  0.254486  1
  Si  Si157  1  0.348864  0.559497  0.271255  1
  Si  Si158  1  0.150965  0.440307  0.200639  1
  Si  Si159  1  0.650967  0.059496  0.228021  1
  Si  Si160  1  0.848864  0.940306  0.157404  1
  Si  Si161  1  0.650967  0.440307  0.157404  1
  Si  Si162  1  0.848865  0.559496  0.228021  1
  Si  Si163  1  0.348864  0.940307  0.200638  1
  Si  Si164  1  0.150969  0.059495  0.271255  1
  Si  Si165  1  0.651085  0.635929  0.283646  1
  Si  Si166  1  0.848747  0.363874  0.241377  1
  Si  Si167  1  0.348747  0.135929  0.187282  1
  Si  Si168  1  0.151083  0.863875  0.145013  1
  Si  Si169  1  0.348746  0.363875  0.145013  1
  Si  Si170  1  0.151084  0.635927  0.187283  1
  Si  Si171  1  0.651083  0.863874  0.241377  1
  Si  Si172  1  0.848746  0.135928  0.283647  1
  Si  Si173  1  0.962338  0.635209  0.439924  1
  Si  Si174  1  0.537493  0.364593  0.397387  1
  Si  Si175  1  0.037494  0.135209  0.402146  1
  Si  Si176  1  0.462338  0.864594  0.359610  1
  Si  Si177  1  0.037492  0.364594  0.359610  1
  Si  Si178  1  0.462338  0.635209  0.402146  1
  Si  Si179  1  0.962337  0.864594  0.397387  1
  Si  Si180  1  0.537493  0.135209  0.439924  1
  Si  Si181  1  0.348864  0.559497  0.456692  1
  Si  Si182  1  0.150965  0.440307  0.386076  1
  Si  Si183  1  0.650967  0.059496  0.413458  1
  Si  Si184  1  0.848864  0.940306  0.342841  1
  Si  Si185  1  0.650967  0.440307  0.342841  1
  Si  Si186  1  0.848865  0.559496  0.413458  1
  Si  Si187  1  0.348864  0.940307  0.386076  1
  Si  Si188  1  0.150969  0.059495  0.456692  1
  Si  Si189  1  0.651085  0.635929  0.469084  1
  Si  Si190  1  0.848747  0.363874  0.426814  1
  Si  Si191  1  0.348747  0.135929  0.372719  1
  Si  Si192  1  0.151083  0.863875  0.330450  1
  Si  Si193  1  0.348746  0.363875  0.330450  1
  Si  Si194  1  0.151084  0.635927  0.372720  1
  Si  Si195  1  0.651083  0.863874  0.426814  1
  Si  Si196  1  0.848746  0.135928  0.469084  1
  Si  Si197  1  0.962338  0.635209  0.625361  1
  Si  Si198  1  0.537493  0.364593  0.582824  1
  Si  Si199  1  0.037494  0.135209  0.587584  1
  Si  Si200  1  0.462338  0.864594  0.545047  1
  Si  Si201  1  0.037492  0.364594  0.545047  1
  Si  Si202  1  0.462338  0.635209  0.587584  1
  Si  Si203  1  0.962337  0.864594  0.582824  1
  Si  Si204  1  0.537493  0.135209  0.625361  1
  Si  Si205  1  0.348864  0.559497  0.642129  1
  Si  Si206  1  0.150965  0.440307  0.571513  1
  Si  Si207  1  0.650967  0.059496  0.598895  1
  Si  Si208  1  0.848864  0.940306  0.528279  1
  Si  Si209  1  0.650967  0.440307  0.528279  1
  Si  Si210  1  0.848865  0.559496  0.598895  1
  Si  Si211  1  0.348864  0.940307  0.571513  1
  Si  Si212  1  0.150969  0.059495  0.642130  1
  Si  Si213  1  0.651085  0.635929  0.654521  1
  Si  Si214  1  0.848747  0.363874  0.612251  1
  Si  Si215  1  0.348747  0.135929  0.558156  1
  Si  Si216  1  0.151083  0.863875  0.515887  1
  Si  Si217  1  0.348746  0.363875  0.515887  1
  Si  Si218  1  0.151084  0.635927  0.558157  1
  Si  Si219  1  0.651083  0.863874  0.612251  1
  Si  Si220  1  0.848746  0.135928  0.654521  1
  H  H221  1  0.148104  0.946405  0.100233  1
  H  H222  1  0.351727  0.446405  0.100233  1
  H  H223  1  0.648104  0.553398  0.116811  1
  H  H224  1  0.851727  0.053397  0.116811  1
  H  H225  1  0.148104  0.946405  0.682722  1
  H  H226  1  0.351727  0.446405  0.682722  1
  H  H227  1  0.648104  0.553398  0.699300  1
  H  H228  1  0.851727  0.053397  0.699301  1
