# generated using pymatgen
data_Si12H2O25
_symmetry_space_group_name_H-M   'P 1'
_cell_length_a   14.05413494
_cell_length_b   13.77403359
_cell_length_c   41.90499272
_cell_angle_alpha   90.00000000
_cell_angle_beta   90.00000000
_cell_angle_gamma   90.00000000
_symmetry_Int_Tables_number   1
_chemical_formula_structural   Si12H2O25
_chemical_formula_sum   'Si48 H8 O100'
_cell_volume   8112.05761103
_cell_formula_units_Z   4
loop_
 _symmetry_equiv_pos_site_id
 _symmetry_equiv_pos_as_xyz
  1  'x, y, z'
loop_
 _atom_site_type_symbol
 _atom_site_label
 _atom_site_symmetry_multiplicity
 _atom_site_fract_x
 _atom_site_fract_y
 _atom_site_fract_z
 _atom_site_occupancy
  O  O1  1  0.000000  0.337983  0.567099  1
  O  O2  1  0.500420  0.663924  0.620570  1
  O  O3  1  0.584192  0.750958  0.572985  1
  O  O4  1  0.910927  0.249755  0.613312  1
  O  O5  1  0.659416  0.837265  0.523055  1
  O  O6  1  0.660806  0.661766  0.523219  1
  O  O7  1  0.500310  0.842061  0.619650  1
  O  O8  1  0.998835  0.162135  0.566861  1
  O  O9  1  0.770513  0.749946  0.489951  1
  O  O10  1  0.770470  0.250832  0.271321  1
  O  O11  1  0.829032  0.914994  0.509810  1
  O  O12  1  0.832366  0.086927  0.251236  1
  O  O13  1  0.830682  0.584649  0.509188  1
  O  O14  1  0.831034  0.416356  0.252101  1
  O  O15  1  0.709906  0.914168  0.468471  1
  O  O16  1  0.710922  0.085251  0.291831  1
  O  O17  1  0.709790  0.586778  0.468219  1
  O  O18  1  0.706698  0.413068  0.292769  1
  O  O19  1  0.630174  0.249804  0.421375  1
  O  O20  1  0.630326  0.749765  0.339363  1
  O  O21  1  0.671965  0.414948  0.447136  1
  O  O22  1  0.671146  0.585065  0.313253  1
  O  O23  1  0.671934  0.085834  0.447437  1
  O  O24  1  0.672412  0.913822  0.313191  1
  O  O25  1  0.628417  0.412151  0.391892  1
  O  O26  1  0.629970  0.585606  0.368761  1
  O  O27  1  0.629239  0.085297  0.392147  1
  O  O28  1  0.628159  0.912026  0.369034  1
  O  O29  1  0.998225  0.750427  0.243734  1
  O  O30  1  0.913711  0.916672  0.243128  1
  O  O31  1  0.912983  0.084872  0.517058  1
  O  O32  1  0.911628  0.585918  0.242935  1
  O  O33  1  0.912247  0.414974  0.517904  1
  O  O34  1  0.750767  0.525499  0.411297  1
  O  O35  1  0.747857  0.473158  0.349565  1
  O  O36  1  0.748008  0.973670  0.411121  1
  O  O37  1  0.748166  0.023969  0.349142  1
  O  O38  1  0.840135  0.473639  0.464544  1
  O  O39  1  0.839563  0.526067  0.296308  1
  O  O40  1  0.840325  0.026568  0.463663  1
  O  O41  1  0.841079  0.972391  0.296650  1
  O  O42  1  0.998025  0.962384  0.488723  1
  O  O43  1  0.000000  0.037478  0.273230  1
  O  O44  1  0.500054  0.872264  0.329211  1
  O  O45  1  0.501656  0.337576  0.140795  1
  O  O46  1  0.502160  0.161867  0.140806  1
  O  O47  1  0.914479  0.750666  0.146949  1
  O  O48  1  0.588961  0.250573  0.187372  1
  O  O49  1  0.663032  0.162724  0.237065  1
  O  O50  1  0.661558  0.338646  0.237536  1
  O  O51  1  0.414700  0.751135  0.573240  1
  O  O52  1  0.087413  0.249027  0.613382  1
  O  O53  1  0.338328  0.659864  0.524146  1
  O  O54  1  0.337603  0.837804  0.523037  1
  O  O55  1  0.231655  0.249932  0.270721  1
  O  O56  1  0.229893  0.751075  0.489844  1
  O  O57  1  0.169502  0.415529  0.252010  1
  O  O58  1  0.169256  0.585683  0.509282  1
  O  O59  1  0.168876  0.084472  0.252136  1
  O  O60  1  0.167223  0.915130  0.510101  1
  O  O61  1  0.290952  0.414772  0.291903  1
  O  O62  1  0.292213  0.585631  0.468970  1
  O  O63  1  0.290778  0.085079  0.291888  1
  O  O64  1  0.291414  0.914204  0.468144  1
  O  O65  1  0.369739  0.750418  0.339533  1
  O  O66  1  0.368954  0.250329  0.421451  1
  O  O67  1  0.327332  0.913651  0.313134  1
  O  O68  1  0.327837  0.085622  0.447404  1
  O  O69  1  0.327657  0.586329  0.313321  1
  O  O70  1  0.328856  0.413155  0.448445  1
  O  O71  1  0.370756  0.915317  0.368367  1
  O  O72  1  0.371180  0.088498  0.391494  1
  O  O73  1  0.371410  0.588260  0.369193  1
  O  O74  1  0.370232  0.415295  0.392440  1
  O  O75  1  0.499877  0.372311  0.431560  1
  O  O76  1  -0.000000  0.535843  0.488598  1
  O  O77  1  0.088143  0.415774  0.518135  1
  O  O78  1  0.085563  0.585306  0.243757  1
  O  O79  1  0.087415  0.085227  0.518258  1
  O  O80  1  0.085957  0.914760  0.243943  1
  O  O81  1  0.498788  0.748092  0.522141  1
  O  O82  1  0.251672  0.026540  0.349329  1
  O  O83  1  0.251689  0.975891  0.411369  1
  O  O84  1  0.251800  0.475915  0.349219  1
  O  O85  1  0.252826  0.525765  0.411543  1
  O  O86  1  0.158154  0.972523  0.297273  1
  O  O87  1  0.159545  0.025051  0.465088  1
  O  O88  1  0.158846  0.528262  0.296973  1
  O  O89  1  0.161033  0.473573  0.464804  1
  O  O90  1  0.000000  0.464332  0.272892  1
  O  O91  1  0.499668  0.127862  0.431263  1
  O  O92  1  0.000000  0.250619  0.517035  1
  O  O93  1  0.499842  0.627709  0.329588  1
  O  O94  1  0.088580  0.749813  0.147307  1
  O  O95  1  0.414823  0.249566  0.187677  1
  O  O96  1  0.337809  0.339575  0.236661  1
  O  O97  1  0.337603  0.159959  0.236680  1
  O  O98  1  0.499181  0.249767  0.237056  1
  O  O99  1  0.001593  0.838105  0.193952  1
  O  O100  1  -0.000000  0.662542  0.193946  1
  Si  Si101  1  0.600130  0.749085  0.536053  1
  Si  Si102  1  -0.000000  0.249576  0.591246  1
  Si  Si103  1  0.893687  0.005146  0.266056  1
  Si  Si104  1  0.690734  0.997765  0.379978  1
  Si  Si105  1  0.692051  0.497851  0.381359  1
  Si  Si106  1  0.896714  0.498707  0.265465  1
  Si  Si107  1  0.895897  0.502260  0.495599  1
  Si  Si108  1  0.741709  0.856278  0.498644  1
  Si  Si109  1  0.743851  0.144190  0.262028  1
  Si  Si110  1  0.741803  0.643908  0.498467  1
  Si  Si111  1  0.741345  0.357676  0.262947  1
  Si  Si112  1  0.606364  0.359158  0.423400  1
  Si  Si113  1  0.606286  0.640867  0.337110  1
  Si  Si114  1  0.606113  0.140941  0.423678  1
  Si  Si115  1  0.606685  0.859283  0.337341  1
  Si  Si116  1  0.745027  0.500167  0.447131  1
  Si  Si117  1  0.743654  0.498834  0.312968  1
  Si  Si118  1  0.745379  0.000000  0.447500  1
  Si  Si119  1  0.746199  0.998645  0.312700  1
  Si  Si120  1  0.891512  0.995528  0.494738  1
  Si  Si121  1  -0.000000  0.856156  0.230628  1
  Si  Si122  1  0.998379  0.643890  0.230824  1
  Si  Si123  1  0.603765  0.250485  0.223849  1
  Si  Si124  1  0.502563  0.249771  0.164562  1
  Si  Si125  1  -0.000000  0.358330  0.529941  1
  Si  Si126  1  0.396960  0.748261  0.536078  1
  Si  Si127  1  0.000000  0.143580  0.529924  1
  Si  Si128  1  0.499940  0.752935  0.597473  1
  Si  Si129  1  0.259557  0.355994  0.261804  1
  Si  Si130  1  0.259438  0.644876  0.499007  1
  Si  Si131  1  0.259210  0.143777  0.261794  1
  Si  Si132  1  0.255840  0.859581  0.498068  1
  Si  Si133  1  0.393647  0.859222  0.336912  1
  Si  Si134  1  0.392990  0.140799  0.423244  1
  Si  Si135  1  0.393174  0.640925  0.337506  1
  Si  Si136  1  0.392798  0.359704  0.424169  1
  Si  Si137  1  0.253918  -0.000000  0.312934  1
  Si  Si138  1  0.255153  -0.000000  0.447882  1
  Si  Si139  1  0.254177  0.501144  0.312751  1
  Si  Si140  1  0.257442  0.498390  0.447867  1
  Si  Si141  1  0.105524  0.497454  0.266410  1
  Si  Si142  1  0.104489  0.502790  0.495687  1
  Si  Si143  1  0.104661  0.002833  0.266651  1
  Si  Si144  1  0.103242  0.996400  0.496276  1
  Si  Si145  1  0.308876  0.002585  0.380507  1
  Si  Si146  1  0.308817  0.502482  0.380087  1
  Si  Si147  1  0.393243  0.249690  0.224531  1
  Si  Si148  1  0.002165  0.750407  0.170147  1
  H  H149  1  0.500420  0.663924  0.642047  1
  H  H150  1  0.910927  0.249755  0.634789  1
  H  H151  1  0.500310  0.842061  0.641128  1
  H  H152  1  0.501656  0.337576  0.119318  1
  H  H153  1  0.502160  0.161867  0.119329  1
  H  H154  1  0.914479  0.750666  0.125472  1
  H  H155  1  0.087413  0.249027  0.634859  1
  H  H156  1  0.088580  0.749813  0.125829  1
