# generated using pymatgen
data_Si35H2O71
_symmetry_space_group_name_H-M   'P 1'
_cell_length_a   14.05413494
_cell_length_b   13.77403359
_cell_length_c   77.63151408
_cell_angle_alpha   90.00000000
_cell_angle_beta   90.00000000
_cell_angle_gamma   90.00000000
_symmetry_Int_Tables_number   1
_chemical_formula_structural   Si35H2O71
_chemical_formula_sum   'Si140 H8 O284'
_cell_volume   15028.073597
_cell_formula_units_Z   4
loop_
 _symmetry_equiv_pos_site_id
 _symmetry_equiv_pos_as_xyz
  1  'x, y, z'
loop_
 _atom_site_type_symbol
 _atom_site_label
 _atom_site_symmetry_multiplicity
 _atom_site_fract_x
 _atom_site_fract_y
 _atom_site_fract_z
 _atom_site_occupancy
  O  O1  1  -0.000000  0.337983  0.306117  1
  O  O2  1  0.500420  0.663924  0.334980  1
  O  O3  1  0.584192  0.750958  0.309294  1
  O  O4  1  0.910927  0.249755  0.331062  1
  O  O5  1  0.730466  0.249767  0.376629  1
  O  O6  1  0.667406  0.413527  0.366130  1
  O  O7  1  0.668114  0.085831  0.366024  1
  O  O8  1  0.791425  0.414494  0.387691  1
  O  O9  1  0.791052  0.085041  0.387823  1
  O  O10  1  0.659416  0.837265  0.282342  1
  O  O11  1  0.836769  0.337500  0.357971  1
  O  O12  1  0.836810  0.161770  0.358017  1
  O  O13  1  0.660806  0.661766  0.282430  1
  O  O14  1  0.868741  0.749419  0.413139  1
  O  O15  1  0.828219  0.912760  0.398875  1
  O  O16  1  0.827781  0.586705  0.398690  1
  O  O17  1  0.870449  0.912128  0.429118  1
  O  O18  1  0.870608  0.584695  0.428846  1
  O  O19  1  0.587942  0.583702  0.361272  1
  O  O20  1  0.589217  0.916246  0.360882  1
  O  O21  1  0.750178  0.024700  0.418650  1
  O  O22  1  0.752834  0.473971  0.418723  1
  O  O23  1  0.660114  0.972810  0.389863  1
  O  O24  1  0.659277  0.525584  0.390095  1
  O  O25  1  0.500310  0.842061  0.334483  1
  O  O26  1  0.998835  0.162135  0.305988  1
  O  O27  1  0.000000  0.871767  0.407859  1
  O  O28  1  0.000000  0.626820  0.407461  1
  O  O29  1  0.503337  0.750945  0.361475  1
  O  O30  1  0.000000  0.249194  0.357606  1
  O  O31  1  0.770513  0.749946  0.264473  1
  O  O32  1  0.770470  0.250832  0.146457  1
  O  O33  1  0.829032  0.914994  0.275192  1
  O  O34  1  0.832366  0.086927  0.135616  1
  O  O35  1  0.830682  0.584649  0.274856  1
  O  O36  1  0.831034  0.416356  0.136082  1
  O  O37  1  0.709906  0.914168  0.252878  1
  O  O38  1  0.710922  0.085251  0.157528  1
  O  O39  1  0.709790  0.586778  0.252741  1
  O  O40  1  0.706698  0.413068  0.158035  1
  O  O41  1  0.630174  0.249804  0.227455  1
  O  O42  1  0.630326  0.749765  0.183186  1
  O  O43  1  0.671965  0.414948  0.241361  1
  O  O44  1  0.671146  0.585065  0.169092  1
  O  O45  1  0.671934  0.085834  0.241523  1
  O  O46  1  0.672412  0.913822  0.169058  1
  O  O47  1  0.628417  0.412151  0.211541  1
  O  O48  1  0.629970  0.585606  0.199055  1
  O  O49  1  0.629239  0.085297  0.211679  1
  O  O50  1  0.628159  0.912026  0.199202  1
  O  O51  1  0.998225  0.750427  0.131566  1
  O  O52  1  0.913711  0.916672  0.131239  1
  O  O53  1  0.912983  0.084872  0.279105  1
  O  O54  1  0.911628  0.585918  0.131135  1
  O  O55  1  0.912247  0.414974  0.279561  1
  O  O56  1  0.750767  0.525499  0.222016  1
  O  O57  1  0.747857  0.473158  0.188693  1
  O  O58  1  0.748008  0.973670  0.221920  1
  O  O59  1  0.748166  0.023969  0.188464  1
  O  O60  1  0.840135  0.473639  0.250758  1
  O  O61  1  0.839563  0.526067  0.159945  1
  O  O62  1  0.840325  0.026568  0.250282  1
  O  O63  1  0.841079  0.972391  0.160130  1
  O  O64  1  0.998025  0.962384  0.263809  1
  O  O65  1  -0.000000  0.037478  0.147488  1
  O  O66  1  0.500054  0.872264  0.177706  1
  O  O67  1  0.501656  0.337576  0.076000  1
  O  O68  1  0.502160  0.161867  0.076006  1
  O  O69  1  0.914479  0.750666  0.079322  1
  O  O70  1  0.588961  0.250573  0.101142  1
  O  O71  1  0.663032  0.162724  0.127966  1
  O  O72  1  0.661558  0.338646  0.128221  1
  O  O73  1  0.499517  0.037127  0.377273  1
  O  O74  1  0.499843  0.458981  0.377882  1
  O  O75  1  0.414700  0.751135  0.309431  1
  O  O76  1  0.087413  0.249027  0.331100  1
  O  O77  1  0.268990  0.249118  0.376593  1
  O  O78  1  0.331243  0.085842  0.365775  1
  O  O79  1  0.330942  0.414692  0.366496  1
  O  O80  1  0.208451  0.084992  0.387980  1
  O  O81  1  0.207025  0.412373  0.387824  1
  O  O82  1  0.338328  0.659864  0.282931  1
  O  O83  1  0.161806  0.161047  0.358073  1
  O  O84  1  0.161615  0.336988  0.358042  1
  O  O85  1  0.337603  0.837804  0.282332  1
  O  O86  1  0.129846  0.749016  0.413125  1
  O  O87  1  0.173166  0.584491  0.398891  1
  O  O88  1  0.171439  0.913581  0.399339  1
  O  O89  1  0.127450  0.586408  0.428932  1
  O  O90  1  0.129490  0.913508  0.428912  1
  O  O91  1  0.414917  0.916848  0.361467  1
  O  O92  1  0.416927  0.584008  0.361959  1
  O  O93  1  0.247519  0.473677  0.418432  1
  O  O94  1  0.249196  0.027442  0.418875  1
  O  O95  1  0.343228  0.525818  0.390578  1
  O  O96  1  0.339258  0.974987  0.390300  1
  O  O97  1  0.231655  0.249932  0.146134  1
  O  O98  1  0.229893  0.751075  0.264415  1
  O  O99  1  0.169502  0.415529  0.136034  1
  O  O100  1  0.169256  0.585683  0.274907  1
  O  O101  1  0.168876  0.084472  0.136102  1
  O  O102  1  0.167223  0.915130  0.275349  1
  O  O103  1  0.290952  0.414772  0.157568  1
  O  O104  1  0.292213  0.585631  0.253147  1
  O  O105  1  0.290778  0.085079  0.157559  1
  O  O106  1  0.291414  0.914204  0.252701  1
  O  O107  1  0.369739  0.750418  0.183278  1
  O  O108  1  0.368954  0.250329  0.227496  1
  O  O109  1  0.327332  0.913651  0.169028  1
  O  O110  1  0.327837  0.085622  0.241506  1
  O  O111  1  0.327657  0.586329  0.169129  1
  O  O112  1  0.328856  0.413155  0.242068  1
  O  O113  1  0.370756  0.915317  0.198842  1
  O  O114  1  0.371180  0.088498  0.211326  1
  O  O115  1  0.371410  0.588260  0.199288  1
  O  O116  1  0.370232  0.415295  0.211836  1
  O  O117  1  0.499877  0.372311  0.232953  1
  O  O118  1  -0.000000  0.535843  0.263742  1
  O  O119  1  0.088143  0.415774  0.279686  1
  O  O120  1  0.085563  0.585306  0.131578  1
  O  O121  1  0.087415  0.085227  0.279752  1
  O  O122  1  0.085957  0.914760  0.131679  1
  O  O123  1  0.498788  0.748092  0.281848  1
  O  O124  1  0.251672  0.026540  0.188566  1
  O  O125  1  0.251689  0.975891  0.222054  1
  O  O126  1  0.251800  0.475915  0.188506  1
  O  O127  1  0.252826  0.525765  0.222148  1
  O  O128  1  0.158154  0.972523  0.160466  1
  O  O129  1  0.159545  0.025051  0.251052  1
  O  O130  1  0.158846  0.528262  0.160304  1
  O  O131  1  0.161033  0.473573  0.250898  1
  O  O132  1  0.000000  0.464332  0.147305  1
  O  O133  1  0.499668  0.127862  0.232793  1
  O  O134  1  0.000000  0.250619  0.279092  1
  O  O135  1  0.499842  0.627709  0.177910  1
  O  O136  1  0.088580  0.749813  0.079515  1
  O  O137  1  0.414823  0.249566  0.101307  1
  O  O138  1  0.337809  0.339575  0.127748  1
  O  O139  1  0.337603  0.159959  0.127758  1
  O  O140  1  0.499181  0.249767  0.127961  1
  O  O141  1  0.001593  0.838105  0.104694  1
  O  O142  1  -0.000000  0.662542  0.104691  1
  O  O143  1  0.000000  0.337983  0.766323  1
  O  O144  1  0.500420  0.663924  0.795186  1
  O  O145  1  0.584192  0.750958  0.769500  1
  O  O146  1  0.910927  0.249755  0.791268  1
  O  O147  1  0.659416  0.837265  0.742548  1
  O  O148  1  0.660806  0.661766  0.742637  1
  O  O149  1  0.500310  0.842061  0.794690  1
  O  O150  1  0.998835  0.162135  0.766194  1
  O  O151  1  0.770513  0.749946  0.724679  1
  O  O152  1  0.770470  0.250832  0.606664  1
  O  O153  1  0.829032  0.914994  0.735399  1
  O  O154  1  0.832366  0.086927  0.595822  1
  O  O155  1  0.830682  0.584649  0.735063  1
  O  O156  1  0.831034  0.416356  0.596289  1
  O  O157  1  0.709906  0.914168  0.713084  1
  O  O158  1  0.710922  0.085251  0.617735  1
  O  O159  1  0.709790  0.586778  0.712948  1
  O  O160  1  0.706698  0.413068  0.618242  1
  O  O161  1  0.630174  0.249804  0.687662  1
  O  O162  1  0.630326  0.749765  0.643392  1
  O  O163  1  0.671965  0.414948  0.701567  1
  O  O164  1  0.671146  0.585065  0.629298  1
  O  O165  1  0.671934  0.085834  0.701730  1
  O  O166  1  0.672412  0.913822  0.629265  1
  O  O167  1  0.628417  0.412151  0.671747  1
  O  O168  1  0.629970  0.585606  0.659261  1
  O  O169  1  0.629239  0.085297  0.671885  1
  O  O170  1  0.628159  0.912026  0.659408  1
  O  O171  1  0.998225  0.750427  0.591772  1
  O  O172  1  0.913711  0.916672  0.591446  1
  O  O173  1  0.912983  0.084872  0.739311  1
  O  O174  1  0.911628  0.585918  0.591341  1
  O  O175  1  0.912247  0.414974  0.739768  1
  O  O176  1  0.750767  0.525499  0.682222  1
  O  O177  1  0.747857  0.473158  0.648900  1
  O  O178  1  0.748008  0.973670  0.682127  1
  O  O179  1  0.748166  0.023969  0.648671  1
  O  O180  1  0.840135  0.473639  0.710964  1
  O  O181  1  0.839563  0.526067  0.620151  1
  O  O182  1  0.840325  0.026568  0.710488  1
  O  O183  1  0.841079  0.972391  0.620336  1
  O  O184  1  0.998025  0.962384  0.724016  1
  O  O185  1  -0.000000  0.037478  0.607694  1
  O  O186  1  0.500054  0.872264  0.637913  1
  O  O187  1  0.501656  0.337576  0.536206  1
  O  O188  1  0.502160  0.161867  0.536212  1
  O  O189  1  0.914479  0.750666  0.539529  1
  O  O190  1  0.588961  0.250573  0.561348  1
  O  O191  1  0.731915  0.750005  0.494504  1
  O  O192  1  0.668747  0.585357  0.505024  1
  O  O193  1  0.668401  0.914658  0.504854  1
  O  O194  1  0.791884  0.584628  0.483262  1
  O  O195  1  0.791936  0.915306  0.483153  1
  O  O196  1  0.837334  0.660572  0.513047  1
  O  O197  1  0.663032  0.162724  0.588173  1
  O  O198  1  0.661558  0.338646  0.588427  1
  O  O199  1  0.837104  0.840039  0.512994  1
  O  O200  1  0.869231  0.250228  0.457646  1
  O  O201  1  0.828428  0.087432  0.472038  1
  O  O202  1  0.828336  0.412739  0.472181  1
  O  O203  1  0.870197  0.085374  0.441796  1
  O  O204  1  0.871694  0.412423  0.441650  1
  O  O205  1  0.501917  0.249658  0.509291  1
  O  O206  1  0.588671  0.414895  0.509799  1
  O  O207  1  0.588538  0.084730  0.509664  1
  O  O208  1  0.998803  0.750554  0.512875  1
  O  O209  1  0.752479  0.974956  0.452090  1
  O  O210  1  0.753042  0.523168  0.452348  1
  O  O211  1  0.660185  0.026763  0.480854  1
  O  O212  1  0.660227  0.473053  0.481070  1
  O  O213  1  0.000000  0.373062  0.463223  1
  O  O214  1  -0.000000  0.127640  0.463127  1
  O  O215  1  0.414700  0.751135  0.769637  1
  O  O216  1  0.087413  0.249027  0.791306  1
  O  O217  1  0.338328  0.659864  0.743137  1
  O  O218  1  0.337603  0.837804  0.742538  1
  O  O219  1  0.231655  0.249932  0.606340  1
  O  O220  1  0.229893  0.751075  0.724621  1
  O  O221  1  0.169502  0.415529  0.596240  1
  O  O222  1  0.169256  0.585683  0.735114  1
  O  O223  1  0.168876  0.084472  0.596308  1
  O  O224  1  0.167223  0.915130  0.735555  1
  O  O225  1  0.290952  0.414772  0.617774  1
  O  O226  1  0.292213  0.585631  0.713353  1
  O  O227  1  0.290778  0.085079  0.617766  1
  O  O228  1  0.291414  0.914204  0.712907  1
  O  O229  1  0.369739  0.750418  0.643484  1
  O  O230  1  0.368954  0.250329  0.687703  1
  O  O231  1  0.327332  0.913651  0.629234  1
  O  O232  1  0.327837  0.085622  0.701712  1
  O  O233  1  0.327657  0.586329  0.629335  1
  O  O234  1  0.328856  0.413155  0.702274  1
  O  O235  1  0.370756  0.915317  0.659048  1
  O  O236  1  0.371180  0.088498  0.671532  1
  O  O237  1  0.371410  0.588260  0.659494  1
  O  O238  1  0.370232  0.415295  0.672043  1
  O  O239  1  0.499877  0.372311  0.693160  1
  O  O240  1  0.000000  0.535843  0.723949  1
  O  O241  1  0.088143  0.415774  0.739892  1
  O  O242  1  0.085563  0.585306  0.591785  1
  O  O243  1  0.087415  0.085227  0.739959  1
  O  O244  1  0.085957  0.914760  0.591885  1
  O  O245  1  0.498788  0.748092  0.742055  1
  O  O246  1  0.251672  0.026540  0.648772  1
  O  O247  1  0.251689  0.975891  0.682261  1
  O  O248  1  0.251800  0.475915  0.648713  1
  O  O249  1  0.252826  0.525765  0.682355  1
  O  O250  1  0.158154  0.972523  0.620672  1
  O  O251  1  0.159545  0.025051  0.711258  1
  O  O252  1  0.158846  0.528262  0.620510  1
  O  O253  1  0.161033  0.473573  0.711105  1
  O  O254  1  -0.000000  0.464332  0.607512  1
  O  O255  1  0.499668  0.127862  0.692999  1
  O  O256  1  -0.000000  0.250619  0.739298  1
  O  O257  1  0.499842  0.627709  0.638116  1
  O  O258  1  0.499364  0.963004  0.493581  1
  O  O259  1  0.088580  0.749813  0.539722  1
  O  O260  1  0.414823  0.249566  0.561513  1
  O  O261  1  0.269691  0.749120  0.494230  1
  O  O262  1  0.331936  0.913135  0.505164  1
  O  O263  1  0.330837  0.585265  0.505223  1
  O  O264  1  0.208526  0.915204  0.483077  1
  O  O265  1  0.204470  0.586154  0.482902  1
  O  O266  1  0.162573  0.837829  0.512791  1
  O  O267  1  0.337809  0.339575  0.587954  1
  O  O268  1  0.337603  0.159959  0.587965  1
  O  O269  1  0.161551  0.661779  0.512661  1
  O  O270  1  0.130428  0.250682  0.457905  1
  O  O271  1  0.170128  0.413365  0.472392  1
  O  O272  1  0.170824  0.087563  0.472125  1
  O  O273  1  0.129065  0.414178  0.441993  1
  O  O274  1  0.129673  0.086899  0.441874  1
  O  O275  1  0.499181  0.249767  0.588167  1
  O  O276  1  0.414797  0.083209  0.509614  1
  O  O277  1  0.414900  0.415917  0.509596  1
  O  O278  1  0.245259  0.525585  0.452101  1
  O  O279  1  0.247070  0.975789  0.452059  1
  O  O280  1  0.337795  0.476013  0.481063  1
  O  O281  1  0.338502  0.025930  0.480892  1
  O  O282  1  0.001593  0.838105  0.564900  1
  O  O283  1  -0.000000  0.662542  0.564897  1
  O  O284  1  0.499655  0.537124  0.493816  1
  Si  Si285  1  0.502621  0.857968  0.354201  1
  Si  Si286  1  0.757821  0.355464  0.371683  1
  Si  Si287  1  0.757768  0.144025  0.371717  1
  Si  Si288  1  0.891777  0.859628  0.412005  1
  Si  Si289  1  0.892746  0.639930  0.411659  1
  Si  Si290  1  0.756584  0.997454  0.399356  1
  Si  Si291  1  0.756546  0.501271  0.399114  1
  Si  Si292  1  0.600455  0.495937  0.373473  1
  Si  Si293  1  0.603266  0.002713  0.373189  1
  Si  Si294  1  0.600130  0.749085  0.289358  1
  Si  Si295  1  0.894735  0.249572  0.350656  1
  Si  Si296  1  0.502857  0.643634  0.354747  1
  Si  Si297  1  -0.000000  0.249576  0.319151  1
  Si  Si298  1  0.808110  0.998174  0.434897  1
  Si  Si299  1  0.893687  0.005146  0.143615  1
  Si  Si300  1  0.690734  0.997765  0.205110  1
  Si  Si301  1  0.692051  0.497851  0.205855  1
  Si  Si302  1  0.896714  0.498707  0.143296  1
  Si  Si303  1  0.895897  0.502260  0.267521  1
  Si  Si304  1  0.741709  0.856278  0.269165  1
  Si  Si305  1  0.743851  0.144190  0.141441  1
  Si  Si306  1  0.741803  0.643908  0.269070  1
  Si  Si307  1  0.741345  0.357676  0.141937  1
  Si  Si308  1  0.606364  0.359158  0.228549  1
  Si  Si309  1  0.606286  0.640867  0.181970  1
  Si  Si310  1  0.606113  0.140941  0.228699  1
  Si  Si311  1  0.606685  0.859283  0.182095  1
  Si  Si312  1  0.745027  0.500167  0.241358  1
  Si  Si313  1  0.743654  0.498834  0.168938  1
  Si  Si314  1  0.745379  -0.000000  0.241557  1
  Si  Si315  1  0.746199  0.998645  0.168793  1
  Si  Si316  1  0.891512  0.995528  0.267057  1
  Si  Si317  1  -0.000000  0.856156  0.124492  1
  Si  Si318  1  0.998379  0.643890  0.124597  1
  Si  Si319  1  0.603765  0.250485  0.120832  1
  Si  Si320  1  0.502563  0.249771  0.088830  1
  Si  Si321  1  -0.000000  0.358330  0.286059  1
  Si  Si322  1  0.103709  0.248934  0.350700  1
  Si  Si323  1  0.396960  0.748261  0.289372  1
  Si  Si324  1  0.398108  0.495273  0.374234  1
  Si  Si325  1  0.242048  0.142392  0.371700  1
  Si  Si326  1  0.240532  0.355598  0.371876  1
  Si  Si327  1  0.106361  0.639591  0.411807  1
  Si  Si328  1  0.105650  0.857816  0.412000  1
  Si  Si329  1  0.246628  0.497843  0.398527  1
  Si  Si330  1  0.243663  -0.000000  0.399625  1
  Si  Si331  1  0.394408  0.005347  0.373633  1
  Si  Si332  1  0.191722  -0.000000  0.435134  1
  Si  Si333  1  0.189940  0.500867  0.435047  1
  Si  Si334  1  -0.000000  0.143580  0.286049  1
  Si  Si335  1  0.499940  0.752935  0.322512  1
  Si  Si336  1  0.259557  0.355994  0.141320  1
  Si  Si337  1  0.259438  0.644876  0.269361  1
  Si  Si338  1  0.259210  0.143777  0.141315  1
  Si  Si339  1  0.255840  0.859581  0.268854  1
  Si  Si340  1  0.393647  0.859222  0.181863  1
  Si  Si341  1  0.392990  0.140799  0.228464  1
  Si  Si342  1  0.393174  0.640925  0.182183  1
  Si  Si343  1  0.392798  0.359704  0.228963  1
  Si  Si344  1  0.253918  -0.000000  0.168920  1
  Si  Si345  1  0.255153  -0.000000  0.241764  1
  Si  Si346  1  0.254177  0.501144  0.168821  1
  Si  Si347  1  0.257442  0.498390  0.241756  1
  Si  Si348  1  0.105524  0.497454  0.143806  1
  Si  Si349  1  0.104489  0.502790  0.267569  1
  Si  Si350  1  0.104661  0.002833  0.143937  1
  Si  Si351  1  0.103242  0.996400  0.267887  1
  Si  Si352  1  0.308876  0.002585  0.205395  1
  Si  Si353  1  0.308817  0.502482  0.205169  1
  Si  Si354  1  0.393243  0.249690  0.121201  1
  Si  Si355  1  0.002165  0.750407  0.091844  1
  Si  Si356  1  0.600130  0.749085  0.749565  1
  Si  Si357  1  -0.000000  0.249576  0.779357  1
  Si  Si358  1  0.893687  0.005146  0.603822  1
  Si  Si359  1  0.690734  0.997765  0.665316  1
  Si  Si360  1  0.692051  0.497851  0.666062  1
  Si  Si361  1  0.896714  0.498707  0.603502  1
  Si  Si362  1  0.895897  0.502260  0.727727  1
  Si  Si363  1  0.741709  0.856278  0.729371  1
  Si  Si364  1  0.743851  0.144190  0.601647  1
  Si  Si365  1  0.741803  0.643908  0.729276  1
  Si  Si366  1  0.741345  0.357676  0.602143  1
  Si  Si367  1  0.606364  0.359158  0.688755  1
  Si  Si368  1  0.606286  0.640867  0.642176  1
  Si  Si369  1  0.606113  0.140941  0.688905  1
  Si  Si370  1  0.606685  0.859283  0.642301  1
  Si  Si371  1  0.745027  0.500167  0.701565  1
  Si  Si372  1  0.743654  0.498834  0.629145  1
  Si  Si373  1  0.745379  0.000000  0.701764  1
  Si  Si374  1  0.746199  0.998645  0.629000  1
  Si  Si375  1  0.891512  0.995528  0.727263  1
  Si  Si376  1  0.000000  0.856156  0.584698  1
  Si  Si377  1  0.998379  0.643890  0.584804  1
  Si  Si378  1  0.502103  0.142885  0.516316  1
  Si  Si379  1  0.759185  0.643840  0.499439  1
  Si  Si380  1  0.759051  0.856342  0.499349  1
  Si  Si381  1  0.893061  0.140727  0.459009  1
  Si  Si382  1  0.892324  0.360460  0.458911  1
  Si  Si383  1  0.756809  0.002260  0.471752  1
  Si  Si384  1  0.756757  0.497384  0.471964  1
  Si  Si385  1  0.603638  0.502542  0.497726  1
  Si  Si386  1  0.603422  0.997400  0.497502  1
  Si  Si387  1  0.892823  0.750446  0.519619  1
  Si  Si388  1  0.603765  0.250485  0.581038  1
  Si  Si389  1  0.502174  0.356418  0.516316  1
  Si  Si390  1  0.502563  0.249771  0.549036  1
  Si  Si391  1  0.809392  0.497695  0.435590  1
  Si  Si392  1  0.000000  0.358330  0.746265  1
  Si  Si393  1  0.396960  0.748261  0.749578  1
  Si  Si394  1  0.000000  0.143580  0.746256  1
  Si  Si395  1  0.499940  0.752935  0.782718  1
  Si  Si396  1  0.259557  0.355994  0.601526  1
  Si  Si397  1  0.259438  0.644876  0.729567  1
  Si  Si398  1  0.259210  0.143777  0.601521  1
  Si  Si399  1  0.255840  0.859581  0.729060  1
  Si  Si400  1  0.393647  0.859222  0.642070  1
  Si  Si401  1  0.392990  0.140799  0.688671  1
  Si  Si402  1  0.393174  0.640925  0.642390  1
  Si  Si403  1  0.392798  0.359704  0.689170  1
  Si  Si404  1  0.253918  -0.000000  0.629126  1
  Si  Si405  1  0.255153  -0.000000  0.701970  1
  Si  Si406  1  0.254177  0.501144  0.629027  1
  Si  Si407  1  0.257442  0.498390  0.701962  1
  Si  Si408  1  0.105524  0.497454  0.604013  1
  Si  Si409  1  0.104489  0.502790  0.727775  1
  Si  Si410  1  0.104661  0.002833  0.604143  1
  Si  Si411  1  0.103242  0.996400  0.728093  1
  Si  Si412  1  0.308876  0.002585  0.665602  1
  Si  Si413  1  0.308817  0.502482  0.665375  1
  Si  Si414  1  0.393243  0.249690  0.581407  1
  Si  Si415  1  0.242904  0.856368  0.499188  1
  Si  Si416  1  0.241782  0.641050  0.498865  1
  Si  Si417  1  0.106929  0.360081  0.459266  1
  Si  Si418  1  0.106803  0.141210  0.459089  1
  Si  Si419  1  0.240240  0.499845  0.471971  1
  Si  Si420  1  0.242215  0.002478  0.471646  1
  Si  Si421  1  0.394453  0.994819  0.497484  1
  Si  Si422  1  0.394970  0.504983  0.497665  1
  Si  Si423  1  0.103425  0.750226  0.520020  1
  Si  Si424  1  0.002165  0.750407  0.552050  1
  H  H425  1  0.501656  0.337576  0.064407  1
  H  H426  1  0.502160  0.161867  0.064413  1
  H  H427  1  0.914479  0.750666  0.067729  1
  H  H428  1  0.088580  0.749813  0.067922  1
  H  H429  1  0.500420  0.663924  0.806779  1
  H  H430  1  0.910927  0.249755  0.802861  1
  H  H431  1  0.500310  0.842061  0.806283  1
  H  H432  1  0.087413  0.249027  0.802899  1
