# generated using pymatgen
data_Si5H2O11
_symmetry_space_group_name_H-M   'P 1'
_cell_length_a   5.05429154
_cell_length_b   17.40165079
_cell_length_c   36.04010460
_cell_angle_alpha   115.09972516
_cell_angle_beta   90.00000000
_cell_angle_gamma   90.00000000
_symmetry_Int_Tables_number   1
_chemical_formula_structural   Si5H2O11
_chemical_formula_sum   'Si20 H8 O44'
_cell_volume   2870.51094889
_cell_formula_units_Z   4
loop_
 _symmetry_equiv_pos_site_id
 _symmetry_equiv_pos_as_xyz
  1  'x, y, z'
loop_
 _atom_site_type_symbol
 _atom_site_label
 _atom_site_symmetry_multiplicity
 _atom_site_fract_x
 _atom_site_fract_y
 _atom_site_fract_z
 _atom_site_occupancy
  O  O1  1  0.535599  0.741721  0.241906  1
  O  O2  1  0.535432  0.241740  0.241902  1
  O  O3  1  0.531882  0.741487  0.345402  1
  O  O4  1  0.531725  0.241504  0.345413  1
  O  O5  1  0.035432  0.258352  0.246877  1
  O  O6  1  0.035599  0.758372  0.246874  1
  O  O7  1  0.744262  0.884690  0.255613  1
  O  O8  1  0.744240  0.384694  0.255614  1
  O  O9  1  0.738342  0.884608  0.185837  1
  O  O10  1  0.738319  0.384612  0.185837  1
  O  O11  1  0.238320  0.115481  0.302942  1
  O  O12  1  0.238342  0.615485  0.302943  1
  O  O13  1  0.244240  0.115398  0.233165  1
  O  O14  1  0.244262  0.615403  0.233166  1
  O  O15  1  0.753029  0.823474  0.310606  1
  O  O16  1  0.752847  0.323473  0.310606  1
  O  O17  1  0.252847  0.176620  0.178173  1
  O  O18  1  0.253029  0.676618  0.178173  1
  O  O19  1  0.949693  0.009749  0.245951  1
  O  O20  1  0.949694  0.509753  0.245952  1
  O  O21  1  0.449694  0.990340  0.242827  1
  O  O22  1  0.449692  0.490344  0.242828  1
  O  O23  1  0.535599  0.741721  0.446725  1
  O  O24  1  0.535432  0.241740  0.446721  1
  O  O25  1  0.031725  0.258589  0.348185  1
  O  O26  1  0.031881  0.758606  0.348197  1
  O  O27  1  0.035432  0.258352  0.451696  1
  O  O28  1  0.035599  0.758372  0.451693  1
  O  O29  1  0.744262  0.884690  0.460432  1
  O  O30  1  0.744240  0.384694  0.460433  1
  O  O31  1  0.738342  0.884608  0.390656  1
  O  O32  1  0.738319  0.384612  0.390656  1
  O  O33  1  0.238320  0.115481  0.507761  1
  O  O34  1  0.238342  0.615485  0.507762  1
  O  O35  1  0.244240  0.115398  0.437984  1
  O  O36  1  0.244262  0.615403  0.437985  1
  O  O37  1  0.753029  0.823474  0.515425  1
  O  O38  1  0.752847  0.323473  0.515425  1
  O  O39  1  0.252847  0.176620  0.382992  1
  O  O40  1  0.253029  0.676618  0.382992  1
  O  O41  1  0.949693  0.009749  0.450770  1
  O  O42  1  0.949694  0.509753  0.450771  1
  O  O43  1  0.449694  0.990340  0.447646  1
  O  O44  1  0.449692  0.490344  0.447647  1
  Si  Si45  1  0.766818  0.803634  0.263899  1
  Si  Si46  1  0.766678  0.303635  0.263899  1
  Si  Si47  1  0.263225  0.196494  0.344403  1
  Si  Si48  1  0.263360  0.696495  0.344404  1
  Si  Si49  1  0.266678  0.196457  0.224880  1
  Si  Si50  1  0.266818  0.696459  0.224880  1
  Si  Si51  1  0.721101  0.943377  0.232773  1
  Si  Si52  1  0.721098  0.443381  0.232774  1
  Si  Si53  1  0.221099  0.056711  0.256005  1
  Si  Si54  1  0.221101  0.556716  0.256006  1
  Si  Si55  1  0.766818  0.803634  0.468718  1
  Si  Si56  1  0.766678  0.303635  0.468718  1
  Si  Si57  1  0.763360  0.803598  0.349195  1
  Si  Si58  1  0.763225  0.303599  0.349195  1
  Si  Si59  1  0.266678  0.196457  0.429699  1
  Si  Si60  1  0.266818  0.696459  0.429699  1
  Si  Si61  1  0.721101  0.943377  0.437592  1
  Si  Si62  1  0.721098  0.443381  0.437593  1
  Si  Si63  1  0.221099  0.056711  0.460824  1
  Si  Si64  1  0.221101  0.556716  0.460825  1
  H  H65  1  0.738342  0.884608  0.160864  1
  H  H66  1  0.738319  0.384612  0.160865  1
  H  H67  1  0.252847  0.176620  0.153201  1
  H  H68  1  0.253029  0.676618  0.153201  1
  H  H69  1  0.238320  0.115481  0.532733  1
  H  H70  1  0.238342  0.615485  0.532734  1
  H  H71  1  0.753029  0.823474  0.540397  1
  H  H72  1  0.752847  0.323473  0.540397  1
