# generated using pymatgen
data_Si8H2O17
_symmetry_space_group_name_H-M   'P 1'
_cell_length_a   6.71414898
_cell_length_b   7.77198770
_cell_length_c   30.25627445
_cell_angle_alpha   90.00000000
_cell_angle_beta   90.00000000
_cell_angle_gamma   95.82700000
_symmetry_Int_Tables_number   1
_chemical_formula_structural   Si8H2O17
_chemical_formula_sum   'Si8 H2 O17'
_cell_volume   1570.68357388
_cell_formula_units_Z   1
loop_
 _symmetry_equiv_pos_site_id
 _symmetry_equiv_pos_as_xyz
  1  'x, y, z'
loop_
 _atom_site_type_symbol
 _atom_site_label
 _atom_site_symmetry_multiplicity
 _atom_site_fract_x
 _atom_site_fract_y
 _atom_site_fract_z
 _atom_site_occupancy
  O  O1  1  0.379315  0.021431  0.279548  1
  O  O2  1  0.619075  0.978728  0.389689  1
  O  O3  1  0.101738  0.767604  0.291808  1
  O  O4  1  0.898381  0.230890  0.377057  1
  O  O5  1  0.425175  0.785393  0.334668  1
  O  O6  1  0.573478  0.215051  0.334559  1
  O  O7  1  0.437066  0.691580  0.256426  1
  O  O8  1  0.565335  0.308758  0.412954  1
  O  O9  1  0.212652  0.253864  0.324412  1
  O  O10  1  0.786242  0.749201  0.344357  1
  O  O11  1  0.463806  0.364558  0.264702  1
  O  O12  1  0.535888  0.634889  0.404283  1
  O  O13  1  0.770211  0.580758  0.272333  1
  O  O14  1  0.230682  0.415284  0.397650  1
  O  O15  1  0.398471  0.473905  0.474489  1
  O  O16  1  0.604927  0.526938  0.195001  1
  O  O17  1  0.000000  0.502646  0.335908  1
  Si  Si18  1  0.334993  0.819348  0.287767  1
  Si  Si19  1  0.664985  0.180579  0.381309  1
  Si  Si20  1  0.405872  0.213279  0.298293  1
  Si  Si21  1  0.592957  0.786951  0.370873  1
  Si  Si22  1  0.569179  0.539655  0.245991  1
  Si  Si23  1  0.432386  0.459960  0.423484  1
  Si  Si24  1  0.913775  0.652675  0.310529  1
  Si  Si25  1  0.086666  0.347509  0.359116  1
  H  H26  1  0.398471  0.473905  0.504235  1
  H  H27  1  0.604927  0.526938  0.165255  1
