# generated using pymatgen
data_Si15(HO8)4
_symmetry_space_group_name_H-M   'P 1'
_cell_length_a   12.60116802
_cell_length_b   28.93711615
_cell_length_c   37.55941604
_cell_angle_alpha   115.81692622
_cell_angle_beta   90.00000000
_cell_angle_gamma   90.00000000
_symmetry_Int_Tables_number   1
_chemical_formula_structural   Si15(HO8)4
_chemical_formula_sum   'Si60 H16 O128'
_cell_volume   12328.7526959
_cell_formula_units_Z   4
loop_
 _symmetry_equiv_pos_site_id
 _symmetry_equiv_pos_as_xyz
  1  'x, y, z'
loop_
 _atom_site_type_symbol
 _atom_site_label
 _atom_site_symmetry_multiplicity
 _atom_site_fract_x
 _atom_site_fract_y
 _atom_site_fract_z
 _atom_site_occupancy
  O  O1  1  0.159301  0.599290  0.171887  1
  O  O2  1  0.509275  0.598814  0.171845  1
  O  O3  1  0.162490  0.187170  0.309478  1
  O  O4  1  0.028779  0.188065  0.359686  1
  O  O5  1  0.162961  0.187873  0.409538  1
  O  O6  1  0.491811  0.097117  0.228814  1
  O  O7  1  0.363437  0.150753  0.288418  1
  O  O8  1  0.295526  0.183668  0.358264  1
  O  O9  1  0.324170  0.246933  0.330878  1
  O  O10  1  0.490467  0.098836  0.430943  1
  O  O11  1  0.363808  0.151208  0.405998  1
  O  O12  1  0.324329  0.247835  0.428138  1
  O  O13  1  0.437166  0.331622  0.350345  1
  O  O14  1  0.334888  0.313420  0.401503  1
  O  O15  1  0.496115  0.082717  0.358772  1
  O  O16  1  0.497157  0.084993  0.291500  1
  O  O17  1  0.436937  0.332737  0.465036  1
  O  O18  1  0.185653  0.562886  0.427777  1
  O  O19  1  0.185650  0.437171  0.276472  1
  O  O20  1  0.186785  0.500027  0.352128  1
  O  O21  1  0.035930  0.346797  0.354446  1
  O  O22  1  0.160004  0.596784  0.372490  1
  O  O23  1  0.035973  0.653273  0.349797  1
  O  O24  1  0.160016  0.403269  0.331758  1
  O  O25  1  0.334371  0.561989  0.382617  1
  O  O26  1  0.334374  0.438057  0.321629  1
  O  O27  1  0.482047  0.500021  0.352119  1
  O  O28  1  0.035252  0.347152  0.471300  1
  O  O29  1  0.035271  0.652894  0.232920  1
  O  O30  1  0.159301  0.599290  0.507409  1
  O  O31  1  0.159308  0.400764  0.196840  1
  O  O32  1  0.334553  0.566391  0.473594  1
  O  O33  1  0.334552  0.433664  0.230657  1
  O  O34  1  0.189666  0.503125  0.461979  1
  O  O35  1  0.189651  0.496935  0.242273  1
  O  O36  1  0.478637  0.502208  0.461721  1
  O  O37  1  0.478627  0.497828  0.242521  1
  O  O38  1  0.162920  0.581645  0.232797  1
  O  O39  1  0.162975  0.418427  0.471466  1
  O  O40  1  0.333638  0.563427  0.260977  1
  O  O41  1  0.333654  0.436624  0.443265  1
  O  O42  1  0.163672  0.584093  0.301425  1
  O  O43  1  0.163666  0.415958  0.402828  1
  O  O44  1  0.483166  0.562171  0.427687  1
  O  O45  1  0.483172  0.437867  0.276550  1
  O  O46  1  0.234155  0.334992  0.465403  1
  O  O47  1  0.234174  0.665057  0.238837  1
  O  O48  1  0.235077  0.665951  0.352846  1
  O  O49  1  0.235033  0.334093  0.351403  1
  O  O50  1  0.162543  0.812893  0.394773  1
  O  O51  1  0.028827  0.812034  0.344593  1
  O  O52  1  0.162969  0.812151  0.294684  1
  O  O53  1  0.491734  0.902902  0.475425  1
  O  O54  1  0.363474  0.849291  0.415813  1
  O  O55  1  0.295558  0.816380  0.345972  1
  O  O56  1  0.324203  0.753113  0.373358  1
  O  O57  1  0.363753  0.848837  0.298229  1
  O  O58  1  0.490490  0.901207  0.273304  1
  O  O59  1  0.324381  0.752199  0.276094  1
  O  O60  1  0.437211  0.668430  0.353894  1
  O  O61  1  0.334906  0.686623  0.302739  1
  O  O62  1  0.496044  0.917294  0.345475  1
  O  O63  1  0.497260  0.915048  0.412739  1
  O  O64  1  0.436956  0.667288  0.239198  1
  O  O65  1  0.814137  0.062857  0.486375  1
  O  O66  1  0.837220  0.312865  0.351663  1
  O  O67  1  0.000000  0.250037  0.330960  1
  O  O68  1  0.839775  0.096795  0.228906  1
  O  O69  1  0.963791  0.153273  0.289500  1
  O  O70  1  0.970946  0.311988  0.401272  1
  O  O71  1  0.836784  0.312173  0.451259  1
  O  O72  1  0.964489  0.152884  0.406108  1
  O  O73  1  0.840430  0.099266  0.431183  1
  O  O74  1  0.665205  0.066354  0.442928  1
  O  O75  1  0.704186  0.316366  0.402799  1
  O  O76  1  0.810110  0.003089  0.412072  1
  O  O77  1  0.675518  0.253098  0.332946  1
  O  O78  1  0.521126  0.002199  0.411732  1
  O  O79  1  0.675416  0.252192  0.429597  1
  O  O80  1  0.836787  0.081606  0.358437  1
  O  O81  1  0.562584  0.168388  0.295551  1
  O  O82  1  0.666104  0.063403  0.318027  1
  O  O83  1  0.664772  0.186608  0.358938  1
  O  O84  1  0.836107  0.084087  0.291460  1
  O  O85  1  0.764714  0.165952  0.294979  1
  O  O86  1  0.562795  0.167309  0.409529  1
  O  O87  1  0.765572  0.165038  0.408357  1
  O  O88  1  0.516562  0.062160  0.485992  1
  O  O89  1  -0.000000  0.250018  0.430007  1
  O  O90  1  0.507930  0.597095  0.372810  1
  O  O91  1  0.507935  0.402951  0.331432  1
  O  O92  1  0.636302  0.349283  0.355041  1
  O  O93  1  0.636334  0.650754  0.349207  1
  O  O94  1  0.635938  0.348825  0.472312  1
  O  O95  1  0.509275  0.598814  0.507367  1
  O  O96  1  0.635948  0.651196  0.231930  1
  O  O97  1  0.509260  0.401213  0.196868  1
  O  O98  1  0.503688  0.582720  0.233225  1
  O  O99  1  0.503705  0.417302  0.471010  1
  O  O100  1  0.502531  0.584990  0.302018  1
  O  O101  1  0.502518  0.415051  0.402225  1
  O  O102  1  0.814044  0.937160  0.217819  1
  O  O103  1  0.837290  0.687181  0.352570  1
  O  O104  1  -0.000000  0.750098  0.274266  1
  O  O105  1  0.963821  0.846800  0.414766  1
  O  O106  1  0.839648  0.903273  0.475320  1
  O  O107  1  0.970985  0.688097  0.302986  1
  O  O108  1  0.836778  0.687866  0.252998  1
  O  O109  1  0.516570  0.937869  0.218216  1
  O  O110  1  0.964395  0.847091  0.298078  1
  O  O111  1  0.840434  0.900744  0.273017  1
  O  O112  1  0.665181  0.933655  0.261295  1
  O  O113  1  0.704229  0.683660  0.301448  1
  O  O114  1  0.810122  0.996912  0.292108  1
  O  O115  1  0.675587  0.746932  0.371293  1
  O  O116  1  0.521109  0.997827  0.292500  1
  O  O117  1  0.675356  0.747818  0.274631  1
  O  O118  1  0.562632  0.831642  0.408696  1
  O  O119  1  0.836835  0.918368  0.345761  1
  O  O120  1  0.664800  0.813411  0.345289  1
  O  O121  1  0.666134  0.936601  0.386164  1
  O  O122  1  0.764731  0.834081  0.409245  1
  O  O123  1  0.836101  0.915945  0.412764  1
  O  O124  1  0.562716  0.832702  0.294712  1
  O  O125  1  0.765488  0.834979  0.295837  1
  O  O126  1  0.000000  0.750044  0.373295  1
  O  O127  1  0.159308  0.400764  0.532362  1
  O  O128  1  0.509260  0.401213  0.532390  1
  Si  Si129  1  0.475869  0.125018  0.402122  1
  Si  Si130  1  0.476425  0.125497  0.275050  1
  Si  Si131  1  0.334262  0.307082  0.440838  1
  Si  Si132  1  0.285457  0.191222  0.401947  1
  Si  Si133  1  0.334583  0.306169  0.357660  1
  Si  Si134  1  0.040595  0.194066  0.320470  1
  Si  Si135  1  0.040851  0.194071  0.402906  1
  Si  Si136  1  0.284872  0.190538  0.319366  1
  Si  Si137  1  0.211477  0.555990  0.384571  1
  Si  Si138  1  0.211483  0.444068  0.319679  1
  Si  Si139  1  0.457179  0.555943  0.384646  1
  Si  Si140  1  0.457183  0.444099  0.319592  1
  Si  Si141  1  0.211732  0.559512  0.467699  1
  Si  Si142  1  0.211731  0.440549  0.236550  1
  Si  Si143  1  0.457212  0.558809  0.467653  1
  Si  Si144  1  0.457215  0.441224  0.236584  1
  Si  Si145  1  0.210210  0.556171  0.258652  1
  Si  Si146  1  0.210230  0.443889  0.445597  1
  Si  Si147  1  0.457220  0.557073  0.259070  1
  Si  Si148  1  0.457237  0.442964  0.445177  1
  Si  Si149  1  0.144709  0.624524  0.218268  1
  Si  Si150  1  0.144722  0.375539  0.485980  1
  Si  Si151  1  0.145706  0.375033  0.359116  1
  Si  Si152  1  0.145723  0.625024  0.345134  1
  Si  Si153  1  0.475841  0.875018  0.302116  1
  Si  Si154  1  0.476469  0.874541  0.429181  1
  Si  Si155  1  0.334295  0.692952  0.263399  1
  Si  Si156  1  0.334614  0.693877  0.346584  1
  Si  Si157  1  0.284912  0.809508  0.384871  1
  Si  Si158  1  0.285461  0.808805  0.302282  1
  Si  Si159  1  0.040643  0.806016  0.383803  1
  Si  Si160  1  0.040874  0.805988  0.301359  1
  Si  Si161  1  0.959122  0.305999  0.358033  1
  Si  Si162  1  0.958888  0.305970  0.440458  1
  Si  Si163  1  0.788036  0.059473  0.444190  1
  Si  Si164  1  0.714844  0.309487  0.359289  1
  Si  Si165  1  0.542531  0.058800  0.443777  1
  Si  Si166  1  0.714287  0.308808  0.441411  1
  Si  Si167  1  0.789532  0.056147  0.315481  1
  Si  Si168  1  0.665132  0.193859  0.319960  1
  Si  Si169  1  0.542519  0.057073  0.315707  1
  Si  Si170  1  0.665461  0.192950  0.402529  1
  Si  Si171  1  0.855013  0.124498  0.401733  1
  Si  Si172  1  0.854046  0.125018  0.275214  1
  Si  Si173  1  0.523887  0.624996  0.218233  1
  Si  Si174  1  0.523876  0.375024  0.486001  1
  Si  Si175  1  0.523289  0.374530  0.358604  1
  Si  Si176  1  0.523314  0.625515  0.345638  1
  Si  Si177  1  0.959176  0.694078  0.346220  1
  Si  Si178  1  0.958883  0.694112  0.263793  1
  Si  Si179  1  0.787997  0.940525  0.260004  1
  Si  Si180  1  0.714904  0.690541  0.344956  1
  Si  Si181  1  0.542526  0.941224  0.260439  1
  Si  Si182  1  0.714285  0.691213  0.262833  1
  Si  Si183  1  0.665155  0.806165  0.384271  1
  Si  Si184  1  0.789565  0.943851  0.388715  1
  Si  Si185  1  0.665418  0.807063  0.301694  1
  Si  Si186  1  0.542554  0.942960  0.388519  1
  Si  Si187  1  0.854995  0.875490  0.302454  1
  Si  Si188  1  0.854030  0.875027  0.429021  1
  H  H189  1  0.159301  0.599290  0.147924  1
  H  H190  1  0.509275  0.598814  0.147883  1
  H  H191  1  0.491811  0.097117  0.204852  1
  H  H192  1  0.159301  0.599290  0.531371  1
  H  H193  1  0.159308  0.400764  0.172878  1
  H  H194  1  0.491734  0.902902  0.499387  1
  H  H195  1  0.814137  0.062857  0.510337  1
  H  H196  1  0.839775  0.096795  0.204944  1
  H  H197  1  0.516562  0.062160  0.509954  1
  H  H198  1  0.509275  0.598814  0.531329  1
  H  H199  1  0.509260  0.401213  0.172906  1
  H  H200  1  0.814044  0.937160  0.193857  1
  H  H201  1  0.839648  0.903273  0.499282  1
  H  H202  1  0.516570  0.937869  0.194254  1
  H  H203  1  0.159308  0.400764  0.556324  1
  H  H204  1  0.509260  0.401213  0.556352  1
