# generated using pymatgen
data_Si29(H4O31)2
_symmetry_space_group_name_H-M   'P 1'
_cell_length_a   24.41204530
_cell_length_b   24.41160814
_cell_length_c   76.33519220
_cell_angle_alpha   45.00446172
_cell_angle_beta   90.00000000
_cell_angle_gamma   59.99544042
_symmetry_Int_Tables_number   1
_chemical_formula_structural   Si29(H4O31)2
_chemical_formula_sum   'Si174 H48 O372'
_cell_volume   22745.9006987
_cell_formula_units_Z   6
loop_
 _symmetry_equiv_pos_site_id
 _symmetry_equiv_pos_as_xyz
  1  'x, y, z'
loop_
 _atom_site_type_symbol
 _atom_site_label
 _atom_site_symmetry_multiplicity
 _atom_site_fract_x
 _atom_site_fract_y
 _atom_site_fract_z
 _atom_site_occupancy
  O  O1  1  0.347967  0.471240  0.180612  1
  O  O2  1  0.061917  0.589529  0.181350  1
  O  O3  1  0.180993  0.258076  0.249538  1
  O  O4  1  0.431220  0.472092  0.209032  1
  O  O5  1  0.186689  0.382880  0.208996  1
  O  O6  1  0.402094  0.286412  0.224135  1
  O  O7  1  0.317325  0.245064  0.252160  1
  O  O8  1  0.438322  0.410054  0.252376  1
  O  O9  1  0.069090  0.527875  0.224778  1
  O  O10  1  0.096518  0.216193  0.240135  1
  O  O11  1  0.311074  0.120791  0.268003  1
  O  O12  1  0.272305  0.424664  0.205723  1
  O  O13  1  0.302642  0.573470  0.204820  1
  O  O14  1  0.124782  0.602196  0.206138  1
  O  O15  1  0.022553  0.102032  0.262520  1
  O  O16  1  0.123257  0.323213  0.205525  1
  O  O17  1  0.196494  0.427165  0.228569  1
  O  O18  1  0.375972  0.396023  0.228126  1
  O  O19  1  0.477719  0.398099  0.195526  1
  O  O20  1  0.053103  0.467928  0.196443  1
  O  O21  1  0.374208  0.178781  0.237489  1
  O  O22  1  0.182014  0.755930  0.180973  1
  O  O23  1  0.347409  0.833101  0.212133  1
  O  O24  1  0.096572  0.592783  0.267670  1
  O  O25  1  0.401939  0.786196  0.193295  1
  O  O26  1  0.151428  0.530936  0.252458  1
  O  O27  1  0.317982  0.744014  0.183626  1
  O  O28  1  0.153109  0.665293  0.249699  1
  O  O29  1  0.402405  0.908346  0.196713  1
  O  O30  1  0.311938  0.620022  0.223973  1
  O  O31  1  0.097677  0.714876  0.209216  1
  O  O32  1  0.272827  0.030374  0.182129  1
  O  O33  1  0.020430  0.605510  0.237683  1
  O  O34  1  0.445800  0.531974  0.238053  1
  O  O35  1  0.476831  0.646328  0.252548  1
  O  O36  1  0.127176  0.819467  0.196352  1
  O  O37  1  0.227441  0.576847  0.227702  1
  O  O38  1  0.372163  0.681453  0.227480  1
  O  O39  1  0.023332  0.852961  0.205901  1
  O  O40  1  0.182043  0.877927  0.265589  1
  O  O41  1  0.347711  0.334130  0.183900  1
  O  O42  1  0.093529  0.096075  0.236109  1
  O  O43  1  0.065992  0.836894  0.240182  1
  O  O44  1  0.150589  0.167614  0.221762  1
  O  O45  1  0.430496  0.166494  0.193083  1
  O  O46  1  0.304566  0.820684  0.262505  1
  O  O47  1  0.124682  0.148449  0.195657  1
  O  O48  1  0.056979  0.918011  0.263203  1
  O  O49  1  0.478362  0.147907  0.227817  1
  O  O50  1  0.224977  0.968182  0.252831  1
  O  O51  1  0.377827  0.850046  0.238675  1
  O  O52  1  0.019752  0.354621  0.181343  1
  O  O53  1  0.560243  0.287700  0.249693  1
  O  O54  1  0.684886  0.373926  0.223647  1
  O  O55  1  0.813821  0.257299  0.236967  1
  O  O56  1  0.568423  0.337985  0.267309  1
  O  O57  1  0.938147  0.713080  0.184332  1
  O  O58  1  0.938635  0.213889  0.266136  1
  O  O59  1  0.687853  0.242021  0.240147  1
  O  O60  1  0.931745  0.664528  0.165974  1
  O  O61  1  0.803906  0.819731  0.149415  1
  O  O62  1  0.804554  0.319257  0.253105  1
  O  O63  1  0.875904  0.069109  0.263401  1
  O  O64  1  0.554412  0.423993  0.206374  1
  O  O65  1  0.977432  0.647187  0.139497  1
  O  O66  1  0.875891  0.850689  0.125233  1
  O  O67  1  0.725548  0.468867  0.195700  1
  O  O68  1  0.695837  0.681836  0.180228  1
  O  O69  1  0.876843  0.352209  0.262350  1
  O  O70  1  0.625317  0.431276  0.181610  1
  O  O71  1  0.683684  0.876615  0.153656  1
  O  O72  1  0.813320  0.755503  0.193521  1
  O  O73  1  0.817566  0.622218  0.211148  1
  O  O74  1  0.688039  0.742158  0.196859  1
  O  O75  1  0.772785  0.531665  0.237528  1
  O  O76  1  0.874767  0.569748  0.252383  1
  O  O77  1  0.944686  0.032814  0.181852  1
  O  O78  1  0.727391  0.967996  0.139435  1
  O  O79  1  0.947386  0.572963  0.228556  1
  O  O80  1  0.848521  0.967370  0.267494  1
  O  O81  1  0.559641  0.093534  0.211178  1
  O  O82  1  0.932818  0.968462  0.237794  1
  O  O83  1  0.937916  0.908383  0.222135  1
  O  O84  1  0.568228  0.029540  0.196263  1
  O  O85  1  0.772271  0.922243  0.263618  1
  O  O86  1  0.805904  0.070946  0.195595  1
  O  O87  1  0.622111  0.106725  0.180849  1
  O  O88  1  0.695240  0.931390  0.237766  1
  O  O89  1  0.874000  0.898245  0.252325  1
  O  O90  1  0.554546  0.968961  0.252169  1
  O  O91  1  0.347967  0.471240  0.406723  1
  O  O92  1  0.061917  0.589529  0.407462  1
  O  O93  1  0.180993  0.258076  0.475650  1
  O  O94  1  0.063540  0.087929  0.325690  1
  O  O95  1  0.430712  0.975730  0.349144  1
  O  O96  1  0.431220  0.472092  0.435143  1
  O  O97  1  0.186689  0.382880  0.435108  1
  O  O98  1  0.402094  0.286412  0.450247  1
  O  O99  1  0.317325  0.245064  0.478271  1
  O  O100  1  0.438322  0.410054  0.478488  1
  O  O101  1  0.151643  0.031715  0.280125  1
  O  O102  1  0.438354  0.911283  0.334537  1
  O  O103  1  0.068963  0.029588  0.309239  1
  O  O104  1  0.069090  0.527875  0.450889  1
  O  O105  1  0.096518  0.216193  0.466247  1
  O  O106  1  0.311074  0.120791  0.494115  1
  O  O107  1  0.272305  0.424664  0.431835  1
  O  O108  1  0.302642  0.573470  0.430931  1
  O  O109  1  0.124782  0.602196  0.432249  1
  O  O110  1  0.304258  0.071569  0.308534  1
  O  O111  1  0.124604  0.105540  0.294261  1
  O  O112  1  0.022553  0.102032  0.488631  1
  O  O113  1  0.123257  0.323213  0.431637  1
  O  O114  1  0.446097  0.034235  0.293974  1
  O  O115  1  0.196494  0.427165  0.454680  1
  O  O116  1  0.375972  0.396023  0.454238  1
  O  O117  1  0.228107  0.076248  0.284197  1
  O  O118  1  0.197701  0.926995  0.350925  1
  O  O119  1  0.376708  0.898180  0.365740  1
  O  O120  1  0.477719  0.398099  0.421637  1
  O  O121  1  0.053103  0.467928  0.422554  1
  O  O122  1  0.374208  0.178781  0.463601  1
  O  O123  1  0.182014  0.755930  0.407084  1
  O  O124  1  0.345657  0.971654  0.379365  1
  O  O125  1  0.347409  0.833101  0.438244  1
  O  O126  1  0.182103  0.378618  0.335330  1
  O  O127  1  0.311421  0.255675  0.350603  1
  O  O128  1  0.096572  0.592783  0.493782  1
  O  O129  1  0.401939  0.786196  0.419406  1
  O  O130  1  0.187428  0.881161  0.390867  1
  O  O131  1  0.151428  0.530936  0.478569  1
  O  O132  1  0.317982  0.744014  0.409738  1
  O  O133  1  0.317621  0.119860  0.393850  1
  O  O134  1  0.153109  0.665293  0.475810  1
  O  O135  1  0.402405  0.908346  0.422824  1
  O  O136  1  0.188512  0.242863  0.353473  1
  O  O137  1  0.311938  0.620022  0.450085  1
  O  O138  1  0.097677  0.714876  0.435327  1
  O  O139  1  0.272777  0.923143  0.375440  1
  O  O140  1  0.272827  0.030374  0.408241  1
  O  O141  1  0.372287  0.072852  0.374843  1
  O  O142  1  0.055998  0.419700  0.320141  1
  O  O143  1  0.020430  0.605510  0.463794  1
  O  O144  1  0.445800  0.531974  0.464164  1
  O  O145  1  0.476831  0.646328  0.478660  1
  O  O146  1  0.127176  0.819467  0.422464  1
  O  O147  1  0.227441  0.576847  0.453813  1
  O  O148  1  0.226554  0.468596  0.308638  1
  O  O149  1  0.445745  0.075996  0.397288  1
  O  O150  1  0.475052  0.899348  0.396641  1
  O  O151  1  0.124553  0.430257  0.294386  1
  O  O152  1  0.372163  0.681453  0.453591  1
  O  O153  1  0.052772  0.967147  0.365640  1
  O  O154  1  0.023332  0.852961  0.432013  1
  O  O155  1  0.182043  0.877927  0.491701  1
  O  O156  1  0.061730  0.282626  0.363394  1
  O  O157  1  0.347711  0.334130  0.410011  1
  O  O158  1  0.061056  0.781968  0.281738  1
  O  O159  1  0.093529  0.096075  0.462221  1
  O  O160  1  0.311876  0.754992  0.306556  1
  O  O161  1  0.067253  0.335272  0.381029  1
  O  O162  1  0.065992  0.836894  0.466294  1
  O  O163  1  0.150589  0.167614  0.447874  1
  O  O164  1  0.438496  0.713239  0.297231  1
  O  O165  1  0.320080  0.616602  0.325526  1
  O  O166  1  0.437797  0.213620  0.378990  1
  O  O167  1  0.190970  0.741168  0.309951  1
  O  O168  1  0.402294  0.409804  0.391139  1
  O  O169  1  0.432443  0.664373  0.278924  1
  O  O170  1  0.430496  0.166494  0.419194  1
  O  O171  1  0.304566  0.820684  0.488616  1
  O  O172  1  0.124682  0.148449  0.421769  1
  O  O173  1  0.271394  0.531784  0.351332  1
  O  O174  1  0.303240  0.319213  0.365791  1
  O  O175  1  0.123326  0.649805  0.283397  1
  O  O176  1  0.056979  0.918011  0.489315  1
  O  O177  1  0.374657  0.571872  0.365314  1
  O  O178  1  0.478362  0.147907  0.453928  1
  O  O179  1  0.224977  0.968182  0.478943  1
  O  O180  1  0.195470  0.181692  0.396955  1
  O  O181  1  0.377827  0.850046  0.464787  1
  O  O182  1  0.194340  0.680138  0.294524  1
  O  O183  1  0.373538  0.352909  0.375211  1
  O  O184  1  0.127039  0.929698  0.283549  1
  O  O185  1  0.448010  0.572615  0.341635  1
  O  O186  1  0.019752  0.354621  0.407454  1
  O  O187  1  0.848524  0.835274  0.324165  1
  O  O188  1  0.560243  0.287700  0.475804  1
  O  O189  1  0.684886  0.373926  0.449758  1
  O  O190  1  0.560634  0.787207  0.393036  1
  O  O191  1  0.813821  0.257299  0.463079  1
  O  O192  1  0.592954  0.597169  0.380390  1
  O  O193  1  0.568423  0.337985  0.493421  1
  O  O194  1  0.568040  0.835186  0.352853  1
  O  O195  1  0.816131  0.125284  0.279796  1
  O  O196  1  0.938147  0.713080  0.410444  1
  O  O197  1  0.650568  0.668080  0.362064  1
  O  O198  1  0.938635  0.213889  0.492247  1
  O  O199  1  0.906969  0.904595  0.310841  1
  O  O200  1  0.687853  0.242021  0.466259  1
  O  O201  1  0.931745  0.664528  0.392085  1
  O  O202  1  0.932392  0.165752  0.306643  1
  O  O203  1  0.774622  0.031917  0.294210  1
  O  O204  1  0.803906  0.819731  0.375527  1
  O  O205  1  0.622984  0.151964  0.308679  1
  O  O206  1  0.804554  0.319257  0.479217  1
  O  O207  1  0.623359  0.648332  0.397308  1
  O  O208  1  0.875904  0.069109  0.489513  1
  O  O209  1  0.554412  0.423993  0.432486  1
  O  O210  1  0.977432  0.647187  0.365609  1
  O  O211  1  0.693792  0.182370  0.283443  1
  O  O212  1  0.875891  0.850689  0.351345  1
  O  O213  1  0.725548  0.468867  0.421812  1
  O  O214  1  0.695837  0.681836  0.406340  1
  O  O215  1  0.876843  0.352209  0.488462  1
  O  O216  1  0.946648  0.075362  0.285341  1
  O  O217  1  0.625317  0.431276  0.407721  1
  O  O218  1  0.521716  0.855613  0.317898  1
  O  O219  1  0.843854  0.474595  0.292826  1
  O  O220  1  0.682439  0.257237  0.362932  1
  O  O221  1  0.683684  0.876615  0.379767  1
  O  O222  1  0.848302  0.331933  0.297112  1
  O  O223  1  0.597905  0.091214  0.351033  1
  O  O224  1  0.813320  0.755503  0.419633  1
  O  O225  1  0.686830  0.382151  0.322368  1
  O  O226  1  0.902785  0.286497  0.336704  1
  O  O227  1  0.816269  0.243310  0.366113  1
  O  O228  1  0.652420  0.027831  0.394669  1
  O  O229  1  0.656464  0.161933  0.336446  1
  O  O230  1  0.817566  0.622218  0.437260  1
  O  O231  1  0.688039  0.742158  0.422971  1
  O  O232  1  0.902293  0.407615  0.278965  1
  O  O233  1  0.597024  0.212657  0.353870  1
  O  O234  1  0.811214  0.118257  0.381163  1
  O  O235  1  0.772869  0.421970  0.319209  1
  O  O236  1  0.772785  0.531665  0.463640  1
  O  O237  1  0.555341  0.921119  0.375729  1
  O  O238  1  0.521742  0.103678  0.375168  1
  O  O239  1  0.874767  0.569748  0.478494  1
  O  O240  1  0.624921  0.319603  0.319574  1
  O  O241  1  0.944686  0.032814  0.407963  1
  O  O242  1  0.979708  0.145596  0.341649  1
  O  O243  1  0.726401  0.078282  0.397368  1
  O  O244  1  0.727391  0.967996  0.365547  1
  O  O245  1  0.625966  0.927783  0.397578  1
  O  O246  1  0.947386  0.572963  0.454668  1
  O  O247  1  0.975787  0.397023  0.309492  1
  O  O248  1  0.553374  0.467067  0.309594  1
  O  O249  1  0.524754  0.347840  0.295050  1
  O  O250  1  0.875350  0.178391  0.351447  1
  O  O251  1  0.682428  0.756497  0.293711  1
  O  O252  1  0.562759  0.588319  0.294542  1
  O  O253  1  0.848521  0.967370  0.493605  1
  O  O254  1  0.559641  0.093534  0.437289  1
  O  O255  1  0.932818  0.968462  0.463906  1
  O  O256  1  0.932933  0.469763  0.323328  1
  O  O257  1  0.906235  0.781288  0.307145  1
  O  O258  1  0.689858  0.877988  0.278989  1
  O  O259  1  0.651602  0.531947  0.365647  1
  O  O260  1  0.937058  0.410523  0.365909  1
  O  O261  1  0.819134  0.742285  0.296923  1
  O  O262  1  0.937916  0.908383  0.448246  1
  O  O263  1  0.568228  0.029540  0.422375  1
  O  O264  1  0.568554  0.528908  0.337618  1
  O  O265  1  0.812578  0.618786  0.337219  1
  O  O266  1  0.596680  0.715769  0.321718  1
  O  O267  1  0.803614  0.573095  0.318024  1
  O  O268  1  0.623638  0.604792  0.318297  1
  O  O269  1  0.772271  0.922243  0.489730  1
  O  O270  1  0.805904  0.070946  0.421706  1
  O  O271  1  0.622111  0.106725  0.406960  1
  O  O272  1  0.522327  0.603420  0.351025  1
  O  O273  1  0.946929  0.532162  0.350652  1
  O  O274  1  0.627173  0.819189  0.309123  1
  O  O275  1  0.726826  0.577586  0.340312  1
  O  O276  1  0.697466  0.426725  0.341986  1
  O  O277  1  0.875191  0.398526  0.340246  1
  O  O278  1  0.695240  0.931390  0.463878  1
  O  O279  1  0.874000  0.898245  0.478436  1
  O  O280  1  0.978199  0.895312  0.284704  1
  O  O281  1  0.874915  0.680260  0.340236  1
  O  O282  1  0.554546  0.968961  0.478281  1
  O  O283  1  0.063540  0.087929  0.551802  1
  O  O284  1  0.430712  0.975730  0.575256  1
  O  O285  1  0.151643  0.031715  0.506236  1
  O  O286  1  0.438354  0.911283  0.560649  1
  O  O287  1  0.068963  0.029588  0.535351  1
  O  O288  1  0.304258  0.071569  0.534645  1
  O  O289  1  0.124604  0.105540  0.520373  1
  O  O290  1  0.446097  0.034235  0.520086  1
  O  O291  1  0.228107  0.076248  0.510308  1
  O  O292  1  0.197701  0.926995  0.577037  1
  O  O293  1  0.376708  0.898180  0.591851  1
  O  O294  1  0.182103  0.378618  0.561441  1
  O  O295  1  0.311421  0.255675  0.576714  1
  O  O296  1  0.317621  0.119860  0.619962  1
  O  O297  1  0.188512  0.242863  0.579585  1
  O  O298  1  0.272827  0.030374  0.634353  1
  O  O299  1  0.055998  0.419700  0.546253  1
  O  O300  1  0.226554  0.468596  0.534749  1
  O  O301  1  0.124553  0.430257  0.520498  1
  O  O302  1  0.052772  0.967147  0.591752  1
  O  O303  1  0.061730  0.282626  0.589506  1
  O  O304  1  0.061056  0.781968  0.507850  1
  O  O305  1  0.311876  0.754992  0.532668  1
  O  O306  1  0.067253  0.335272  0.607140  1
  O  O307  1  0.438496  0.713239  0.523342  1
  O  O308  1  0.320080  0.616602  0.551638  1
  O  O309  1  0.190970  0.741168  0.536063  1
  O  O310  1  0.432443  0.664373  0.505036  1
  O  O311  1  0.124682  0.148449  0.647881  1
  O  O312  1  0.271394  0.531784  0.577443  1
  O  O313  1  0.303240  0.319213  0.591902  1
  O  O314  1  0.123326  0.649805  0.509509  1
  O  O315  1  0.374657  0.571872  0.591426  1
  O  O316  1  0.195470  0.181692  0.623067  1
  O  O317  1  0.194340  0.680138  0.520636  1
  O  O318  1  0.127039  0.929698  0.509661  1
  O  O319  1  0.448010  0.572615  0.567746  1
  O  O320  1  0.019752  0.354621  0.633566  1
  O  O321  1  0.848524  0.835274  0.550277  1
  O  O322  1  0.568040  0.835186  0.578964  1
  O  O323  1  0.816131  0.125284  0.505907  1
  O  O324  1  0.650568  0.668080  0.588176  1
  O  O325  1  0.906969  0.904595  0.536953  1
  O  O326  1  0.932392  0.165752  0.532754  1
  O  O327  1  0.774622  0.031917  0.520322  1
  O  O328  1  0.622984  0.151964  0.534791  1
  O  O329  1  0.977432  0.647187  0.591720  1
  O  O330  1  0.693792  0.182370  0.509554  1
  O  O331  1  0.875891  0.850689  0.577456  1
  O  O332  1  0.946648  0.075362  0.511453  1
  O  O333  1  0.521716  0.855613  0.544009  1
  O  O334  1  0.843854  0.474595  0.518937  1
  O  O335  1  0.682439  0.257237  0.589043  1
  O  O336  1  0.848302  0.331933  0.523224  1
  O  O337  1  0.597905  0.091214  0.577144  1
  O  O338  1  0.686830  0.382151  0.548479  1
  O  O339  1  0.902785  0.286497  0.562815  1
  O  O340  1  0.816269  0.243310  0.592224  1
  O  O341  1  0.656464  0.161933  0.562557  1
  O  O342  1  0.902293  0.407615  0.505076  1
  O  O343  1  0.597024  0.212657  0.579982  1
  O  O344  1  0.772869  0.421970  0.545321  1
  O  O345  1  0.624921  0.319603  0.545686  1
  O  O346  1  0.979708  0.145596  0.567761  1
  O  O347  1  0.727391  0.967996  0.591658  1
  O  O348  1  0.975787  0.397023  0.535604  1
  O  O349  1  0.553374  0.467067  0.535706  1
  O  O350  1  0.524754  0.347840  0.521162  1
  O  O351  1  0.875350  0.178391  0.577559  1
  O  O352  1  0.682428  0.756497  0.519822  1
  O  O353  1  0.562759  0.588319  0.520654  1
  O  O354  1  0.932933  0.469763  0.549439  1
  O  O355  1  0.906235  0.781288  0.533257  1
  O  O356  1  0.689858  0.877988  0.505101  1
  O  O357  1  0.651602  0.531947  0.591759  1
  O  O358  1  0.937058  0.410523  0.592020  1
  O  O359  1  0.819134  0.742285  0.523035  1
  O  O360  1  0.568554  0.528908  0.563730  1
  O  O361  1  0.812578  0.618786  0.563331  1
  O  O362  1  0.596680  0.715769  0.547829  1
  O  O363  1  0.803614  0.573095  0.544135  1
  O  O364  1  0.623638  0.604792  0.544408  1
  O  O365  1  0.522327  0.603420  0.577137  1
  O  O366  1  0.946929  0.532162  0.576763  1
  O  O367  1  0.627173  0.819189  0.535234  1
  O  O368  1  0.726826  0.577586  0.566423  1
  O  O369  1  0.697466  0.426725  0.568097  1
  O  O370  1  0.875191  0.398526  0.566357  1
  O  O371  1  0.978199  0.895312  0.510816  1
  O  O372  1  0.874915  0.680260  0.566348  1
  Si  Si373  1  0.347814  0.398304  0.209395  1
  Si  Si374  1  0.115891  0.535643  0.210093  1
  Si  Si375  1  0.097139  0.039838  0.265308  1
  Si  Si376  1  0.133612  0.362031  0.213803  1
  Si  Si377  1  0.242982  0.372779  0.223710  1
  Si  Si378  1  0.383132  0.464381  0.223431  1
  Si  Si379  1  0.005855  0.590352  0.170723  1
  Si  Si380  1  0.365513  0.140814  0.263223  1
  Si  Si381  1  0.256700  0.628251  0.209580  1
  Si  Si382  1  0.348337  0.905495  0.208007  1
  Si  Si383  1  0.095979  0.539661  0.263012  1
  Si  Si384  1  0.495504  0.407426  0.263458  1
  Si  Si385  1  0.401351  0.732362  0.221955  1
  Si  Si386  1  0.152154  0.603788  0.224032  1
  Si  Si387  1  0.364362  0.642291  0.219280  1
  Si  Si388  1  0.098626  0.767541  0.213943  1
  Si  Si389  1  0.254514  0.858493  0.270821  1
  Si  Si390  1  0.007218  0.892617  0.266798  1
  Si  Si391  1  0.403169  0.230513  0.219990  1
  Si  Si392  1  0.150471  0.093189  0.226725  1
  Si  Si393  1  0.386052  0.766732  0.268251  1
  Si  Si394  1  0.095116  0.270300  0.210948  1
  Si  Si395  1  0.758772  0.354994  0.227833  1
  Si  Si396  1  0.865376  0.131982  0.266005  1
  Si  Si397  1  0.506299  0.397494  0.214049  1
  Si  Si398  1  0.884650  0.766696  0.155465  1
  Si  Si399  1  0.884632  0.268786  0.270508  1
  Si  Si400  1  0.635558  0.367742  0.212610  1
  Si  Si401  1  0.756966  0.857712  0.157885  1
  Si  Si402  1  0.848057  0.406361  0.268339  1
  Si  Si403  1  0.866340  0.628535  0.222171  1
  Si  Si404  1  0.992634  0.910308  0.211291  1
  Si  Si405  1  0.741901  0.644605  0.205844  1
  Si  Si406  1  0.994669  0.601468  0.220435  1
  Si  Si407  1  0.847972  0.893267  0.272009  1
  Si  Si408  1  0.613641  0.039918  0.206652  1
  Si  Si409  1  0.745736  0.869643  0.268551  1
  Si  Si410  1  0.885723  0.961287  0.226917  1
  Si  Si411  1  0.503780  0.094355  0.221667  1
  Si  Si412  1  0.347814  0.398304  0.435506  1
  Si  Si413  1  0.115891  0.535643  0.436205  1
  Si  Si414  1  0.254220  0.130769  0.278163  1
  Si  Si415  1  0.116989  0.036914  0.320217  1
  Si  Si416  1  0.097139  0.039838  0.491420  1
  Si  Si417  1  0.133612  0.362031  0.439914  1
  Si  Si418  1  0.493027  0.911947  0.323574  1
  Si  Si419  1  0.242982  0.372779  0.449821  1
  Si  Si420  1  0.383132  0.464381  0.449543  1
  Si  Si421  1  0.152531  0.104240  0.276297  1
  Si  Si422  1  0.386152  0.963627  0.339642  1
  Si  Si423  1  0.402503  0.463299  0.395659  1
  Si  Si424  1  0.005855  0.590352  0.396834  1
  Si  Si425  1  0.365513  0.140814  0.489335  1
  Si  Si426  1  0.256700  0.628251  0.435692  1
  Si  Si427  1  0.347524  0.897159  0.383996  1
  Si  Si428  1  0.348337  0.905495  0.434118  1
  Si  Si429  1  0.256003  0.358133  0.339990  1
  Si  Si430  1  0.364303  0.128293  0.379275  1
  Si  Si431  1  0.006777  0.393896  0.328434  1
  Si  Si432  1  0.095979  0.539661  0.489123  1
  Si  Si433  1  0.495504  0.407426  0.489570  1
  Si  Si434  1  0.401351  0.732362  0.448067  1
  Si  Si435  1  0.133856  0.859884  0.396180  1
  Si  Si436  1  0.152154  0.603788  0.450144  1
  Si  Si437  1  0.243957  0.871246  0.380659  1
  Si  Si438  1  0.243119  0.141588  0.389099  1
  Si  Si439  1  0.151987  0.592784  0.278074  1
  Si  Si440  1  0.495085  0.102109  0.393697  1
  Si  Si441  1  0.400804  0.963840  0.393645  1
  Si  Si442  1  0.135967  0.369237  0.325005  1
  Si  Si443  1  0.364362  0.642291  0.445392  1
  Si  Si444  1  0.006741  0.089594  0.336134  1
  Si  Si445  1  0.098626  0.767541  0.440055  1
  Si  Si446  1  0.254514  0.858493  0.496933  1
  Si  Si447  1  0.114611  0.233572  0.390918  1
  Si  Si448  1  0.346801  0.409123  0.380915  1
  Si  Si449  1  0.112627  0.734365  0.275880  1
  Si  Si450  1  0.007218  0.892617  0.492909  1
  Si  Si451  1  0.367501  0.626050  0.335924  1
  Si  Si452  1  0.403169  0.230513  0.446101  1
  Si  Si453  1  0.150471  0.093189  0.452836  1
  Si  Si454  1  0.386052  0.766732  0.494363  1
  Si  Si455  1  0.245484  0.638315  0.320750  1
  Si  Si456  1  0.383642  0.267319  0.383428  1
  Si  Si457  1  0.137687  0.868351  0.280638  1
  Si  Si458  1  0.493808  0.602728  0.332872  1
  Si  Si459  1  0.095116  0.270300  0.437059  1
  Si  Si460  1  0.849831  0.907280  0.320142  1
  Si  Si461  1  0.612792  0.236455  0.278124  1
  Si  Si462  1  0.758772  0.354994  0.453945  1
  Si  Si463  1  0.616223  0.731355  0.389026  1
  Si  Si464  1  0.865376  0.131982  0.492116  1
  Si  Si465  1  0.506299  0.397494  0.440161  1
  Si  Si466  1  0.903244  0.733235  0.334681  1
  Si  Si467  1  0.743015  0.143689  0.275194  1
  Si  Si468  1  0.884650  0.766696  0.381577  1
  Si  Si469  1  0.649383  0.595363  0.390920  1
  Si  Si470  1  0.884632  0.268786  0.496620  1
  Si  Si471  1  0.994446  0.102526  0.280811  1
  Si  Si472  1  0.635558  0.367742  0.438722  1
  Si  Si473  1  0.596941  0.769423  0.326198  1
  Si  Si474  1  0.847317  0.397942  0.321955  1
  Si  Si475  1  0.756449  0.130107  0.391373  1
  Si  Si476  1  0.756966  0.857712  0.383996  1
  Si  Si477  1  0.848057  0.406361  0.494451  1
  Si  Si478  1  0.503731  0.898940  0.378344  1
  Si  Si479  1  0.597468  0.036882  0.379796  1
  Si  Si480  1  0.866340  0.628535  0.448283  1
  Si  Si481  1  0.634109  0.360670  0.327203  1
  Si  Si482  1  0.992634  0.910308  0.437402  1
  Si  Si483  1  0.903709  0.231007  0.332732  1
  Si  Si484  1  0.743207  0.371343  0.337332  1
  Si  Si485  1  0.651476  0.102995  0.389623  1
  Si  Si486  1  0.652842  0.092585  0.340261  1
  Si  Si487  1  0.741901  0.644605  0.431956  1
  Si  Si488  1  0.637060  0.866944  0.394330  1
  Si  Si489  1  0.994669  0.601468  0.446547  1
  Si  Si490  1  0.900829  0.461962  0.283485  1
  Si  Si491  1  0.506230  0.589618  0.283758  1
  Si  Si492  1  0.599034  0.263648  0.325562  1
  Si  Si493  1  0.863912  0.138517  0.377439  1
  Si  Si494  1  0.756340  0.629142  0.322356  1
  Si  Si495  1  0.616729  0.535886  0.323285  1
  Si  Si496  1  0.847972  0.893267  0.498121  1
  Si  Si497  1  0.613641  0.039918  0.432764  1
  Si  Si498  1  0.596771  0.541492  0.376459  1
  Si  Si499  1  0.993686  0.409415  0.376828  1
  Si  Si500  1  0.636039  0.858165  0.283379  1
  Si  Si501  1  0.651404  0.603729  0.336694  1
  Si  Si502  1  0.884294  0.463639  0.337059  1
  Si  Si503  1  0.745736  0.869643  0.494662  1
  Si  Si504  1  0.885723  0.961287  0.453029  1
  Si  Si505  1  0.904091  0.959179  0.281838  1
  Si  Si506  1  0.866064  0.638875  0.332664  1
  Si  Si507  1  0.503780  0.094355  0.447778  1
  Si  Si508  1  0.254220  0.130769  0.504275  1
  Si  Si509  1  0.116989  0.036914  0.546328  1
  Si  Si510  1  0.493027  0.911947  0.549685  1
  Si  Si511  1  0.152531  0.104240  0.502409  1
  Si  Si512  1  0.386152  0.963627  0.565753  1
  Si  Si513  1  0.256003  0.358133  0.566102  1
  Si  Si514  1  0.006777  0.393896  0.554545  1
  Si  Si515  1  0.243119  0.141588  0.615210  1
  Si  Si516  1  0.151987  0.592784  0.504185  1
  Si  Si517  1  0.135967  0.369237  0.551116  1
  Si  Si518  1  0.006741  0.089594  0.562245  1
  Si  Si519  1  0.114611  0.233572  0.617030  1
  Si  Si520  1  0.112627  0.734365  0.501991  1
  Si  Si521  1  0.367501  0.626050  0.562036  1
  Si  Si522  1  0.245484  0.638315  0.546861  1
  Si  Si523  1  0.137687  0.868351  0.506750  1
  Si  Si524  1  0.493808  0.602728  0.558983  1
  Si  Si525  1  0.849831  0.907280  0.546253  1
  Si  Si526  1  0.612792  0.236455  0.504235  1
  Si  Si527  1  0.903244  0.733235  0.560792  1
  Si  Si528  1  0.743015  0.143689  0.501306  1
  Si  Si529  1  0.994446  0.102526  0.506923  1
  Si  Si530  1  0.596941  0.769423  0.552310  1
  Si  Si531  1  0.847317  0.397942  0.548066  1
  Si  Si532  1  0.634109  0.360670  0.553315  1
  Si  Si533  1  0.903709  0.231007  0.558844  1
  Si  Si534  1  0.743207  0.371343  0.563443  1
  Si  Si535  1  0.652842  0.092585  0.566373  1
  Si  Si536  1  0.900829  0.461962  0.509597  1
  Si  Si537  1  0.506230  0.589618  0.509869  1
  Si  Si538  1  0.599034  0.263648  0.551673  1
  Si  Si539  1  0.756340  0.629142  0.548467  1
  Si  Si540  1  0.616729  0.535886  0.549396  1
  Si  Si541  1  0.993686  0.409415  0.602940  1
  Si  Si542  1  0.636039  0.858165  0.509491  1
  Si  Si543  1  0.651404  0.603729  0.562806  1
  Si  Si544  1  0.884294  0.463639  0.563171  1
  Si  Si545  1  0.904091  0.959179  0.507949  1
  Si  Si546  1  0.866064  0.638875  0.558776  1
  H  H547  1  0.347967  0.471240  0.168821  1
  H  H548  1  0.477719  0.398099  0.183736  1
  H  H549  1  0.182014  0.755930  0.169183  1
  H  H550  1  0.401939  0.786196  0.181505  1
  H  H551  1  0.317982  0.744014  0.171836  1
  H  H552  1  0.402405  0.908346  0.184922  1
  H  H553  1  0.272827  0.030374  0.170339  1
  H  H554  1  0.127176  0.819467  0.184562  1
  H  H555  1  0.347711  0.334130  0.172110  1
  H  H556  1  0.430496  0.166494  0.181292  1
  H  H557  1  0.124682  0.148449  0.183867  1
  H  H558  1  0.019752  0.354621  0.169552  1
  H  H559  1  0.977432  0.647187  0.127707  1
  H  H560  1  0.875891  0.850689  0.113443  1
  H  H561  1  0.725548  0.468867  0.183910  1
  H  H562  1  0.695837  0.681836  0.168438  1
  H  H563  1  0.625317  0.431276  0.169820  1
  H  H564  1  0.683684  0.876615  0.141866  1
  H  H565  1  0.688039  0.742158  0.185069  1
  H  H566  1  0.944686  0.032814  0.170062  1
  H  H567  1  0.727391  0.967996  0.127645  1
  H  H568  1  0.568228  0.029540  0.184473  1
  H  H569  1  0.805904  0.070946  0.183805  1
  H  H570  1  0.622111  0.106725  0.169058  1
  H  H571  1  0.430712  0.975730  0.587046  1
  H  H572  1  0.197701  0.926995  0.588827  1
  H  H573  1  0.376708  0.898180  0.603641  1
  H  H574  1  0.311421  0.255675  0.588505  1
  H  H575  1  0.317621  0.119860  0.631752  1
  H  H576  1  0.272827  0.030374  0.646143  1
  H  H577  1  0.052772  0.967147  0.603542  1
  H  H578  1  0.124682  0.148449  0.659671  1
  H  H579  1  0.271394  0.531784  0.589233  1
  H  H580  1  0.303240  0.319213  0.603692  1
  H  H581  1  0.374657  0.571872  0.603216  1
  H  H582  1  0.019752  0.354621  0.645356  1
  H  H583  1  0.568040  0.835186  0.590755  1
  H  H584  1  0.650568  0.668080  0.599966  1
  H  H585  1  0.977432  0.647187  0.603510  1
  H  H586  1  0.875891  0.850689  0.589246  1
  H  H587  1  0.682439  0.257237  0.600834  1
  H  H588  1  0.597905  0.091214  0.588934  1
  H  H589  1  0.816269  0.243310  0.604014  1
  H  H590  1  0.597024  0.212657  0.591772  1
  H  H591  1  0.727391  0.967996  0.603449  1
  H  H592  1  0.875350  0.178391  0.589349  1
  H  H593  1  0.651602  0.531947  0.603549  1
  H  H594  1  0.522327  0.603420  0.588927  1
