# generated using pymatgen
data_Si8H2O17
_symmetry_space_group_name_H-M   'P 1'
_cell_length_a   8.62848311
_cell_length_b   5.07745059
_cell_length_c   39.06883094
_cell_angle_alpha   90.00000000
_cell_angle_beta   90.00000000
_cell_angle_gamma   90.00000000
_symmetry_Int_Tables_number   1
_chemical_formula_structural   Si8H2O17
_chemical_formula_sum   'Si16 H4 O34'
_cell_volume   1711.6327012
_cell_formula_units_Z   2
loop_
 _symmetry_equiv_pos_site_id
 _symmetry_equiv_pos_as_xyz
  1  'x, y, z'
loop_
 _atom_site_type_symbol
 _atom_site_label
 _atom_site_symmetry_multiplicity
 _atom_site_fract_x
 _atom_site_fract_y
 _atom_site_fract_z
 _atom_site_occupancy
  O  O1  1  0.733884  0.748820  0.210239  1
  O  O2  1  0.265645  0.155187  0.203284  1
  O  O3  1  0.767385  0.248819  0.201976  1
  O  O4  1  0.235683  0.655188  0.209641  1
  O  O5  1  0.705463  0.546121  0.151016  1
  O  O6  1  -0.000000  0.957987  0.216102  1
  O  O7  1  0.794314  0.046155  0.261243  1
  O  O8  1  0.294194  0.456534  0.151086  1
  O  O9  1  0.501067  0.457927  0.196441  1
  O  O10  1  0.268783  0.242915  0.313538  1
  O  O11  1  0.733884  0.748820  0.431208  1
  O  O12  1  0.265645  0.155187  0.424253  1
  O  O13  1  0.734026  0.846656  0.319691  1
  O  O14  1  0.767385  0.248819  0.422946  1
  O  O15  1  0.229359  0.742918  0.320340  1
  O  O16  1  0.764016  0.346666  0.313478  1
  O  O17  1  0.235683  0.655188  0.430611  1
  O  O18  1  0.205393  0.956484  0.261778  1
  O  O19  1  0.705463  0.546121  0.371985  1
  O  O20  1  -0.000000  0.957987  0.437071  1
  O  O21  1  0.498532  0.543877  0.326596  1
  O  O22  1  0.794314  0.046155  0.482213  1
  O  O23  1  0.294194  0.456534  0.372056  1
  O  O24  1  -0.000000  0.043848  0.306958  1
  O  O25  1  0.501067  0.457927  0.417410  1
  O  O26  1  0.268783  0.242915  0.534508  1
  O  O27  1  0.734026  0.846656  0.540661  1
  O  O28  1  0.229359  0.742918  0.541310  1
  O  O29  1  0.764016  0.346666  0.534448  1
  O  O30  1  0.205393  0.956484  0.482748  1
  O  O31  1  0.705463  0.546121  0.592955  1
  O  O32  1  0.498532  0.543877  0.547566  1
  O  O33  1  0.294194  0.456534  0.593026  1
  O  O34  1  -0.000000  0.043848  0.527928  1
  Si  Si35  1  0.678156  0.500473  0.190128  1
  Si  Si36  1  0.178023  0.929743  0.222402  1
  Si  Si37  1  0.822741  0.000000  0.222168  1
  Si  Si38  1  0.322835  0.429741  0.190420  1
  Si  Si39  1  0.176728  0.996540  0.300929  1
  Si  Si40  1  0.678156  0.500473  0.411098  1
  Si  Si41  1  0.178023  0.929743  0.443372  1
  Si  Si42  1  0.676782  0.572348  0.332635  1
  Si  Si43  1  0.822741  0.000000  0.443138  1
  Si  Si44  1  0.321765  0.496603  0.332866  1
  Si  Si45  1  0.821731  0.072345  0.300637  1
  Si  Si46  1  0.322835  0.429741  0.411390  1
  Si  Si47  1  0.176728  0.996540  0.521899  1
  Si  Si48  1  0.676782  0.572348  0.553605  1
  Si  Si49  1  0.321765  0.496603  0.553835  1
  Si  Si50  1  0.821731  0.072345  0.521607  1
  H  H51  1  0.705463  0.546121  0.127979  1
  H  H52  1  0.294194  0.456534  0.128050  1
  H  H53  1  0.705463  0.546121  0.615991  1
  H  H54  1  0.294194  0.456534  0.616062  1
