# generated using pymatgen
data_Si16H2O33
_symmetry_space_group_name_H-M   'P 1'
_cell_length_a   19.95132824
_cell_length_b   12.61157101
_cell_length_c   52.60111451
_cell_angle_alpha   90.00000000
_cell_angle_beta   90.00000000
_cell_angle_gamma   90.00000000
_symmetry_Int_Tables_number   1
_chemical_formula_structural   Si16H2O33
_chemical_formula_sum   'Si128 H16 O264'
_cell_volume   13235.3658131
_cell_formula_units_Z   8
loop_
 _symmetry_equiv_pos_site_id
 _symmetry_equiv_pos_as_xyz
  1  'x, y, z'
loop_
 _atom_site_type_symbol
 _atom_site_label
 _atom_site_symmetry_multiplicity
 _atom_site_fract_x
 _atom_site_fract_y
 _atom_site_fract_z
 _atom_site_occupancy
  O  O1  1  0.801760  0.419176  0.340336  1
  O  O2  1  0.698203  0.080772  0.340331  1
  O  O3  1  0.876180  0.259784  0.324772  1
  O  O4  1  0.876176  0.259812  0.257399  1
  O  O5  1  0.623771  0.240210  0.257395  1
  O  O6  1  0.623773  0.240155  0.324768  1
  O  O7  1  0.808666  0.359485  0.291085  1
  O  O8  1  0.691279  0.140496  0.291080  1
  O  O9  1  0.749975  0.249983  0.324420  1
  O  O10  1  0.749974  0.250009  0.257748  1
  O  O11  1  0.901539  0.071751  0.339888  1
  O  O12  1  0.598411  0.428165  0.339891  1
  O  O13  1  0.000000  0.185595  0.324120  1
  O  O14  1  0.000000  0.185605  0.258047  1
  O  O15  1  0.913784  0.130214  0.291084  1
  O  O16  1  0.586149  0.369754  0.291085  1
  O  O17  1  0.803655  0.574856  0.375438  1
  O  O18  1  0.696276  0.925097  0.375434  1
  O  O19  1  0.699356  0.120745  0.387905  1
  O  O20  1  0.800647  0.379212  0.387910  1
  O  O21  1  0.876421  0.734761  0.393060  1
  O  O22  1  0.623535  0.765156  0.393058  1
  O  O23  1  0.749979  0.749983  0.390671  1
  O  O24  1  0.904075  0.921652  0.375905  1
  O  O25  1  0.595909  0.578253  0.375909  1
  O  O26  1  0.595412  0.385469  0.387169  1
  O  O27  1  0.904527  0.114440  0.387164  1
  O  O28  1  0.700217  0.464798  0.368301  1
  O  O29  1  0.799745  0.035050  0.368292  1
  O  O30  1  0.698153  0.919197  0.112606  1
  O  O31  1  0.801758  0.419196  0.241829  1
  O  O32  1  0.698181  0.080832  0.241824  1
  O  O33  1  0.801755  0.580832  0.112613  1
  O  O34  1  0.598407  0.571752  0.112169  1
  O  O35  1  0.901503  0.071796  0.242275  1
  O  O36  1  0.598413  0.428236  0.242280  1
  O  O37  1  0.901533  0.928273  0.112165  1
  O  O38  1  0.696254  0.074898  0.147706  1
  O  O39  1  0.803627  0.574874  0.206727  1
  O  O40  1  0.696306  0.925154  0.206723  1
  O  O41  1  0.803646  0.425131  0.147710  1
  O  O42  1  0.699252  0.120802  0.194248  1
  O  O43  1  0.800629  0.620775  0.160184  1
  O  O44  1  0.699303  0.879251  0.160179  1
  O  O45  1  0.800647  0.379223  0.194253  1
  O  O46  1  0.623512  0.234820  0.165336  1
  O  O47  1  0.876375  0.734805  0.189101  1
  O  O48  1  0.623526  0.765261  0.189099  1
  O  O49  1  0.876413  0.265241  0.165336  1
  O  O50  1  0.749963  0.250006  0.162946  1
  O  O51  1  0.749949  0.750004  0.191486  1
  O  O52  1  0.595888  0.421703  0.148192  1
  O  O53  1  0.903979  0.921715  0.206253  1
  O  O54  1  0.595939  0.578346  0.206262  1
  O  O55  1  0.904022  0.078355  0.148182  1
  O  O56  1  0.595361  0.385556  0.195004  1
  O  O57  1  0.904497  0.885573  0.159441  1
  O  O58  1  0.595397  0.614482  0.159447  1
  O  O59  1  0.904580  0.114500  0.194996  1
  O  O60  1  0.000000  0.812219  0.186574  1
  O  O61  1  0.799706  0.964904  0.140562  1
  O  O62  1  0.700209  0.464767  0.213862  1
  O  O63  1  0.799716  0.035314  0.213847  1
  O  O64  1  0.700204  0.535169  0.140578  1
  O  O65  1  0.000000  0.187810  0.167853  1
  O  O66  1  0.198201  0.419115  0.340336  1
  O  O67  1  0.301780  0.080746  0.340338  1
  O  O68  1  0.123776  0.259733  0.324768  1
  O  O69  1  0.123771  0.259720  0.257396  1
  O  O70  1  0.376181  0.240120  0.257393  1
  O  O71  1  0.376182  0.240143  0.324768  1
  O  O72  1  0.191282  0.359411  0.291083  1
  O  O73  1  0.308684  0.140434  0.291083  1
  O  O74  1  0.249978  0.249919  0.324417  1
  O  O75  1  0.249978  0.249912  0.257742  1
  O  O76  1  0.098423  0.071717  0.339887  1
  O  O77  1  0.401528  0.428163  0.339887  1
  O  O78  1  0.499974  0.314343  0.258043  1
  O  O79  1  0.499972  0.314315  0.324118  1
  O  O80  1  0.086145  0.130158  0.291082  1
  O  O81  1  0.413787  0.369713  0.291079  1
  O  O82  1  0.196330  0.574809  0.375435  1
  O  O83  1  0.303664  0.925077  0.375442  1
  O  O84  1  0.300657  0.120723  0.387913  1
  O  O85  1  0.199289  0.379159  0.387911  1
  O  O86  1  0.123562  0.734717  0.393060  1
  O  O87  1  0.376419  0.765161  0.393067  1
  O  O88  1  0.249992  0.749947  0.390677  1
  O  O89  1  0.095946  0.921624  0.375905  1
  O  O90  1  0.404015  0.578252  0.375907  1
  O  O91  1  0.404595  0.385461  0.387165  1
  O  O92  1  0.095401  0.114411  0.387163  1
  O  O93  1  0.299742  0.464673  0.368310  1
  O  O94  1  0.200231  0.035147  0.368301  1
  O  O95  1  0.499970  0.687732  0.395587  1
  O  O96  1  0.000000  0.812132  0.395584  1
  O  O97  1  0.301760  0.919052  0.112620  1
  O  O98  1  0.198180  0.419098  0.241830  1
  O  O99  1  0.301752  0.080697  0.241837  1
  O  O100  1  0.198160  0.580720  0.112609  1
  O  O101  1  0.401531  0.571671  0.112168  1
  O  O102  1  0.098383  0.071715  0.242274  1
  O  O103  1  0.401514  0.428155  0.242277  1
  O  O104  1  0.098433  0.928176  0.112166  1
  O  O105  1  0.303681  0.074707  0.147724  1
  O  O106  1  0.196198  0.574745  0.206723  1
  O  O107  1  0.303590  0.924972  0.206741  1
  O  O108  1  0.196360  0.425009  0.147708  1
  O  O109  1  0.300654  0.120623  0.194265  1
  O  O110  1  0.199208  0.620664  0.160183  1
  O  O111  1  0.300616  0.879063  0.160197  1
  O  O112  1  0.199359  0.379106  0.194254  1
  O  O113  1  0.376419  0.234655  0.165349  1
  O  O114  1  0.123466  0.734708  0.189102  1
  O  O115  1  0.376366  0.765094  0.189115  1
  O  O116  1  0.123570  0.265156  0.165338  1
  O  O117  1  0.249997  0.249843  0.162951  1
  O  O118  1  0.249912  0.749845  0.191495  1
  O  O119  1  0.403948  0.421592  0.148189  1
  O  O120  1  0.095895  0.921628  0.206256  1
  O  O121  1  0.404064  0.578234  0.206259  1
  O  O122  1  0.095932  0.078266  0.148183  1
  O  O123  1  0.404481  0.385457  0.195001  1
  O  O124  1  0.095372  0.885484  0.159443  1
  O  O125  1  0.404587  0.614386  0.159446  1
  O  O126  1  0.095384  0.114414  0.194996  1
  O  O127  1  0.499972  0.687803  0.186585  1
  O  O128  1  0.200218  0.964717  0.140587  1
  O  O129  1  0.299713  0.464899  0.213874  1
  O  O130  1  0.200193  0.035124  0.213870  1
  O  O131  1  0.299715  0.535284  0.140586  1
  O  O132  1  0.499943  0.312207  0.167869  1
  O  O133  1  0.698153  0.919197  0.568051  1
  O  O134  1  0.801758  0.419196  0.697274  1
  O  O135  1  0.698181  0.080832  0.697269  1
  O  O136  1  0.801755  0.580832  0.568058  1
  O  O137  1  0.598407  0.571752  0.567614  1
  O  O138  1  0.901503  0.071796  0.697720  1
  O  O139  1  0.598413  0.428236  0.697725  1
  O  O140  1  0.901533  0.928273  0.567610  1
  O  O141  1  0.696254  0.074898  0.603151  1
  O  O142  1  0.803627  0.574874  0.662172  1
  O  O143  1  0.696306  0.925154  0.662168  1
  O  O144  1  0.803646  0.425131  0.603155  1
  O  O145  1  0.699252  0.120802  0.649693  1
  O  O146  1  0.800629  0.620775  0.615629  1
  O  O147  1  0.699303  0.879251  0.615624  1
  O  O148  1  0.800647  0.379223  0.649698  1
  O  O149  1  0.623512  0.234820  0.620781  1
  O  O150  1  0.876375  0.734805  0.644545  1
  O  O151  1  0.623526  0.765261  0.644544  1
  O  O152  1  0.876413  0.265241  0.620781  1
  O  O153  1  0.749963  0.250006  0.618391  1
  O  O154  1  0.749949  0.750004  0.646931  1
  O  O155  1  0.595888  0.421703  0.603636  1
  O  O156  1  0.903979  0.921715  0.661698  1
  O  O157  1  0.595939  0.578346  0.661707  1
  O  O158  1  0.904022  0.078355  0.603627  1
  O  O159  1  0.595361  0.385556  0.650449  1
  O  O160  1  0.904497  0.885573  0.614886  1
  O  O161  1  0.595397  0.614482  0.614892  1
  O  O162  1  0.904580  0.114500  0.650441  1
  O  O163  1  0.000000  0.812219  0.642019  1
  O  O164  1  0.799706  0.964904  0.596007  1
  O  O165  1  0.700209  0.464767  0.669307  1
  O  O166  1  0.799716  0.035314  0.669292  1
  O  O167  1  0.700204  0.535169  0.596023  1
  O  O168  1  -0.000000  0.187810  0.623298  1
  O  O169  1  0.698185  0.919151  0.469550  1
  O  O170  1  0.801768  0.580806  0.469557  1
  O  O171  1  0.623753  0.759765  0.552491  1
  O  O172  1  0.623762  0.759747  0.485115  1
  O  O173  1  0.876174  0.740210  0.485121  1
  O  O174  1  0.876169  0.740251  0.552497  1
  O  O175  1  0.691249  0.859460  0.518803  1
  O  O176  1  0.808685  0.640526  0.518809  1
  O  O177  1  0.749968  0.749982  0.485471  1
  O  O178  1  0.598421  0.571717  0.469998  1
  O  O179  1  0.901542  0.928216  0.469996  1
  O  O180  1  -0.000000  0.814383  0.551842  1
  O  O181  1  0.586159  0.630171  0.518804  1
  O  O182  1  0.913791  0.869800  0.518805  1
  O  O183  1  0.696339  0.074828  0.434449  1
  O  O184  1  0.803666  0.425127  0.434454  1
  O  O185  1  0.800659  0.620775  0.421981  1
  O  O186  1  0.699282  0.879179  0.421976  1
  O  O187  1  0.623568  0.234713  0.416824  1
  O  O188  1  0.876425  0.265214  0.416823  1
  O  O189  1  0.749997  0.249981  0.419218  1
  O  O190  1  0.595953  0.421616  0.433982  1
  O  O191  1  0.904008  0.078296  0.433976  1
  O  O192  1  0.904597  0.885508  0.422718  1
  O  O193  1  0.595394  0.614403  0.422721  1
  O  O194  1  0.749961  0.750014  0.552140  1
  O  O195  1  0.799743  0.964687  0.441579  1
  O  O196  1  0.700230  0.535182  0.441587  1
  O  O197  1  0.000000  0.814359  0.485771  1
  O  O198  1  0.000000  0.187745  0.414295  1
  O  O199  1  0.500001  0.312119  0.414308  1
  O  O200  1  0.301760  0.919052  0.568065  1
  O  O201  1  0.198180  0.419098  0.697275  1
  O  O202  1  0.301752  0.080697  0.697282  1
  O  O203  1  0.198160  0.580720  0.568053  1
  O  O204  1  0.401531  0.571671  0.567613  1
  O  O205  1  0.098383  0.071715  0.697719  1
  O  O206  1  0.401514  0.428155  0.697722  1
  O  O207  1  0.098433  0.928176  0.567611  1
  O  O208  1  0.303681  0.074707  0.603169  1
  O  O209  1  0.196198  0.574745  0.662168  1
  O  O210  1  0.303590  0.924972  0.662186  1
  O  O211  1  0.196360  0.425009  0.603153  1
  O  O212  1  0.300654  0.120623  0.649710  1
  O  O213  1  0.199208  0.620664  0.615628  1
  O  O214  1  0.300616  0.879063  0.615642  1
  O  O215  1  0.199359  0.379106  0.649699  1
  O  O216  1  0.376419  0.234655  0.620794  1
  O  O217  1  0.123466  0.734708  0.644547  1
  O  O218  1  0.376366  0.765094  0.644560  1
  O  O219  1  0.123570  0.265156  0.620783  1
  O  O220  1  0.249997  0.249843  0.618396  1
  O  O221  1  0.249912  0.749845  0.646940  1
  O  O222  1  0.403948  0.421592  0.603634  1
  O  O223  1  0.095895  0.921628  0.661701  1
  O  O224  1  0.404064  0.578234  0.661704  1
  O  O225  1  0.095932  0.078266  0.603628  1
  O  O226  1  0.404481  0.385457  0.650446  1
  O  O227  1  0.095372  0.885484  0.614888  1
  O  O228  1  0.404587  0.614386  0.614891  1
  O  O229  1  0.095384  0.114414  0.650441  1
  O  O230  1  0.499972  0.687803  0.642030  1
  O  O231  1  0.200218  0.964717  0.596031  1
  O  O232  1  0.299713  0.464899  0.669318  1
  O  O233  1  0.200193  0.035124  0.669315  1
  O  O234  1  0.299715  0.535284  0.596031  1
  O  O235  1  0.499943  0.312207  0.623314  1
  O  O236  1  0.301766  0.919124  0.469559  1
  O  O237  1  0.198175  0.580757  0.469552  1
  O  O238  1  0.376163  0.759672  0.552492  1
  O  O239  1  0.376171  0.759701  0.485117  1
  O  O240  1  0.123763  0.740176  0.485114  1
  O  O241  1  0.123750  0.740144  0.552490  1
  O  O242  1  0.308685  0.859400  0.518808  1
  O  O243  1  0.191248  0.640453  0.518802  1
  O  O244  1  0.249955  0.749901  0.552139  1
  O  O245  1  0.249968  0.749933  0.485469  1
  O  O246  1  0.401543  0.571683  0.469996  1
  O  O247  1  0.098415  0.928198  0.469997  1
  O  O248  1  0.499962  0.685554  0.551838  1
  O  O249  1  0.499971  0.685556  0.485768  1
  O  O250  1  0.413787  0.630114  0.518803  1
  O  O251  1  0.086162  0.869750  0.518804  1
  O  O252  1  0.303666  0.074819  0.434457  1
  O  O253  1  0.196292  0.425067  0.434454  1
  O  O254  1  0.199318  0.620711  0.421979  1
  O  O255  1  0.300657  0.879173  0.421986  1
  O  O256  1  0.376428  0.234710  0.416825  1
  O  O257  1  0.123539  0.265154  0.416828  1
  O  O258  1  0.249985  0.249948  0.419218  1
  O  O259  1  0.404039  0.421597  0.433978  1
  O  O260  1  0.095921  0.078263  0.433975  1
  O  O261  1  0.095421  0.885479  0.422719  1
  O  O262  1  0.404550  0.614379  0.422720  1
  O  O263  1  0.200228  0.964779  0.441591  1
  O  O264  1  0.299735  0.535095  0.441591  1
  Si  Si265  1  0.622140  0.466591  0.366970  1
  Si  Si266  1  0.810652  0.327367  0.320170  1
  Si  Si267  1  0.810649  0.327395  0.261998  1
  Si  Si268  1  0.689296  0.172625  0.261995  1
  Si  Si269  1  0.689306  0.172589  0.320167  1
  Si  Si270  1  0.922946  0.160416  0.320211  1
  Si  Si271  1  0.922931  0.160429  0.261957  1
  Si  Si272  1  0.576999  0.339569  0.261956  1
  Si  Si273  1  0.577002  0.339518  0.320211  1
  Si  Si274  1  0.809209  0.670095  0.394775  1
  Si  Si275  1  0.690737  0.829852  0.394771  1
  Si  Si276  1  0.922671  0.834816  0.396351  1
  Si  Si277  1  0.577303  0.665083  0.396354  1
  Si  Si278  1  0.778433  0.461596  0.367144  1
  Si  Si279  1  0.721529  0.038337  0.367138  1
  Si  Si280  1  0.877821  0.033300  0.366965  1
  Si  Si281  1  0.622133  0.466660  0.215200  1
  Si  Si282  1  0.877784  0.966703  0.139240  1
  Si  Si283  1  0.690718  0.170137  0.167044  1
  Si  Si284  1  0.809175  0.670107  0.187388  1
  Si  Si285  1  0.690739  0.829927  0.187383  1
  Si  Si286  1  0.809195  0.329895  0.167048  1
  Si  Si287  1  0.577272  0.334879  0.168637  1
  Si  Si288  1  0.922595  0.834893  0.185807  1
  Si  Si289  1  0.577308  0.665162  0.185815  1
  Si  Si290  1  0.922654  0.165175  0.168626  1
  Si  Si291  1  0.721490  0.961645  0.139411  1
  Si  Si292  1  0.778426  0.461601  0.215020  1
  Si  Si293  1  0.721499  0.038434  0.215013  1
  Si  Si294  1  0.778422  0.538391  0.139417  1
  Si  Si295  1  0.622128  0.533354  0.139250  1
  Si  Si296  1  0.877791  0.033405  0.215191  1
  Si  Si297  1  0.377818  0.466567  0.366970  1
  Si  Si298  1  0.189305  0.327310  0.320169  1
  Si  Si299  1  0.189301  0.327292  0.261997  1
  Si  Si300  1  0.310656  0.172533  0.261996  1
  Si  Si301  1  0.310661  0.172546  0.320169  1
  Si  Si302  1  0.077004  0.160372  0.320209  1
  Si  Si303  1  0.076989  0.160373  0.261955  1
  Si  Si304  1  0.422939  0.339499  0.261953  1
  Si  Si305  1  0.422943  0.339514  0.320207  1
  Si  Si306  1  0.190770  0.670040  0.394774  1
  Si  Si307  1  0.309214  0.829846  0.394781  1
  Si  Si308  1  0.077334  0.834797  0.396352  1
  Si  Si309  1  0.422639  0.665069  0.396354  1
  Si  Si310  1  0.221525  0.461528  0.367145  1
  Si  Si311  1  0.278448  0.038338  0.367146  1
  Si  Si312  1  0.122154  0.033298  0.366966  1
  Si  Si313  1  0.122143  0.966588  0.139248  1
  Si  Si314  1  0.309221  0.169948  0.167061  1
  Si  Si315  1  0.190662  0.669994  0.187388  1
  Si  Si316  1  0.309145  0.829738  0.187403  1
  Si  Si317  1  0.190796  0.329789  0.167049  1
  Si  Si318  1  0.422603  0.334792  0.168636  1
  Si  Si319  1  0.077262  0.834815  0.185809  1
  Si  Si320  1  0.422646  0.665080  0.185814  1
  Si  Si321  1  0.077318  0.165102  0.168627  1
  Si  Si322  1  0.278434  0.961462  0.139430  1
  Si  Si323  1  0.221496  0.461532  0.215022  1
  Si  Si324  1  0.278410  0.038260  0.215031  1
  Si  Si325  1  0.221497  0.538320  0.139419  1
  Si  Si326  1  0.377790  0.533298  0.139250  1
  Si  Si327  1  0.122116  0.033294  0.215196  1
  Si  Si328  1  0.377789  0.466603  0.215200  1
  Si  Si329  1  0.622133  0.466660  0.670645  1
  Si  Si330  1  0.877784  0.966703  0.594685  1
  Si  Si331  1  0.690718  0.170137  0.622489  1
  Si  Si332  1  0.809175  0.670107  0.642833  1
  Si  Si333  1  0.690739  0.829927  0.642828  1
  Si  Si334  1  0.809195  0.329895  0.622493  1
  Si  Si335  1  0.577272  0.334879  0.624082  1
  Si  Si336  1  0.922595  0.834893  0.641252  1
  Si  Si337  1  0.577308  0.665162  0.641260  1
  Si  Si338  1  0.922654  0.165175  0.624071  1
  Si  Si339  1  0.721490  0.961645  0.594856  1
  Si  Si340  1  0.778426  0.461601  0.670465  1
  Si  Si341  1  0.721499  0.038434  0.670458  1
  Si  Si342  1  0.778422  0.538391  0.594862  1
  Si  Si343  1  0.622128  0.533354  0.594695  1
  Si  Si344  1  0.877791  0.033405  0.670636  1
  Si  Si345  1  0.877819  0.966608  0.442914  1
  Si  Si346  1  0.689271  0.827368  0.547889  1
  Si  Si347  1  0.689280  0.827348  0.489717  1
  Si  Si348  1  0.810653  0.672620  0.489723  1
  Si  Si349  1  0.810651  0.672652  0.547895  1
  Si  Si350  1  0.576996  0.660387  0.547931  1
  Si  Si351  1  0.577003  0.660372  0.489676  1
  Si  Si352  1  0.922944  0.839572  0.489679  1
  Si  Si353  1  0.922942  0.839606  0.547934  1
  Si  Si354  1  0.690787  0.170060  0.415111  1
  Si  Si355  1  0.809215  0.329893  0.415115  1
  Si  Si356  1  0.577332  0.334787  0.413537  1
  Si  Si357  1  0.922637  0.165114  0.413530  1
  Si  Si358  1  0.721526  0.961549  0.442741  1
  Si  Si359  1  0.778445  0.538388  0.442747  1
  Si  Si360  1  0.622153  0.533299  0.442919  1
  Si  Si361  1  0.122143  0.966588  0.594692  1
  Si  Si362  1  0.309221  0.169948  0.622506  1
  Si  Si363  1  0.190662  0.669994  0.642833  1
  Si  Si364  1  0.309145  0.829738  0.642848  1
  Si  Si365  1  0.190796  0.329789  0.622494  1
  Si  Si366  1  0.422603  0.334792  0.624080  1
  Si  Si367  1  0.077262  0.834815  0.641254  1
  Si  Si368  1  0.422646  0.665080  0.641259  1
  Si  Si369  1  0.077318  0.165102  0.624072  1
  Si  Si370  1  0.278434  0.961462  0.594875  1
  Si  Si371  1  0.221496  0.461532  0.670467  1
  Si  Si372  1  0.278410  0.038260  0.670476  1
  Si  Si373  1  0.221497  0.538320  0.594864  1
  Si  Si374  1  0.377790  0.533298  0.594695  1
  Si  Si375  1  0.122116  0.033294  0.670641  1
  Si  Si376  1  0.377789  0.466603  0.670645  1
  Si  Si377  1  0.122151  0.966605  0.442917  1
  Si  Si378  1  0.310642  0.827265  0.547893  1
  Si  Si379  1  0.310653  0.827297  0.489722  1
  Si  Si380  1  0.189279  0.672570  0.489716  1
  Si  Si381  1  0.189268  0.672538  0.547889  1
  Si  Si382  1  0.422936  0.660318  0.547930  1
  Si  Si383  1  0.422943  0.660341  0.489676  1
  Si  Si384  1  0.077003  0.839550  0.489677  1
  Si  Si385  1  0.077003  0.839536  0.547931  1
  Si  Si386  1  0.309212  0.170050  0.415117  1
  Si  Si387  1  0.190749  0.329828  0.415116  1
  Si  Si388  1  0.422668  0.334776  0.413533  1
  Si  Si389  1  0.077304  0.165086  0.413530  1
  Si  Si390  1  0.278444  0.961559  0.442751  1
  Si  Si391  1  0.221518  0.538326  0.442747  1
  Si  Si392  1  0.377812  0.533259  0.442919  1
  H  H393  1  0.698153  0.919197  0.095496  1
  H  H394  1  0.801755  0.580832  0.095503  1
  H  H395  1  0.598407  0.571752  0.095059  1
  H  H396  1  0.901533  0.928273  0.095055  1
  H  H397  1  0.301760  0.919052  0.095510  1
  H  H398  1  0.198160  0.580720  0.095499  1
  H  H399  1  0.401531  0.571671  0.095058  1
  H  H400  1  0.098433  0.928176  0.095056  1
  H  H401  1  0.801758  0.419196  0.714384  1
  H  H402  1  0.698181  0.080832  0.714379  1
  H  H403  1  0.901503  0.071796  0.714829  1
  H  H404  1  0.598413  0.428236  0.714835  1
  H  H405  1  0.198180  0.419098  0.714385  1
  H  H406  1  0.301752  0.080697  0.714392  1
  H  H407  1  0.098383  0.071715  0.714829  1
  H  H408  1  0.401514  0.428155  0.714832  1
