# generated using pymatgen
data_Si8H2O17
_symmetry_space_group_name_H-M   'P 1'
_cell_length_a   19.95132824
_cell_length_b   12.61157101
_cell_length_c   38.96021641
_cell_angle_alpha   90.00000000
_cell_angle_beta   90.00000000
_cell_angle_gamma   90.00000000
_symmetry_Int_Tables_number   1
_chemical_formula_structural   Si8H2O17
_chemical_formula_sum   'Si64 H16 O136'
_cell_volume   9803.0758697
_cell_formula_units_Z   8
loop_
 _symmetry_equiv_pos_site_id
 _symmetry_equiv_pos_as_xyz
  1  'x, y, z'
loop_
 _atom_site_type_symbol
 _atom_site_label
 _atom_site_symmetry_multiplicity
 _atom_site_fract_x
 _atom_site_fract_y
 _atom_site_fract_z
 _atom_site_occupancy
  O  O1  1  0.801760  0.419176  0.591889  1
  O  O2  1  0.698203  0.080772  0.591882  1
  O  O3  1  0.876180  0.259784  0.570875  1
  O  O4  1  0.876176  0.259812  0.479914  1
  O  O5  1  0.623771  0.240210  0.479909  1
  O  O6  1  0.623773  0.240155  0.570871  1
  O  O7  1  0.808666  0.359485  0.525393  1
  O  O8  1  0.691279  0.140496  0.525387  1
  O  O9  1  0.749975  0.249983  0.570401  1
  O  O10  1  0.749974  0.250009  0.480385  1
  O  O11  1  0.901539  0.071751  0.591284  1
  O  O12  1  0.598411  0.428165  0.591289  1
  O  O13  1  0.000000  0.185595  0.569996  1
  O  O14  1  -0.000000  0.185605  0.480789  1
  O  O15  1  0.913784  0.130214  0.525392  1
  O  O16  1  0.586149  0.369754  0.525394  1
  O  O17  1  0.698153  0.919197  0.284426  1
  O  O18  1  0.801758  0.419196  0.458893  1
  O  O19  1  0.698181  0.080832  0.458886  1
  O  O20  1  0.801755  0.580832  0.284434  1
  O  O21  1  0.598407  0.571752  0.283835  1
  O  O22  1  0.901503  0.071796  0.459494  1
  O  O23  1  0.598413  0.428236  0.459501  1
  O  O24  1  0.901533  0.928273  0.283830  1
  O  O25  1  0.696254  0.074898  0.331814  1
  O  O26  1  0.803627  0.574874  0.411500  1
  O  O27  1  0.696306  0.925154  0.411494  1
  O  O28  1  0.803646  0.425131  0.331820  1
  O  O29  1  0.699252  0.120802  0.394653  1
  O  O30  1  0.800629  0.620775  0.348661  1
  O  O31  1  0.699303  0.879251  0.348654  1
  O  O32  1  0.800647  0.379223  0.394659  1
  O  O33  1  0.623512  0.234820  0.355617  1
  O  O34  1  0.876375  0.734805  0.387702  1
  O  O35  1  0.623526  0.765261  0.387700  1
  O  O36  1  0.876413  0.265241  0.355617  1
  O  O37  1  0.749963  0.250006  0.352391  1
  O  O38  1  0.749949  0.750004  0.390923  1
  O  O39  1  0.595888  0.421703  0.332470  1
  O  O40  1  0.903979  0.921715  0.410861  1
  O  O41  1  0.595939  0.578346  0.410872  1
  O  O42  1  0.904022  0.078355  0.332458  1
  O  O43  1  0.595361  0.385556  0.395673  1
  O  O44  1  0.904497  0.885573  0.347658  1
  O  O45  1  0.595397  0.614482  0.347667  1
  O  O46  1  0.904580  0.114500  0.395662  1
  O  O47  1  0.000000  0.812219  0.384291  1
  O  O48  1  0.799706  0.964904  0.322169  1
  O  O49  1  0.700209  0.464767  0.421133  1
  O  O50  1  0.799716  0.035314  0.421113  1
  O  O51  1  0.700204  0.535169  0.322191  1
  O  O52  1  -0.000000  0.187810  0.359015  1
  O  O53  1  0.698185  0.919151  0.151437  1
  O  O54  1  0.801768  0.580806  0.151446  1
  O  O55  1  0.623753  0.759765  0.263417  1
  O  O56  1  0.623762  0.759747  0.172451  1
  O  O57  1  0.876174  0.740210  0.172459  1
  O  O58  1  0.876169  0.740251  0.263426  1
  O  O59  1  0.691249  0.859460  0.217934  1
  O  O60  1  0.808685  0.640526  0.217943  1
  O  O61  1  0.749968  0.749982  0.172932  1
  O  O62  1  0.598421  0.571717  0.152042  1
  O  O63  1  0.901542  0.928216  0.152039  1
  O  O64  1  0.000000  0.814383  0.262542  1
  O  O65  1  0.586159  0.630171  0.217936  1
  O  O66  1  0.913791  0.869800  0.217937  1
  O  O67  1  0.749961  0.750014  0.262943  1
  O  O68  1  0.000000  0.814359  0.173337  1
  O  O69  1  0.198201  0.419115  0.591889  1
  O  O70  1  0.301780  0.080746  0.591891  1
  O  O71  1  0.123776  0.259733  0.570871  1
  O  O72  1  0.123771  0.259720  0.479910  1
  O  O73  1  0.376181  0.240120  0.479905  1
  O  O74  1  0.376182  0.240143  0.570870  1
  O  O75  1  0.191282  0.359411  0.525391  1
  O  O76  1  0.308684  0.140434  0.525392  1
  O  O77  1  0.249978  0.249919  0.570396  1
  O  O78  1  0.249978  0.249912  0.480377  1
  O  O79  1  0.098423  0.071717  0.591283  1
  O  O80  1  0.401528  0.428163  0.591283  1
  O  O81  1  0.499974  0.314343  0.480783  1
  O  O82  1  0.499972  0.314315  0.569992  1
  O  O83  1  0.086145  0.130158  0.525390  1
  O  O84  1  0.413787  0.369713  0.525386  1
  O  O85  1  0.301760  0.919052  0.284445  1
  O  O86  1  0.198180  0.419098  0.458893  1
  O  O87  1  0.301752  0.080697  0.458903  1
  O  O88  1  0.198160  0.580720  0.284429  1
  O  O89  1  0.401531  0.571671  0.283834  1
  O  O90  1  0.098383  0.071715  0.459493  1
  O  O91  1  0.401514  0.428155  0.459497  1
  O  O92  1  0.098433  0.928176  0.283831  1
  O  O93  1  0.303681  0.074707  0.331839  1
  O  O94  1  0.196198  0.574745  0.411495  1
  O  O95  1  0.303590  0.924972  0.411519  1
  O  O96  1  0.196360  0.425009  0.331817  1
  O  O97  1  0.300654  0.120623  0.394675  1
  O  O98  1  0.199208  0.620664  0.348660  1
  O  O99  1  0.300616  0.879063  0.348678  1
  O  O100  1  0.199359  0.379106  0.394661  1
  O  O101  1  0.376419  0.234655  0.355635  1
  O  O102  1  0.123466  0.734708  0.387704  1
  O  O103  1  0.376366  0.765094  0.387722  1
  O  O104  1  0.123570  0.265156  0.355619  1
  O  O105  1  0.249997  0.249843  0.352397  1
  O  O106  1  0.249912  0.749845  0.390935  1
  O  O107  1  0.403948  0.421592  0.332466  1
  O  O108  1  0.095895  0.921628  0.410864  1
  O  O109  1  0.404064  0.578234  0.410868  1
  O  O110  1  0.095932  0.078266  0.332459  1
  O  O111  1  0.404481  0.385457  0.395669  1
  O  O112  1  0.095372  0.885484  0.347661  1
  O  O113  1  0.404587  0.614386  0.347665  1
  O  O114  1  0.095384  0.114414  0.395662  1
  O  O115  1  0.499972  0.687803  0.384306  1
  O  O116  1  0.200218  0.964717  0.322202  1
  O  O117  1  0.299713  0.464899  0.421149  1
  O  O118  1  0.200193  0.035124  0.421145  1
  O  O119  1  0.299715  0.535284  0.322201  1
  O  O120  1  0.499943  0.312207  0.359038  1
  O  O121  1  0.301766  0.919124  0.151449  1
  O  O122  1  0.198175  0.580757  0.151439  1
  O  O123  1  0.376163  0.759672  0.263419  1
  O  O124  1  0.376171  0.759701  0.172454  1
  O  O125  1  0.123763  0.740176  0.172450  1
  O  O126  1  0.123750  0.740144  0.263416  1
  O  O127  1  0.308685  0.859400  0.217942  1
  O  O128  1  0.191248  0.640453  0.217933  1
  O  O129  1  0.249955  0.749901  0.262943  1
  O  O130  1  0.249968  0.749933  0.172930  1
  O  O131  1  0.401543  0.571683  0.152039  1
  O  O132  1  0.098415  0.928198  0.152040  1
  O  O133  1  0.499962  0.685554  0.262535  1
  O  O134  1  0.499971  0.685556  0.173333  1
  O  O135  1  0.413787  0.630114  0.217934  1
  O  O136  1  0.086162  0.869750  0.217936  1
  Si  Si137  1  0.810652  0.327367  0.564663  1
  Si  Si138  1  0.810649  0.327395  0.486122  1
  Si  Si139  1  0.689296  0.172625  0.486119  1
  Si  Si140  1  0.689306  0.172589  0.564658  1
  Si  Si141  1  0.922946  0.160416  0.564718  1
  Si  Si142  1  0.922931  0.160429  0.486067  1
  Si  Si143  1  0.576999  0.339569  0.486066  1
  Si  Si144  1  0.577002  0.339518  0.564717  1
  Si  Si145  1  0.622133  0.466660  0.422940  1
  Si  Si146  1  0.877784  0.966703  0.320385  1
  Si  Si147  1  0.690718  0.170137  0.357923  1
  Si  Si148  1  0.809175  0.670107  0.385390  1
  Si  Si149  1  0.690739  0.829927  0.385383  1
  Si  Si150  1  0.809195  0.329895  0.357929  1
  Si  Si151  1  0.577272  0.334879  0.360074  1
  Si  Si152  1  0.922595  0.834893  0.383255  1
  Si  Si153  1  0.577308  0.665162  0.383266  1
  Si  Si154  1  0.922654  0.165175  0.360060  1
  Si  Si155  1  0.721490  0.961645  0.320615  1
  Si  Si156  1  0.778426  0.461601  0.422697  1
  Si  Si157  1  0.721499  0.038434  0.422687  1
  Si  Si158  1  0.778422  0.538391  0.320624  1
  Si  Si159  1  0.622128  0.533354  0.320398  1
  Si  Si160  1  0.877791  0.033405  0.422927  1
  Si  Si161  1  0.689271  0.827368  0.257204  1
  Si  Si162  1  0.689280  0.827348  0.178665  1
  Si  Si163  1  0.810653  0.672620  0.178673  1
  Si  Si164  1  0.810651  0.672652  0.257212  1
  Si  Si165  1  0.576996  0.660387  0.257260  1
  Si  Si166  1  0.577003  0.660372  0.178609  1
  Si  Si167  1  0.922944  0.839572  0.178614  1
  Si  Si168  1  0.922942  0.839606  0.257264  1
  Si  Si169  1  0.189305  0.327310  0.564661  1
  Si  Si170  1  0.189301  0.327292  0.486121  1
  Si  Si171  1  0.310656  0.172533  0.486121  1
  Si  Si172  1  0.310661  0.172546  0.564661  1
  Si  Si173  1  0.077004  0.160372  0.564716  1
  Si  Si174  1  0.076989  0.160373  0.486065  1
  Si  Si175  1  0.422939  0.339499  0.486062  1
  Si  Si176  1  0.422943  0.339514  0.564712  1
  Si  Si177  1  0.122143  0.966588  0.320395  1
  Si  Si178  1  0.309221  0.169948  0.357946  1
  Si  Si179  1  0.190662  0.669994  0.385390  1
  Si  Si180  1  0.309145  0.829738  0.385410  1
  Si  Si181  1  0.190796  0.329789  0.357930  1
  Si  Si182  1  0.422603  0.334792  0.360072  1
  Si  Si183  1  0.077262  0.834815  0.383258  1
  Si  Si184  1  0.422646  0.665080  0.383266  1
  Si  Si185  1  0.077318  0.165102  0.360061  1
  Si  Si186  1  0.278434  0.961462  0.320641  1
  Si  Si187  1  0.221496  0.461532  0.422700  1
  Si  Si188  1  0.278410  0.038260  0.422712  1
  Si  Si189  1  0.221497  0.538320  0.320626  1
  Si  Si190  1  0.377790  0.533298  0.320398  1
  Si  Si191  1  0.122116  0.033294  0.422934  1
  Si  Si192  1  0.377789  0.466603  0.422940  1
  Si  Si193  1  0.310642  0.827265  0.257210  1
  Si  Si194  1  0.310653  0.827297  0.178671  1
  Si  Si195  1  0.189279  0.672570  0.178664  1
  Si  Si196  1  0.189268  0.672538  0.257204  1
  Si  Si197  1  0.422936  0.660318  0.257260  1
  Si  Si198  1  0.422943  0.660341  0.178609  1
  Si  Si199  1  0.077003  0.839550  0.178611  1
  Si  Si200  1  0.077003  0.839536  0.257261  1
  H  H201  1  0.801760  0.419176  0.614989  1
  H  H202  1  0.698203  0.080772  0.614983  1
  H  H203  1  0.901539  0.071751  0.614384  1
  H  H204  1  0.598411  0.428165  0.614389  1
  H  H205  1  0.698185  0.919151  0.128336  1
  H  H206  1  0.801768  0.580806  0.128345  1
  H  H207  1  0.598421  0.571717  0.128941  1
  H  H208  1  0.901542  0.928216  0.128938  1
  H  H209  1  0.198201  0.419115  0.614989  1
  H  H210  1  0.301780  0.080746  0.614992  1
  H  H211  1  0.098423  0.071717  0.614384  1
  H  H212  1  0.401528  0.428163  0.614383  1
  H  H213  1  0.301766  0.919124  0.128349  1
  H  H214  1  0.198175  0.580757  0.128339  1
  H  H215  1  0.401543  0.571683  0.128939  1
  H  H216  1  0.098415  0.928198  0.128939  1
