# generated using pymatgen
data_Si24H2O49
_symmetry_space_group_name_H-M   'P 1'
_cell_length_a   6.71414898
_cell_length_b   7.77198770
_cell_length_c   47.16882335
_cell_angle_alpha   90.00000000
_cell_angle_beta   90.00000000
_cell_angle_gamma   95.82700000
_symmetry_Int_Tables_number   1
_chemical_formula_structural   Si24H2O49
_chemical_formula_sum   'Si24 H2 O49'
_cell_volume   2448.65891065
_cell_formula_units_Z   1
loop_
 _symmetry_equiv_pos_site_id
 _symmetry_equiv_pos_as_xyz
  1  'x, y, z'
loop_
 _atom_site_type_symbol
 _atom_site_label
 _atom_site_symmetry_multiplicity
 _atom_site_fract_x
 _atom_site_fract_y
 _atom_site_fract_z
 _atom_site_occupancy
  O  O1  1  0.619006  0.978842  0.358759  1
  O  O2  1  0.379315  0.021431  0.179315  1
  O  O3  1  0.619075  0.978728  0.249965  1
  O  O4  1  0.898322  0.231001  0.366862  1
  O  O5  1  0.101738  0.767604  0.187179  1
  O  O6  1  0.898381  0.230890  0.241862  1
  O  O7  1  0.425175  0.785393  0.214672  1
  O  O8  1  0.573478  0.215051  0.214602  1
  O  O9  1  0.565283  0.308873  0.343838  1
  O  O10  1  0.437066  0.691580  0.164484  1
  O  O11  1  0.565335  0.308758  0.264888  1
  O  O12  1  0.786181  0.749315  0.387833  1
  O  O13  1  0.212652  0.253864  0.208093  1
  O  O14  1  0.786242  0.749201  0.220886  1
  O  O15  1  0.535795  0.635010  0.349395  1
  O  O16  1  0.463806  0.364558  0.169792  1
  O  O17  1  0.535888  0.634889  0.259326  1
  O  O18  1  0.230615  0.415389  0.353647  1
  O  O19  1  0.770211  0.580758  0.174687  1
  O  O20  1  0.230682  0.415284  0.255071  1
  O  O21  1  0.398471  0.473905  0.304359  1
  O  O22  1  0.604927  0.526938  0.125083  1
  O  O23  1  0.000000  0.502774  0.393252  1
  O  O24  1  0.000000  0.502646  0.215467  1
  O  O25  1  0.379315  0.021431  0.537868  1
  O  O26  1  0.379241  0.021546  0.429409  1
  O  O27  1  0.619075  0.978728  0.608518  1
  O  O28  1  0.101738  0.767604  0.545733  1
  O  O29  1  0.101677  0.767713  0.421544  1
  O  O30  1  0.898381  0.230890  0.600415  1
  O  O31  1  0.573419  0.215170  0.394123  1
  O  O32  1  0.425175  0.785393  0.573225  1
  O  O33  1  0.425123  0.785511  0.394053  1
  O  O34  1  0.573478  0.215051  0.573156  1
  O  O35  1  0.437066  0.691580  0.523037  1
  O  O36  1  0.437020  0.691703  0.444243  1
  O  O37  1  0.565335  0.308758  0.623442  1
  O  O38  1  0.212652  0.253864  0.566647  1
  O  O39  1  0.212588  0.253984  0.400627  1
  O  O40  1  0.786242  0.749201  0.579440  1
  O  O41  1  0.463806  0.364558  0.528346  1
  O  O42  1  0.463715  0.364682  0.438928  1
  O  O43  1  0.535888  0.634889  0.617879  1
  O  O44  1  0.770211  0.580758  0.533241  1
  O  O45  1  0.770143  0.580862  0.434031  1
  O  O46  1  0.230682  0.415284  0.613625  1
  O  O47  1  0.398471  0.473905  0.662913  1
  O  O48  1  0.604927  0.526938  0.483636  1
  O  O49  1  0.000000  0.502646  0.574021  1
  Si  Si50  1  0.664926  0.180690  0.364136  1
  Si  Si51  1  0.334993  0.819348  0.184587  1
  Si  Si52  1  0.664985  0.180579  0.244589  1
  Si  Si53  1  0.592880  0.787062  0.370827  1
  Si  Si54  1  0.405872  0.213279  0.191339  1
  Si  Si55  1  0.592957  0.786951  0.237895  1
  Si  Si56  1  0.432332  0.460061  0.337079  1
  Si  Si57  1  0.569179  0.539655  0.157790  1
  Si  Si58  1  0.432386  0.459960  0.271642  1
  Si  Si59  1  0.086606  0.347631  0.378366  1
  Si  Si60  1  0.913775  0.652675  0.199188  1
  Si  Si61  1  0.086666  0.347509  0.230354  1
  Si  Si62  1  0.334993  0.819348  0.543141  1
  Si  Si63  1  0.334935  0.819462  0.424138  1
  Si  Si64  1  0.664985  0.180579  0.603143  1
  Si  Si65  1  0.405872  0.213279  0.549893  1
  Si  Si66  1  0.405796  0.213393  0.417384  1
  Si  Si67  1  0.592957  0.786951  0.596449  1
  Si  Si68  1  0.569179  0.539655  0.516344  1
  Si  Si69  1  0.569127  0.539760  0.450931  1
  Si  Si70  1  0.432386  0.459960  0.630196  1
  Si  Si71  1  0.913775  0.652675  0.557741  1
  Si  Si72  1  0.913718  0.652797  0.409532  1
  Si  Si73  1  0.086666  0.347509  0.588907  1
  H  H74  1  0.604927  0.526938  0.106002  1
  H  H75  1  0.398471  0.473905  0.681993  1
