# generated using pymatgen
data_Si5H2O11
_symmetry_space_group_name_H-M   'P 1'
_cell_length_a   24.41204530
_cell_length_b   24.41160814
_cell_length_c   59.29343780
_cell_angle_alpha   45.00446172
_cell_angle_beta   90.00000000
_cell_angle_gamma   59.99544042
_symmetry_Int_Tables_number   1
_chemical_formula_structural   Si5H2O11
_chemical_formula_sum   'Si120 H48 O264'
_cell_volume   17667.9013889
_cell_formula_units_Z   24
loop_
 _symmetry_equiv_pos_site_id
 _symmetry_equiv_pos_as_xyz
  1  'x, y, z'
loop_
 _atom_site_type_symbol
 _atom_site_label
 _atom_site_symmetry_multiplicity
 _atom_site_fract_x
 _atom_site_fract_y
 _atom_site_fract_z
 _atom_site_occupancy
  O  O1  1  0.347967  0.471240  0.307860  1
  O  O2  1  0.061917  0.589529  0.308811  1
  O  O3  1  0.180993  0.258076  0.396598  1
  O  O4  1  0.063540  0.087929  0.203537  1
  O  O5  1  0.430712  0.975730  0.233732  1
  O  O6  1  0.431220  0.472092  0.344449  1
  O  O7  1  0.186689  0.382880  0.344403  1
  O  O8  1  0.402094  0.286412  0.363893  1
  O  O9  1  0.317325  0.245064  0.399972  1
  O  O10  1  0.438322  0.410054  0.400251  1
  O  O11  1  0.438354  0.911283  0.214927  1
  O  O12  1  0.068963  0.029588  0.182358  1
  O  O13  1  0.069090  0.527875  0.364720  1
  O  O14  1  0.096518  0.216193  0.384491  1
  O  O15  1  0.311074  0.120791  0.420370  1
  O  O16  1  0.272305  0.424664  0.340189  1
  O  O17  1  0.302642  0.573470  0.339026  1
  O  O18  1  0.124782  0.602196  0.340723  1
  O  O19  1  0.304258  0.071569  0.181450  1
  O  O20  1  0.124604  0.105540  0.163075  1
  O  O21  1  0.022553  0.102032  0.413310  1
  O  O22  1  0.123257  0.323213  0.339934  1
  O  O23  1  0.446097  0.034235  0.162706  1
  O  O24  1  0.196494  0.427165  0.369601  1
  O  O25  1  0.375972  0.396023  0.369031  1
  O  O26  1  0.197701  0.926995  0.236025  1
  O  O27  1  0.376708  0.898180  0.255097  1
  O  O28  1  0.477719  0.398099  0.327061  1
  O  O29  1  0.053103  0.467928  0.328241  1
  O  O30  1  0.374208  0.178781  0.381085  1
  O  O31  1  0.182014  0.755930  0.308325  1
  O  O32  1  0.345657  0.971654  0.272638  1
  O  O33  1  0.347409  0.833101  0.348441  1
  O  O34  1  0.182103  0.378618  0.215947  1
  O  O35  1  0.311421  0.255675  0.235610  1
  O  O36  1  0.096572  0.592783  0.419941  1
  O  O37  1  0.401939  0.786196  0.324189  1
  O  O38  1  0.187428  0.881161  0.287447  1
  O  O39  1  0.151428  0.530936  0.400356  1
  O  O40  1  0.317982  0.744014  0.311741  1
  O  O41  1  0.317621  0.119860  0.291287  1
  O  O42  1  0.153109  0.665293  0.396804  1
  O  O43  1  0.402405  0.908346  0.328589  1
  O  O44  1  0.188512  0.242863  0.239306  1
  O  O45  1  0.311938  0.620022  0.363685  1
  O  O46  1  0.097677  0.714876  0.344686  1
  O  O47  1  0.272777  0.923143  0.267586  1
  O  O48  1  0.272827  0.030374  0.309814  1
  O  O49  1  0.372287  0.072852  0.266817  1
  O  O50  1  0.055998  0.419700  0.196393  1
  O  O51  1  0.020430  0.605510  0.381334  1
  O  O52  1  0.445800  0.531974  0.381811  1
  O  O53  1  0.476831  0.646328  0.400473  1
  O  O54  1  0.127176  0.819467  0.328125  1
  O  O55  1  0.227441  0.576847  0.368484  1
  O  O56  1  0.226554  0.468596  0.181584  1
  O  O57  1  0.445745  0.075996  0.295713  1
  O  O58  1  0.475052  0.899348  0.294881  1
  O  O59  1  0.124553  0.430257  0.163236  1
  O  O60  1  0.372163  0.681453  0.368199  1
  O  O61  1  0.052772  0.967147  0.254969  1
  O  O62  1  0.023332  0.852961  0.340419  1
  O  O63  1  0.182043  0.877927  0.417261  1
  O  O64  1  0.061730  0.282626  0.252078  1
  O  O65  1  0.347711  0.334130  0.312093  1
  O  O66  1  0.093529  0.096075  0.379308  1
  O  O67  1  0.311876  0.754992  0.178904  1
  O  O68  1  0.067253  0.335272  0.274781  1
  O  O69  1  0.065992  0.836894  0.384552  1
  O  O70  1  0.150589  0.167614  0.360838  1
  O  O71  1  0.438496  0.713239  0.166898  1
  O  O72  1  0.320080  0.616602  0.203326  1
  O  O73  1  0.437797  0.213620  0.272156  1
  O  O74  1  0.190970  0.741168  0.183275  1
  O  O75  1  0.402294  0.409804  0.287797  1
  O  O76  1  0.430496  0.166494  0.323915  1
  O  O77  1  0.304566  0.820684  0.413290  1
  O  O78  1  0.124682  0.148449  0.327230  1
  O  O79  1  0.271394  0.531784  0.236548  1
  O  O80  1  0.303240  0.319213  0.255163  1
  O  O81  1  0.056979  0.918011  0.414190  1
  O  O82  1  0.374657  0.571872  0.254550  1
  O  O83  1  0.478362  0.147907  0.368632  1
  O  O84  1  0.224977  0.968182  0.400837  1
  O  O85  1  0.195470  0.181692  0.295285  1
  O  O86  1  0.377827  0.850046  0.382612  1
  O  O87  1  0.194340  0.680138  0.163413  1
  O  O88  1  0.373538  0.352909  0.267291  1
  O  O89  1  0.448010  0.572615  0.224064  1
  O  O90  1  0.019752  0.354621  0.308801  1
  O  O91  1  0.848524  0.835274  0.201574  1
  O  O92  1  0.560243  0.287700  0.396796  1
  O  O93  1  0.684886  0.373926  0.363264  1
  O  O94  1  0.560634  0.787207  0.290239  1
  O  O95  1  0.813821  0.257299  0.380413  1
  O  O96  1  0.592954  0.597169  0.273958  1
  O  O97  1  0.568423  0.337985  0.419476  1
  O  O98  1  0.568040  0.835186  0.238507  1
  O  O99  1  0.938147  0.713080  0.312650  1
  O  O100  1  0.650568  0.668080  0.250365  1
  O  O101  1  0.938635  0.213889  0.417965  1
  O  O102  1  0.906969  0.904595  0.184420  1
  O  O103  1  0.687853  0.242021  0.384507  1
  O  O104  1  0.931745  0.664528  0.289015  1
  O  O105  1  0.932392  0.165752  0.179015  1
  O  O106  1  0.774622  0.031917  0.163009  1
  O  O107  1  0.803906  0.819731  0.267697  1
  O  O108  1  0.622984  0.151964  0.181637  1
  O  O109  1  0.804554  0.319257  0.401189  1
  O  O110  1  0.623359  0.648332  0.295738  1
  O  O111  1  0.875904  0.069109  0.414445  1
  O  O112  1  0.554412  0.423993  0.341027  1
  O  O113  1  0.977432  0.647187  0.254929  1
  O  O114  1  0.875891  0.850689  0.236565  1
  O  O115  1  0.725548  0.468867  0.327286  1
  O  O116  1  0.695837  0.681836  0.307366  1
  O  O117  1  0.876843  0.352209  0.413092  1
  O  O118  1  0.625317  0.431276  0.309145  1
  O  O119  1  0.521716  0.855613  0.193505  1
  O  O120  1  0.843854  0.474595  0.161227  1
  O  O121  1  0.682439  0.257237  0.251483  1
  O  O122  1  0.683684  0.876615  0.273157  1
  O  O123  1  0.848302  0.331933  0.166746  1
  O  O124  1  0.597905  0.091214  0.236163  1
  O  O125  1  0.813320  0.755503  0.324480  1
  O  O126  1  0.686830  0.382151  0.199260  1
  O  O127  1  0.902785  0.286497  0.217716  1
  O  O128  1  0.816269  0.243310  0.255577  1
  O  O129  1  0.652420  0.027831  0.292341  1
  O  O130  1  0.656464  0.161933  0.217384  1
  O  O131  1  0.817566  0.622218  0.347173  1
  O  O132  1  0.688039  0.742158  0.328778  1
  O  O133  1  0.597024  0.212657  0.239816  1
  O  O134  1  0.811214  0.118257  0.274954  1
  O  O135  1  0.772869  0.421970  0.195193  1
  O  O136  1  0.772785  0.531665  0.381135  1
  O  O137  1  0.555341  0.921119  0.267958  1
  O  O138  1  0.521742  0.103678  0.267236  1
  O  O139  1  0.874767  0.569748  0.400259  1
  O  O140  1  0.624921  0.319603  0.195663  1
  O  O141  1  0.944686  0.032814  0.309457  1
  O  O142  1  0.979708  0.145596  0.224083  1
  O  O143  1  0.726401  0.078282  0.295817  1
  O  O144  1  0.727391  0.967996  0.254849  1
  O  O145  1  0.625966  0.927783  0.296086  1
  O  O146  1  0.947386  0.572963  0.369585  1
  O  O147  1  0.975787  0.397023  0.182684  1
  O  O148  1  0.553374  0.467067  0.182815  1
  O  O149  1  0.524754  0.347840  0.164091  1
  O  O150  1  0.875350  0.178391  0.236697  1
  O  O151  1  0.682428  0.756497  0.162366  1
  O  O152  1  0.562759  0.588319  0.163437  1
  O  O153  1  0.848521  0.967370  0.419713  1
  O  O154  1  0.559641  0.093534  0.347211  1
  O  O155  1  0.932818  0.968462  0.381478  1
  O  O156  1  0.932933  0.469763  0.200495  1
  O  O157  1  0.906235  0.781288  0.179662  1
  O  O158  1  0.651602  0.531947  0.254978  1
  O  O159  1  0.937058  0.410523  0.255315  1
  O  O160  1  0.819134  0.742285  0.166502  1
  O  O161  1  0.937916  0.908383  0.361317  1
  O  O162  1  0.568228  0.029540  0.328010  1
  O  O163  1  0.568554  0.528908  0.218894  1
  O  O164  1  0.812578  0.618786  0.218380  1
  O  O165  1  0.596680  0.715769  0.198423  1
  O  O166  1  0.803614  0.573095  0.193667  1
  O  O167  1  0.623638  0.604792  0.194018  1
  O  O168  1  0.772271  0.922243  0.414724  1
  O  O169  1  0.805904  0.070946  0.327150  1
  O  O170  1  0.622111  0.106725  0.308165  1
  O  O171  1  0.522327  0.603420  0.236154  1
  O  O172  1  0.946929  0.532162  0.235673  1
  O  O173  1  0.627173  0.819189  0.182208  1
  O  O174  1  0.726826  0.577586  0.222361  1
  O  O175  1  0.697466  0.426725  0.224516  1
  O  O176  1  0.875191  0.398526  0.222276  1
  O  O177  1  0.695240  0.931390  0.381442  1
  O  O178  1  0.874000  0.898245  0.400184  1
  O  O179  1  0.874915  0.680260  0.222264  1
  O  O180  1  0.554546  0.968961  0.399984  1
  O  O181  1  0.063540  0.087929  0.494636  1
  O  O182  1  0.430712  0.975730  0.524831  1
  O  O183  1  0.151643  0.031715  0.435974  1
  O  O184  1  0.438354  0.911283  0.506026  1
  O  O185  1  0.068963  0.029588  0.473457  1
  O  O186  1  0.304258  0.071569  0.472549  1
  O  O187  1  0.124604  0.105540  0.454174  1
  O  O188  1  0.446097  0.034235  0.453805  1
  O  O189  1  0.228107  0.076248  0.441217  1
  O  O190  1  0.197701  0.926995  0.527124  1
  O  O191  1  0.376708  0.898180  0.546197  1
  O  O192  1  0.182103  0.378618  0.507046  1
  O  O193  1  0.311421  0.255675  0.526709  1
  O  O194  1  0.188512  0.242863  0.530405  1
  O  O195  1  0.055998  0.419700  0.487492  1
  O  O196  1  0.226554  0.468596  0.472683  1
  O  O197  1  0.124553  0.430257  0.454335  1
  O  O198  1  0.052772  0.967147  0.546068  1
  O  O199  1  0.061730  0.282626  0.543177  1
  O  O200  1  0.061056  0.781968  0.438052  1
  O  O201  1  0.311876  0.754992  0.470003  1
  O  O202  1  0.438496  0.713239  0.457997  1
  O  O203  1  0.320080  0.616602  0.494425  1
  O  O204  1  0.190970  0.741168  0.474374  1
  O  O205  1  0.432443  0.664373  0.434429  1
  O  O206  1  0.271394  0.531784  0.527647  1
  O  O207  1  0.303240  0.319213  0.546262  1
  O  O208  1  0.123326  0.649805  0.440188  1
  O  O209  1  0.374657  0.571872  0.545649  1
  O  O210  1  0.194340  0.680138  0.454513  1
  O  O211  1  0.127039  0.929698  0.440383  1
  O  O212  1  0.448010  0.572615  0.515163  1
  O  O213  1  0.848524  0.835274  0.492673  1
  O  O214  1  0.568040  0.835186  0.529606  1
  O  O215  1  0.816131  0.125284  0.435551  1
  O  O216  1  0.650568  0.668080  0.541464  1
  O  O217  1  0.906969  0.904595  0.475519  1
  O  O218  1  0.932392  0.165752  0.470114  1
  O  O219  1  0.774622  0.031917  0.454109  1
  O  O220  1  0.622984  0.151964  0.472736  1
  O  O221  1  0.977432  0.647187  0.546028  1
  O  O222  1  0.693792  0.182370  0.440246  1
  O  O223  1  0.875891  0.850689  0.527664  1
  O  O224  1  0.946648  0.075362  0.442691  1
  O  O225  1  0.521716  0.855613  0.484604  1
  O  O226  1  0.843854  0.474595  0.452326  1
  O  O227  1  0.682439  0.257237  0.542582  1
  O  O228  1  0.848302  0.331933  0.457845  1
  O  O229  1  0.597905  0.091214  0.527263  1
  O  O230  1  0.686830  0.382151  0.490359  1
  O  O231  1  0.902785  0.286497  0.508815  1
  O  O232  1  0.816269  0.243310  0.546677  1
  O  O233  1  0.656464  0.161933  0.508483  1
  O  O234  1  0.902293  0.407615  0.434481  1
  O  O235  1  0.597024  0.212657  0.530916  1
  O  O236  1  0.772869  0.421970  0.486292  1
  O  O237  1  0.624921  0.319603  0.486763  1
  O  O238  1  0.979708  0.145596  0.515182  1
  O  O239  1  0.727391  0.967996  0.545948  1
  O  O240  1  0.975787  0.397023  0.473783  1
  O  O241  1  0.553374  0.467067  0.473914  1
  O  O242  1  0.524754  0.347840  0.455190  1
  O  O243  1  0.875350  0.178391  0.527796  1
  O  O244  1  0.682428  0.756497  0.453465  1
  O  O245  1  0.562759  0.588319  0.454536  1
  O  O246  1  0.932933  0.469763  0.491595  1
  O  O247  1  0.906235  0.781288  0.470761  1
  O  O248  1  0.689858  0.877988  0.434513  1
  O  O249  1  0.651602  0.531947  0.546078  1
  O  O250  1  0.937058  0.410523  0.546414  1
  O  O251  1  0.819134  0.742285  0.457601  1
  O  O252  1  0.568554  0.528908  0.509993  1
  O  O253  1  0.812578  0.618786  0.509479  1
  O  O254  1  0.596680  0.715769  0.489522  1
  O  O255  1  0.803614  0.573095  0.484766  1
  O  O256  1  0.623638  0.604792  0.485118  1
  O  O257  1  0.522327  0.603420  0.527253  1
  O  O258  1  0.946929  0.532162  0.526772  1
  O  O259  1  0.627173  0.819189  0.473307  1
  O  O260  1  0.726826  0.577586  0.513460  1
  O  O261  1  0.697466  0.426725  0.515615  1
  O  O262  1  0.875191  0.398526  0.513375  1
  O  O263  1  0.978199  0.895312  0.441870  1
  O  O264  1  0.874915  0.680260  0.513363  1
  Si  Si265  1  0.347814  0.398304  0.344916  1
  Si  Si266  1  0.115891  0.535643  0.345815  1
  Si  Si267  1  0.116989  0.036914  0.196491  1
  Si  Si268  1  0.097139  0.039838  0.416900  1
  Si  Si269  1  0.133612  0.362031  0.350591  1
  Si  Si270  1  0.493027  0.911947  0.200812  1
  Si  Si271  1  0.242982  0.372779  0.363345  1
  Si  Si272  1  0.383132  0.464381  0.362987  1
  Si  Si273  1  0.386152  0.963627  0.221499  1
  Si  Si274  1  0.402503  0.463299  0.293616  1
  Si  Si275  1  0.005855  0.590352  0.295129  1
  Si  Si276  1  0.365513  0.140814  0.414215  1
  Si  Si277  1  0.256700  0.628251  0.345154  1
  Si  Si278  1  0.347524  0.897159  0.278600  1
  Si  Si279  1  0.348337  0.905495  0.343129  1
  Si  Si280  1  0.256003  0.358133  0.221947  1
  Si  Si281  1  0.364303  0.128293  0.272523  1
  Si  Si282  1  0.006777  0.393896  0.207069  1
  Si  Si283  1  0.095979  0.539661  0.413943  1
  Si  Si284  1  0.495504  0.407426  0.414518  1
  Si  Si285  1  0.401351  0.732362  0.361086  1
  Si  Si286  1  0.133856  0.859884  0.294286  1
  Si  Si287  1  0.152154  0.603788  0.363760  1
  Si  Si288  1  0.243957  0.871246  0.274305  1
  Si  Si289  1  0.243119  0.141588  0.285170  1
  Si  Si290  1  0.495085  0.102109  0.291089  1
  Si  Si291  1  0.400804  0.963840  0.291023  1
  Si  Si292  1  0.135967  0.369237  0.202654  1
  Si  Si293  1  0.364362  0.642291  0.357643  1
  Si  Si294  1  0.006741  0.089594  0.216982  1
  Si  Si295  1  0.098626  0.767541  0.350772  1
  Si  Si296  1  0.254514  0.858493  0.423998  1
  Si  Si297  1  0.114611  0.233572  0.287513  1
  Si  Si298  1  0.346801  0.409123  0.274635  1
  Si  Si299  1  0.007218  0.892617  0.418817  1
  Si  Si300  1  0.367501  0.626050  0.216712  1
  Si  Si301  1  0.403169  0.230513  0.358556  1
  Si  Si302  1  0.150471  0.093189  0.367227  1
  Si  Si303  1  0.386052  0.766732  0.420689  1
  Si  Si304  1  0.245484  0.638315  0.197177  1
  Si  Si305  1  0.383642  0.267319  0.277869  1
  Si  Si306  1  0.493808  0.602728  0.212783  1
  Si  Si307  1  0.095116  0.270300  0.346915  1
  Si  Si308  1  0.849831  0.907280  0.196394  1
  Si  Si309  1  0.758772  0.354994  0.368654  1
  Si  Si310  1  0.616223  0.731355  0.285077  1
  Si  Si311  1  0.865376  0.131982  0.417796  1
  Si  Si312  1  0.506299  0.397494  0.350908  1
  Si  Si313  1  0.903244  0.733235  0.215111  1
  Si  Si314  1  0.884650  0.766696  0.275487  1
  Si  Si315  1  0.649383  0.595363  0.287515  1
  Si  Si316  1  0.884632  0.268786  0.423594  1
  Si  Si317  1  0.635558  0.367742  0.349055  1
  Si  Si318  1  0.596941  0.769423  0.204191  1
  Si  Si319  1  0.847317  0.397942  0.198728  1
  Si  Si320  1  0.756449  0.130107  0.288098  1
  Si  Si321  1  0.756966  0.857712  0.278601  1
  Si  Si322  1  0.848057  0.406361  0.420802  1
  Si  Si323  1  0.503731  0.898940  0.271324  1
  Si  Si324  1  0.597468  0.036882  0.273194  1
  Si  Si325  1  0.866340  0.628535  0.361364  1
  Si  Si326  1  0.634109  0.360670  0.205485  1
  Si  Si327  1  0.992634  0.910308  0.347357  1
  Si  Si328  1  0.903709  0.231007  0.212603  1
  Si  Si329  1  0.743207  0.371343  0.218525  1
  Si  Si330  1  0.651476  0.102995  0.285845  1
  Si  Si331  1  0.652842  0.092585  0.222296  1
  Si  Si332  1  0.741901  0.644605  0.340345  1
  Si  Si333  1  0.637060  0.866944  0.291905  1
  Si  Si334  1  0.994669  0.601468  0.359130  1
  Si  Si335  1  0.599034  0.263648  0.203372  1
  Si  Si336  1  0.863912  0.138517  0.270159  1
  Si  Si337  1  0.756340  0.629142  0.199244  1
  Si  Si338  1  0.616729  0.535886  0.200440  1
  Si  Si339  1  0.847972  0.893267  0.425527  1
  Si  Si340  1  0.613641  0.039918  0.341385  1
  Si  Si341  1  0.596771  0.541492  0.268897  1
  Si  Si342  1  0.993686  0.409415  0.269373  1
  Si  Si343  1  0.651404  0.603729  0.217704  1
  Si  Si344  1  0.884294  0.463639  0.218174  1
  Si  Si345  1  0.745736  0.869643  0.421074  1
  Si  Si346  1  0.885723  0.961287  0.367474  1
  Si  Si347  1  0.866064  0.638875  0.212516  1
  Si  Si348  1  0.503780  0.094355  0.360715  1
  Si  Si349  1  0.254220  0.130769  0.433450  1
  Si  Si350  1  0.116989  0.036914  0.487590  1
  Si  Si351  1  0.493027  0.911947  0.491912  1
  Si  Si352  1  0.152531  0.104240  0.431047  1
  Si  Si353  1  0.386152  0.963627  0.512598  1
  Si  Si354  1  0.256003  0.358133  0.513046  1
  Si  Si355  1  0.006777  0.393896  0.498168  1
  Si  Si356  1  0.151987  0.592784  0.433334  1
  Si  Si357  1  0.135967  0.369237  0.493754  1
  Si  Si358  1  0.006741  0.089594  0.508082  1
  Si  Si359  1  0.112627  0.734365  0.430509  1
  Si  Si360  1  0.367501  0.626050  0.507811  1
  Si  Si361  1  0.245484  0.638315  0.488276  1
  Si  Si362  1  0.137687  0.868351  0.436636  1
  Si  Si363  1  0.493808  0.602728  0.503882  1
  Si  Si364  1  0.849831  0.907280  0.487493  1
  Si  Si365  1  0.612792  0.236455  0.433398  1
  Si  Si366  1  0.903244  0.733235  0.506211  1
  Si  Si367  1  0.743015  0.143689  0.429627  1
  Si  Si368  1  0.994446  0.102526  0.436858  1
  Si  Si369  1  0.596941  0.769423  0.495290  1
  Si  Si370  1  0.847317  0.397942  0.489827  1
  Si  Si371  1  0.634109  0.360670  0.496584  1
  Si  Si372  1  0.903709  0.231007  0.503702  1
  Si  Si373  1  0.743207  0.371343  0.509624  1
  Si  Si374  1  0.652842  0.092585  0.513395  1
  Si  Si375  1  0.900829  0.461962  0.440301  1
  Si  Si376  1  0.506230  0.589618  0.440652  1
  Si  Si377  1  0.599034  0.263648  0.494471  1
  Si  Si378  1  0.756340  0.629142  0.490343  1
  Si  Si379  1  0.616729  0.535886  0.491539  1
  Si  Si380  1  0.636039  0.858165  0.440165  1
  Si  Si381  1  0.651404  0.603729  0.508803  1
  Si  Si382  1  0.884294  0.463639  0.509273  1
  Si  Si383  1  0.904091  0.959179  0.438180  1
  Si  Si384  1  0.866064  0.638875  0.503615  1
  H  H385  1  0.068963  0.029588  0.167179  1
  H  H386  1  0.304258  0.071569  0.166271  1
  H  H387  1  0.124604  0.105540  0.147896  1
  H  H388  1  0.446097  0.034235  0.147527  1
  H  H389  1  0.226554  0.468596  0.166405  1
  H  H390  1  0.124553  0.430257  0.148057  1
  H  H391  1  0.311876  0.754992  0.163725  1
  H  H392  1  0.438496  0.713239  0.151719  1
  H  H393  1  0.190970  0.741168  0.168096  1
  H  H394  1  0.194340  0.680138  0.148235  1
  H  H395  1  0.906969  0.904595  0.169241  1
  H  H396  1  0.932392  0.165752  0.163836  1
  H  H397  1  0.774622  0.031917  0.147831  1
  H  H398  1  0.622984  0.151964  0.166458  1
  H  H399  1  0.843854  0.474595  0.146048  1
  H  H400  1  0.848302  0.331933  0.151567  1
  H  H401  1  0.975787  0.397023  0.167505  1
  H  H402  1  0.553374  0.467067  0.167636  1
  H  H403  1  0.524754  0.347840  0.148912  1
  H  H404  1  0.682428  0.756497  0.147187  1
  H  H405  1  0.562759  0.588319  0.148258  1
  H  H406  1  0.906235  0.781288  0.164484  1
  H  H407  1  0.819134  0.742285  0.151324  1
  H  H408  1  0.627173  0.819189  0.167029  1
  H  H409  1  0.430712  0.975730  0.540010  1
  H  H410  1  0.197701  0.926995  0.542303  1
  H  H411  1  0.376708  0.898180  0.561375  1
  H  H412  1  0.311421  0.255675  0.541888  1
  H  H413  1  0.188512  0.242863  0.545583  1
  H  H414  1  0.052772  0.967147  0.561247  1
  H  H415  1  0.061730  0.282626  0.558356  1
  H  H416  1  0.271394  0.531784  0.542826  1
  H  H417  1  0.303240  0.319213  0.561441  1
  H  H418  1  0.374657  0.571872  0.560828  1
  H  H419  1  0.568040  0.835186  0.544785  1
  H  H420  1  0.650568  0.668080  0.556643  1
  H  H421  1  0.977432  0.647187  0.561206  1
  H  H422  1  0.875891  0.850689  0.542843  1
  H  H423  1  0.682439  0.257237  0.557760  1
  H  H424  1  0.597905  0.091214  0.542441  1
  H  H425  1  0.816269  0.243310  0.561855  1
  H  H426  1  0.597024  0.212657  0.546094  1
  H  H427  1  0.727391  0.967996  0.561127  1
  H  H428  1  0.875350  0.178391  0.542975  1
  H  H429  1  0.651602  0.531947  0.561256  1
  H  H430  1  0.937058  0.410523  0.561593  1
  H  H431  1  0.522327  0.603420  0.542432  1
  H  H432  1  0.946929  0.532162  0.541951  1
