# generated using pymatgen
data_Si12H2O25
_symmetry_space_group_name_H-M   'P 1'
_cell_length_a   7.52286856
_cell_length_b   18.52622819
_cell_length_c   56.00998099
_cell_angle_alpha   46.50772482
_cell_angle_beta   90.00000000
_cell_angle_gamma   90.00000000
_symmetry_Int_Tables_number   1
_chemical_formula_structural   Si12H2O25
_chemical_formula_sum   'Si48 H8 O100'
_cell_volume   5663.09272278
_cell_formula_units_Z   4
loop_
 _symmetry_equiv_pos_site_id
 _symmetry_equiv_pos_as_xyz
  1  'x, y, z'
loop_
 _atom_site_type_symbol
 _atom_site_label
 _atom_site_symmetry_multiplicity
 _atom_site_fract_x
 _atom_site_fract_y
 _atom_site_fract_z
 _atom_site_occupancy
  O  O1  1  0.148104  0.946405  0.139120  1
  O  O2  1  0.351727  0.446405  0.139120  1
  O  O3  1  0.485696  0.616496  0.336158  1
  O  O4  1  0.014134  0.383307  0.275418  1
  O  O5  1  0.514137  0.116496  0.250827  1
  O  O6  1  0.985694  0.883307  0.190086  1
  O  O7  1  0.514135  0.383307  0.190087  1
  O  O8  1  0.985696  0.616495  0.250827  1
  O  O9  1  0.485694  0.883307  0.275418  1
  O  O10  1  0.014137  0.116495  0.336158  1
  O  O11  1  0.903890  0.577104  0.302611  1
  O  O12  1  0.595941  0.422699  0.223935  1
  O  O13  1  0.095942  0.077104  0.302309  1
  O  O14  1  0.403889  0.922699  0.223634  1
  O  O15  1  0.095941  0.422698  0.223634  1
  O  O16  1  0.403890  0.577104  0.302309  1
  O  O17  1  0.903889  0.922699  0.223935  1
  O  O18  1  0.595941  0.077104  0.302611  1
  O  O19  1  0.156185  0.602520  0.326807  1
  O  O20  1  0.343646  0.397282  0.259704  1
  O  O21  1  0.843647  0.102520  0.266541  1
  O  O22  1  0.656184  0.897283  0.199437  1
  O  O23  1  0.843647  0.397282  0.199438  1
  O  O24  1  0.656186  0.602520  0.266541  1
  O  O25  1  0.156184  0.897283  0.259704  1
  O  O26  1  0.343648  0.102520  0.326807  1
  O  O27  1  0.821497  0.618218  0.336533  1
  O  O28  1  0.678335  0.381585  0.276577  1
  O  O29  1  0.178337  0.118218  0.249668  1
  O  O30  1  0.321495  0.881584  0.189712  1
  O  O31  1  0.178334  0.381585  0.189712  1
  O  O32  1  0.321496  0.618217  0.249668  1
  O  O33  1  0.821494  0.881585  0.276577  1
  O  O34  1  0.678335  0.118217  0.336532  1
  O  O35  1  0.648104  0.553398  0.159472  1
  O  O36  1  0.851727  0.446405  0.297656  1
  O  O37  1  0.351727  0.053398  0.228589  1
  O  O38  1  0.148104  0.946405  0.366772  1
  O  O39  1  0.351727  0.446405  0.366773  1
  O  O40  1  0.148104  0.553398  0.228589  1
  O  O41  1  0.648104  0.946405  0.297655  1
  O  O42  1  0.851727  0.053397  0.159472  1
  O  O43  1  0.964095  0.749901  0.280683  1
  O  O44  1  0.535736  0.249901  0.280683  1
  O  O45  1  0.035736  0.249902  0.245562  1
  O  O46  1  0.464095  0.749901  0.245562  1
  O  O47  1  0.648785  0.749902  0.329622  1
  O  O48  1  0.851046  0.249902  0.329622  1
  O  O49  1  0.351046  0.249902  0.196622  1
  O  O50  1  0.148785  0.749901  0.196622  1
  O  O51  1  0.485696  0.616496  0.563810  1
  O  O52  1  0.014134  0.383307  0.503070  1
  O  O53  1  0.514137  0.116496  0.478479  1
  O  O54  1  0.985694  0.883307  0.417739  1
  O  O55  1  0.514135  0.383307  0.417739  1
  O  O56  1  0.985696  0.616495  0.478479  1
  O  O57  1  0.485694  0.883307  0.503070  1
  O  O58  1  0.014137  0.116495  0.563811  1
  O  O59  1  0.903890  0.577104  0.530263  1
  O  O60  1  0.595941  0.422699  0.451588  1
  O  O61  1  0.095942  0.077104  0.529962  1
  O  O62  1  0.403889  0.922699  0.451286  1
  O  O63  1  0.095941  0.422698  0.451286  1
  O  O64  1  0.403890  0.577104  0.529962  1
  O  O65  1  0.903889  0.922699  0.451587  1
  O  O66  1  0.595941  0.077104  0.530263  1
  O  O67  1  0.156185  0.602520  0.554460  1
  O  O68  1  0.343646  0.397282  0.487356  1
  O  O69  1  0.843647  0.102520  0.494193  1
  O  O70  1  0.656184  0.897283  0.427090  1
  O  O71  1  0.843647  0.397282  0.427090  1
  O  O72  1  0.656186  0.602520  0.494193  1
  O  O73  1  0.156184  0.897283  0.487356  1
  O  O74  1  0.343648  0.102520  0.554459  1
  O  O75  1  0.821497  0.618218  0.564185  1
  O  O76  1  0.678335  0.381585  0.504229  1
  O  O77  1  0.178337  0.118218  0.477321  1
  O  O78  1  0.321495  0.881584  0.417365  1
  O  O79  1  0.178334  0.381585  0.417364  1
  O  O80  1  0.321496  0.618217  0.477321  1
  O  O81  1  0.821494  0.881585  0.504229  1
  O  O82  1  0.678335  0.118217  0.564185  1
  O  O83  1  0.648104  0.553398  0.387124  1
  O  O84  1  0.851727  0.446405  0.525308  1
  O  O85  1  0.351727  0.053398  0.456241  1
  O  O86  1  0.148104  0.946405  0.594425  1
  O  O87  1  0.351727  0.446405  0.594425  1
  O  O88  1  0.148104  0.553398  0.456242  1
  O  O89  1  0.648104  0.946405  0.525308  1
  O  O90  1  0.851727  0.053397  0.387125  1
  O  O91  1  0.964095  0.749901  0.508335  1
  O  O92  1  0.535736  0.249901  0.508335  1
  O  O93  1  0.035736  0.249902  0.473214  1
  O  O94  1  0.464095  0.749901  0.473214  1
  O  O95  1  0.648785  0.749902  0.557275  1
  O  O96  1  0.851046  0.249902  0.557275  1
  O  O97  1  0.351046  0.249902  0.424274  1
  O  O98  1  0.148785  0.749901  0.424275  1
  O  O99  1  0.648104  0.553398  0.614777  1
  O  O100  1  0.851727  0.053397  0.614777  1
  Si  Si101  1  0.962338  0.635209  0.312421  1
  Si  Si102  1  0.537493  0.364593  0.260201  1
  Si  Si103  1  0.037494  0.135209  0.266044  1
  Si  Si104  1  0.462338  0.864594  0.213824  1
  Si  Si105  1  0.037492  0.364594  0.213824  1
  Si  Si106  1  0.462338  0.635209  0.266044  1
  Si  Si107  1  0.962337  0.864594  0.260201  1
  Si  Si108  1  0.537493  0.135209  0.312421  1
  Si  Si109  1  0.348864  0.559497  0.333007  1
  Si  Si110  1  0.150965  0.440307  0.246314  1
  Si  Si111  1  0.650967  0.059496  0.279930  1
  Si  Si112  1  0.848864  0.940306  0.193238  1
  Si  Si113  1  0.650967  0.440307  0.193238  1
  Si  Si114  1  0.848865  0.559496  0.279931  1
  Si  Si115  1  0.348864  0.940307  0.246314  1
  Si  Si116  1  0.150969  0.059495  0.333007  1
  Si  Si117  1  0.651085  0.635929  0.348219  1
  Si  Si118  1  0.848747  0.363874  0.296327  1
  Si  Si119  1  0.348747  0.135929  0.229917  1
  Si  Si120  1  0.151083  0.863875  0.178025  1
  Si  Si121  1  0.348746  0.363875  0.178025  1
  Si  Si122  1  0.151084  0.635927  0.229918  1
  Si  Si123  1  0.651083  0.863874  0.296327  1
  Si  Si124  1  0.848746  0.135928  0.348219  1
  Si  Si125  1  0.962338  0.635209  0.540073  1
  Si  Si126  1  0.537493  0.364593  0.487853  1
  Si  Si127  1  0.037494  0.135209  0.493696  1
  Si  Si128  1  0.462338  0.864594  0.441476  1
  Si  Si129  1  0.037492  0.364594  0.441476  1
  Si  Si130  1  0.462338  0.635209  0.493696  1
  Si  Si131  1  0.962337  0.864594  0.487853  1
  Si  Si132  1  0.537493  0.135209  0.540073  1
  Si  Si133  1  0.348864  0.559497  0.560659  1
  Si  Si134  1  0.150965  0.440307  0.473967  1
  Si  Si135  1  0.650967  0.059496  0.507582  1
  Si  Si136  1  0.848864  0.940306  0.420890  1
  Si  Si137  1  0.650967  0.440307  0.420890  1
  Si  Si138  1  0.848865  0.559496  0.507583  1
  Si  Si139  1  0.348864  0.940307  0.473967  1
  Si  Si140  1  0.150969  0.059495  0.560660  1
  Si  Si141  1  0.651085  0.635929  0.575871  1
  Si  Si142  1  0.848747  0.363874  0.523979  1
  Si  Si143  1  0.348747  0.135929  0.457570  1
  Si  Si144  1  0.151083  0.863875  0.405677  1
  Si  Si145  1  0.348746  0.363875  0.405678  1
  Si  Si146  1  0.151084  0.635927  0.457570  1
  Si  Si147  1  0.651083  0.863874  0.523979  1
  Si  Si148  1  0.848746  0.135928  0.575872  1
  H  H149  1  0.148104  0.946405  0.123051  1
  H  H150  1  0.351727  0.446405  0.123052  1
  H  H151  1  0.648104  0.553398  0.143404  1
  H  H152  1  0.851727  0.053397  0.143404  1
  H  H153  1  0.148104  0.946405  0.610493  1
  H  H154  1  0.351727  0.446405  0.610493  1
  H  H155  1  0.648104  0.553398  0.630845  1
  H  H156  1  0.851727  0.053397  0.630846  1
