# generated using pymatgen
data_Si17(HO9)4
_symmetry_space_group_name_H-M   'P 1'
_cell_length_a   12.60116802
_cell_length_b   28.93711615
_cell_length_c   39.96640353
_cell_angle_alpha   115.81692622
_cell_angle_beta   90.00000000
_cell_angle_gamma   90.00000000
_symmetry_Int_Tables_number   1
_chemical_formula_structural   Si17(HO9)4
_chemical_formula_sum   'Si68 H16 O144'
_cell_volume   13118.8382897
_cell_formula_units_Z   4
loop_
 _symmetry_equiv_pos_site_id
 _symmetry_equiv_pos_as_xyz
  1  'x, y, z'
loop_
 _atom_site_type_symbol
 _atom_site_label
 _atom_site_symmetry_multiplicity
 _atom_site_fract_x
 _atom_site_fract_y
 _atom_site_fract_z
 _atom_site_occupancy
  O  O1  1  0.159301  0.599290  0.191652  1
  O  O2  1  0.491734  0.902902  0.161594  1
  O  O3  1  0.814137  0.062857  0.171885  1
  O  O4  1  0.516562  0.062160  0.171525  1
  O  O5  1  0.509275  0.598814  0.191612  1
  O  O6  1  0.839648  0.903273  0.161495  1
  O  O7  1  0.665313  0.938100  0.192959  1
  O  O8  1  0.162490  0.187170  0.320957  1
  O  O9  1  0.028779  0.188065  0.368141  1
  O  O10  1  0.162961  0.187873  0.414990  1
  O  O11  1  0.491811  0.097117  0.245151  1
  O  O12  1  0.363437  0.150753  0.301165  1
  O  O13  1  0.295526  0.183668  0.366804  1
  O  O14  1  0.324170  0.246933  0.341067  1
  O  O15  1  0.490467  0.098836  0.435106  1
  O  O16  1  0.363808  0.151208  0.411663  1
  O  O17  1  0.324329  0.247835  0.432470  1
  O  O18  1  0.437166  0.331622  0.359362  1
  O  O19  1  0.334888  0.313420  0.407439  1
  O  O20  1  0.496115  0.082717  0.367282  1
  O  O21  1  0.497157  0.084993  0.304061  1
  O  O22  1  0.436937  0.332737  0.467146  1
  O  O23  1  0.185653  0.562886  0.432131  1
  O  O24  1  0.185650  0.437171  0.289938  1
  O  O25  1  0.186785  0.500027  0.361038  1
  O  O26  1  0.035930  0.346797  0.363216  1
  O  O27  1  0.160004  0.596784  0.380173  1
  O  O28  1  0.035973  0.653273  0.358847  1
  O  O29  1  0.160016  0.403269  0.341895  1
  O  O30  1  0.334371  0.561989  0.389691  1
  O  O31  1  0.334374  0.438057  0.332376  1
  O  O32  1  0.482047  0.500021  0.361029  1
  O  O33  1  0.035252  0.347152  0.473033  1
  O  O34  1  0.035271  0.652894  0.249010  1
  O  O35  1  0.159301  0.599290  0.506967  1
  O  O36  1  0.159308  0.400764  0.215102  1
  O  O37  1  0.334553  0.566391  0.475188  1
  O  O38  1  0.334552  0.433664  0.246883  1
  O  O39  1  0.189666  0.503125  0.464273  1
  O  O40  1  0.189651  0.496935  0.257799  1
  O  O41  1  0.478637  0.502208  0.464031  1
  O  O42  1  0.478627  0.497828  0.258032  1
  O  O43  1  0.162920  0.581645  0.248893  1
  O  O44  1  0.162975  0.418427  0.473189  1
  O  O45  1  0.333638  0.563427  0.275377  1
  O  O46  1  0.333654  0.436624  0.446687  1
  O  O47  1  0.163672  0.584093  0.313389  1
  O  O48  1  0.163666  0.415958  0.408684  1
  O  O49  1  0.483166  0.562171  0.432046  1
  O  O50  1  0.483172  0.437867  0.290012  1
  O  O51  1  0.234155  0.334992  0.467491  1
  O  O52  1  0.234174  0.665057  0.254570  1
  O  O53  1  0.235077  0.665951  0.361713  1
  O  O54  1  0.235033  0.334093  0.360357  1
  O  O55  1  0.162543  0.812893  0.401115  1
  O  O56  1  0.028827  0.812034  0.353957  1
  O  O57  1  0.162969  0.812151  0.307054  1
  O  O58  1  0.491734  0.902902  0.476910  1
  O  O59  1  0.363474  0.849291  0.420888  1
  O  O60  1  0.295558  0.816380  0.355253  1
  O  O61  1  0.324203  0.753113  0.380989  1
  O  O62  1  0.363753  0.848837  0.310385  1
  O  O63  1  0.490490  0.901207  0.286961  1
  O  O64  1  0.324381  0.752199  0.289583  1
  O  O65  1  0.437211  0.668430  0.362698  1
  O  O66  1  0.334906  0.686623  0.314624  1
  O  O67  1  0.496044  0.917294  0.354786  1
  O  O68  1  0.497260  0.915048  0.417999  1
  O  O69  1  0.436956  0.667288  0.254909  1
  O  O70  1  0.814137  0.062857  0.487200  1
  O  O71  1  0.837220  0.312865  0.360602  1
  O  O72  1  -0.000000  0.250037  0.341145  1
  O  O73  1  0.839775  0.096795  0.245237  1
  O  O74  1  0.963791  0.153273  0.302182  1
  O  O75  1  0.665421  0.062042  0.213795  1
  O  O76  1  0.970946  0.311988  0.407222  1
  O  O77  1  0.836784  0.312173  0.454199  1
  O  O78  1  0.964489  0.152884  0.411767  1
  O  O79  1  0.840430  0.099266  0.435332  1
  O  O80  1  0.665205  0.066354  0.446370  1
  O  O81  1  0.704186  0.316366  0.408657  1
  O  O82  1  0.810110  0.003089  0.417372  1
  O  O83  1  0.675518  0.253098  0.343011  1
  O  O84  1  0.521126  0.002199  0.417053  1
  O  O85  1  0.675416  0.252192  0.433841  1
  O  O86  1  0.836787  0.081606  0.366967  1
  O  O87  1  0.562584  0.168388  0.307868  1
  O  O88  1  0.666104  0.063403  0.328990  1
  O  O89  1  0.664772  0.186608  0.367438  1
  O  O90  1  0.836107  0.084087  0.304024  1
  O  O91  1  0.764714  0.165952  0.307331  1
  O  O92  1  0.562795  0.167309  0.414982  1
  O  O93  1  0.765572  0.165038  0.413881  1
  O  O94  1  0.516562  0.062160  0.486840  1
  O  O95  1  -0.000000  0.250018  0.434226  1
  O  O96  1  0.812976  -0.000000  0.203379  1
  O  O97  1  0.517752  0.000000  0.203430  1
  O  O98  1  0.507930  0.597095  0.380475  1
  O  O99  1  0.507935  0.402951  0.341588  1
  O  O100  1  0.636302  0.349283  0.363775  1
  O  O101  1  0.636334  0.650754  0.358293  1
  O  O102  1  0.635938  0.348825  0.473984  1
  O  O103  1  0.509275  0.598814  0.506928  1
  O  O104  1  0.635948  0.651196  0.248079  1
  O  O105  1  0.509260  0.401213  0.215128  1
  O  O106  1  0.503688  0.582720  0.249296  1
  O  O107  1  0.503705  0.417302  0.472760  1
  O  O108  1  0.502531  0.584990  0.313946  1
  O  O109  1  0.502518  0.415051  0.408118  1
  O  O110  1  0.814044  0.937160  0.234818  1
  O  O111  1  0.837290  0.687181  0.361453  1
  O  O112  1  -0.000000  0.750098  0.287865  1
  O  O113  1  0.963821  0.846800  0.419904  1
  O  O114  1  0.839648  0.903273  0.476811  1
  O  O115  1  0.665313  0.938100  0.508275  1
  O  O116  1  0.970985  0.688097  0.314856  1
  O  O117  1  0.836778  0.687866  0.267879  1
  O  O118  1  0.516570  0.937869  0.235191  1
  O  O119  1  0.964395  0.847091  0.310243  1
  O  O120  1  0.840434  0.900744  0.286691  1
  O  O121  1  0.665181  0.933655  0.275676  1
  O  O122  1  0.704229  0.683660  0.313410  1
  O  O123  1  0.810122  0.996912  0.304633  1
  O  O124  1  0.675587  0.746932  0.379049  1
  O  O125  1  0.521109  0.997827  0.305002  1
  O  O126  1  0.675356  0.747818  0.288208  1
  O  O127  1  0.562632  0.831642  0.414199  1
  O  O128  1  0.836835  0.918368  0.355054  1
  O  O129  1  0.664800  0.813411  0.354611  1
  O  O130  1  0.666134  0.936601  0.393024  1
  O  O131  1  0.764731  0.834081  0.414715  1
  O  O132  1  0.836101  0.915945  0.418022  1
  O  O133  1  0.562716  0.832702  0.307080  1
  O  O134  1  0.765488  0.834979  0.308137  1
  O  O135  1  -0.000000  0.750044  0.380931  1
  O  O136  1  0.491811  0.097117  0.560466  1
  O  O137  1  0.159308  0.400764  0.530418  1
  O  O138  1  0.839775  0.096795  0.560552  1
  O  O139  1  0.665421  0.062042  0.529111  1
  O  O140  1  0.812976  -0.000000  0.518695  1
  O  O141  1  0.517752  0.000000  0.518746  1
  O  O142  1  0.509260  0.401213  0.530444  1
  O  O143  1  0.814044  0.937160  0.550134  1
  O  O144  1  0.516570  0.937869  0.550507  1
  Si  Si145  1  0.788222  0.944090  0.198575  1
  Si  Si146  1  0.542506  0.944137  0.198674  1
  Si  Si147  1  0.475869  0.125018  0.408021  1
  Si  Si148  1  0.476425  0.125497  0.288602  1
  Si  Si149  1  0.334262  0.307082  0.444406  1
  Si  Si150  1  0.285457  0.191222  0.407857  1
  Si  Si151  1  0.334583  0.306169  0.366237  1
  Si  Si152  1  0.040595  0.194066  0.331287  1
  Si  Si153  1  0.040851  0.194071  0.408758  1
  Si  Si154  1  0.284872  0.190538  0.330250  1
  Si  Si155  1  0.211477  0.555990  0.391527  1
  Si  Si156  1  0.211483  0.444068  0.330543  1
  Si  Si157  1  0.457179  0.555943  0.391598  1
  Si  Si158  1  0.457183  0.444099  0.330462  1
  Si  Si159  1  0.211732  0.559512  0.469649  1
  Si  Si160  1  0.211731  0.440549  0.252421  1
  Si  Si161  1  0.457212  0.558809  0.469605  1
  Si  Si162  1  0.457215  0.441224  0.252453  1
  Si  Si163  1  0.210210  0.556171  0.273192  1
  Si  Si164  1  0.210230  0.443889  0.448878  1
  Si  Si165  1  0.457220  0.557073  0.273584  1
  Si  Si166  1  0.457237  0.442964  0.448483  1
  Si  Si167  1  0.144709  0.624524  0.235240  1
  Si  Si168  1  0.144722  0.375539  0.486829  1
  Si  Si169  1  0.145706  0.375033  0.367606  1
  Si  Si170  1  0.145723  0.625024  0.354465  1
  Si  Si171  1  0.475841  0.875018  0.314038  1
  Si  Si172  1  0.476469  0.874541  0.433451  1
  Si  Si173  1  0.334295  0.692952  0.277652  1
  Si  Si174  1  0.334614  0.693877  0.355828  1
  Si  Si175  1  0.284912  0.809508  0.391809  1
  Si  Si176  1  0.285461  0.808805  0.314194  1
  Si  Si177  1  0.040643  0.806016  0.390806  1
  Si  Si178  1  0.040874  0.805988  0.313326  1
  Si  Si179  1  0.788313  0.056007  0.208155  1
  Si  Si180  1  0.959122  0.305999  0.366587  1
  Si  Si181  1  0.542602  0.055993  0.208071  1
  Si  Si182  1  0.958888  0.305970  0.444048  1
  Si  Si183  1  0.788036  0.059473  0.447555  1
  Si  Si184  1  0.714844  0.309487  0.367768  1
  Si  Si185  1  0.542531  0.058800  0.447168  1
  Si  Si186  1  0.714287  0.308808  0.444944  1
  Si  Si187  1  0.789532  0.056147  0.326598  1
  Si  Si188  1  0.665132  0.193859  0.330807  1
  Si  Si189  1  0.542519  0.057073  0.326810  1
  Si  Si190  1  0.665461  0.192950  0.408403  1
  Si  Si191  1  0.855013  0.124498  0.407656  1
  Si  Si192  1  0.854046  0.125018  0.288756  1
  Si  Si193  1  0.523887  0.624996  0.235207  1
  Si  Si194  1  0.523876  0.375024  0.486849  1
  Si  Si195  1  0.523289  0.374530  0.367124  1
  Si  Si196  1  0.523314  0.625515  0.354939  1
  Si  Si197  1  0.788222  0.944090  0.513891  1
  Si  Si198  1  0.959176  0.694078  0.355486  1
  Si  Si199  1  0.542506  0.944137  0.513990  1
  Si  Si200  1  0.958883  0.694112  0.278023  1
  Si  Si201  1  0.787997  0.940525  0.274462  1
  Si  Si202  1  0.714904  0.690541  0.354298  1
  Si  Si203  1  0.542526  0.941224  0.274871  1
  Si  Si204  1  0.714285  0.691213  0.277121  1
  Si  Si205  1  0.665155  0.806165  0.391245  1
  Si  Si206  1  0.789565  0.943851  0.395422  1
  Si  Si207  1  0.665418  0.807063  0.313642  1
  Si  Si208  1  0.542554  0.942960  0.395238  1
  Si  Si209  1  0.854995  0.875490  0.314356  1
  Si  Si210  1  0.854030  0.875027  0.433300  1
  Si  Si211  1  0.788313  0.056007  0.523471  1
  Si  Si212  1  0.542602  0.055993  0.523387  1
  H  H213  1  0.159301  0.599290  0.169133  1
  H  H214  1  0.491734  0.902902  0.139075  1
  H  H215  1  0.814137  0.062857  0.149366  1
  H  H216  1  0.516562  0.062160  0.149006  1
  H  H217  1  0.509275  0.598814  0.169093  1
  H  H218  1  0.839648  0.903273  0.138976  1
  H  H219  1  0.159301  0.599290  0.529486  1
  H  H220  1  0.159308  0.400764  0.192583  1
  H  H221  1  0.509275  0.598814  0.529447  1
  H  H222  1  0.509260  0.401213  0.192610  1
  H  H223  1  0.491811  0.097117  0.582985  1
  H  H224  1  0.159308  0.400764  0.552936  1
  H  H225  1  0.839775  0.096795  0.583071  1
  H  H226  1  0.509260  0.401213  0.552963  1
  H  H227  1  0.814044  0.937160  0.572653  1
  H  H228  1  0.516570  0.937869  0.573026  1
