# generated using pymatgen
data_Si58H2O117
_symmetry_space_group_name_H-M   'P 1'
_cell_length_a   14.05413494
_cell_length_b   13.77403359
_cell_length_c   113.35803544
_cell_angle_alpha   90.00000000
_cell_angle_beta   90.00000000
_cell_angle_gamma   90.00000000
_symmetry_Int_Tables_number   1
_chemical_formula_structural   Si58H2O117
_chemical_formula_sum   'Si232 H8 O468'
_cell_volume   21944.0895829
_cell_formula_units_Z   4
loop_
 _symmetry_equiv_pos_site_id
 _symmetry_equiv_pos_as_xyz
  1  'x, y, z'
loop_
 _atom_site_type_symbol
 _atom_site_label
 _atom_site_symmetry_multiplicity
 _atom_site_fract_x
 _atom_site_fract_y
 _atom_site_fract_z
 _atom_site_occupancy
  O  O1  1  -0.000000  0.337983  0.209639  1
  O  O2  1  0.500420  0.663924  0.229406  1
  O  O3  1  0.584192  0.750958  0.211815  1
  O  O4  1  0.910927  0.249755  0.226722  1
  O  O5  1  0.730466  0.249767  0.257929  1
  O  O6  1  0.667406  0.413527  0.250738  1
  O  O7  1  0.668114  0.085831  0.250666  1
  O  O8  1  0.791425  0.414494  0.265504  1
  O  O9  1  0.791052  0.085041  0.265594  1
  O  O10  1  0.659416  0.837265  0.193358  1
  O  O11  1  0.836769  0.337500  0.245151  1
  O  O12  1  0.836810  0.161770  0.245183  1
  O  O13  1  0.660806  0.661766  0.193418  1
  O  O14  1  0.868741  0.749419  0.282932  1
  O  O15  1  0.828219  0.912760  0.273164  1
  O  O16  1  0.827781  0.586705  0.273037  1
  O  O17  1  0.870449  0.912128  0.293875  1
  O  O18  1  0.870608  0.584695  0.293689  1
  O  O19  1  0.587942  0.583702  0.247412  1
  O  O20  1  0.589217  0.916246  0.247145  1
  O  O21  1  0.750178  0.024700  0.286706  1
  O  O22  1  0.752834  0.473971  0.286756  1
  O  O23  1  0.660114  0.972810  0.266991  1
  O  O24  1  0.659277  0.525584  0.267150  1
  O  O25  1  0.500310  0.842061  0.229066  1
  O  O26  1  0.998835  0.162135  0.209551  1
  O  O27  1  0.000000  0.871767  0.279316  1
  O  O28  1  0.000000  0.626820  0.279043  1
  O  O29  1  0.503337  0.750945  0.247551  1
  O  O30  1  0.000000  0.249194  0.244901  1
  O  O31  1  0.770513  0.749946  0.181120  1
  O  O32  1  0.770470  0.250832  0.100299  1
  O  O33  1  0.829032  0.914994  0.188461  1
  O  O34  1  0.832366  0.086927  0.092874  1
  O  O35  1  0.830682  0.584649  0.188231  1
  O  O36  1  0.831034  0.416356  0.093194  1
  O  O37  1  0.709906  0.914168  0.173179  1
  O  O38  1  0.710922  0.085251  0.107881  1
  O  O39  1  0.709790  0.586778  0.173086  1
  O  O40  1  0.706698  0.413068  0.108228  1
  O  O41  1  0.630174  0.249804  0.155769  1
  O  O42  1  0.630326  0.749765  0.125452  1
  O  O43  1  0.671965  0.414948  0.165292  1
  O  O44  1  0.671146  0.585065  0.115800  1
  O  O45  1  0.671934  0.085834  0.165404  1
  O  O46  1  0.672412  0.913822  0.115777  1
  O  O47  1  0.628417  0.412151  0.144871  1
  O  O48  1  0.629970  0.585606  0.136320  1
  O  O49  1  0.629239  0.085297  0.144965  1
  O  O50  1  0.628159  0.912026  0.136420  1
  O  O51  1  0.998225  0.750427  0.090101  1
  O  O52  1  0.913711  0.916672  0.089877  1
  O  O53  1  0.912983  0.084872  0.191141  1
  O  O54  1  0.911628  0.585918  0.089806  1
  O  O55  1  0.912247  0.414974  0.191453  1
  O  O56  1  0.750767  0.525499  0.152044  1
  O  O57  1  0.747857  0.473158  0.129224  1
  O  O58  1  0.748008  0.973670  0.151979  1
  O  O59  1  0.748166  0.023969  0.129067  1
  O  O60  1  0.840135  0.473639  0.171728  1
  O  O61  1  0.839563  0.526067  0.109536  1
  O  O62  1  0.840325  0.026568  0.171402  1
  O  O63  1  0.841079  0.972391  0.109663  1
  O  O64  1  0.998025  0.962384  0.180666  1
  O  O65  1  0.000000  0.037478  0.101005  1
  O  O66  1  0.500054  0.872264  0.121699  1
  O  O67  1  0.501656  0.337576  0.052047  1
  O  O68  1  0.502160  0.161867  0.052052  1
  O  O69  1  0.914479  0.750666  0.054323  1
  O  O70  1  0.588961  0.250573  0.069266  1
  O  O71  1  0.663032  0.162724  0.087636  1
  O  O72  1  0.661558  0.338646  0.087810  1
  O  O73  1  0.499517  0.037127  0.258370  1
  O  O74  1  0.499843  0.458981  0.258787  1
  O  O75  1  0.414700  0.751135  0.211909  1
  O  O76  1  0.087413  0.249027  0.226749  1
  O  O77  1  0.268990  0.249118  0.257904  1
  O  O78  1  0.331243  0.085842  0.250496  1
  O  O79  1  0.330942  0.414692  0.250989  1
  O  O80  1  0.208451  0.084992  0.265702  1
  O  O81  1  0.207025  0.412373  0.265595  1
  O  O82  1  0.338328  0.659864  0.193761  1
  O  O83  1  0.161806  0.161047  0.245220  1
  O  O84  1  0.161615  0.336988  0.245199  1
  O  O85  1  0.337603  0.837804  0.193351  1
  O  O86  1  0.129846  0.749016  0.282922  1
  O  O87  1  0.173166  0.584491  0.273174  1
  O  O88  1  0.171439  0.913581  0.273481  1
  O  O89  1  0.127450  0.586408  0.293748  1
  O  O90  1  0.129490  0.913508  0.293734  1
  O  O91  1  0.414917  0.916848  0.247545  1
  O  O92  1  0.416927  0.584008  0.247882  1
  O  O93  1  0.247519  0.473677  0.286557  1
  O  O94  1  0.249196  0.027442  0.286860  1
  O  O95  1  0.343228  0.525818  0.267481  1
  O  O96  1  0.339258  0.974987  0.267291  1
  O  O97  1  0.231655  0.249932  0.100077  1
  O  O98  1  0.229893  0.751075  0.181080  1
  O  O99  1  0.169502  0.415529  0.093160  1
  O  O100  1  0.169256  0.585683  0.188266  1
  O  O101  1  0.168876  0.084472  0.093207  1
  O  O102  1  0.167223  0.915130  0.188569  1
  O  O103  1  0.290952  0.414772  0.107908  1
  O  O104  1  0.292213  0.585631  0.173364  1
  O  O105  1  0.290778  0.085079  0.107902  1
  O  O106  1  0.291414  0.914204  0.173058  1
  O  O107  1  0.369739  0.750418  0.125515  1
  O  O108  1  0.368954  0.250329  0.155797  1
  O  O109  1  0.327332  0.913651  0.115756  1
  O  O110  1  0.327837  0.085622  0.165392  1
  O  O111  1  0.327657  0.586329  0.115825  1
  O  O112  1  0.328856  0.413155  0.165776  1
  O  O113  1  0.370756  0.915317  0.136174  1
  O  O114  1  0.371180  0.088498  0.144723  1
  O  O115  1  0.371410  0.588260  0.136479  1
  O  O116  1  0.370232  0.415295  0.145073  1
  O  O117  1  0.499877  0.372311  0.159535  1
  O  O118  1  0.000000  0.535843  0.180620  1
  O  O119  1  0.088143  0.415774  0.191539  1
  O  O120  1  0.085563  0.585306  0.090109  1
  O  O121  1  0.087415  0.085227  0.191584  1
  O  O122  1  0.085957  0.914760  0.090178  1
  O  O123  1  0.498788  0.748092  0.193019  1
  O  O124  1  0.251672  0.026540  0.129136  1
  O  O125  1  0.251689  0.975891  0.152071  1
  O  O126  1  0.251800  0.475915  0.129096  1
  O  O127  1  0.252826  0.525765  0.152135  1
  O  O128  1  0.158154  0.972523  0.109893  1
  O  O129  1  0.159545  0.025051  0.171929  1
  O  O130  1  0.158846  0.528262  0.109782  1
  O  O131  1  0.161033  0.473573  0.171824  1
  O  O132  1  -0.000000  0.464332  0.100880  1
  O  O133  1  0.499668  0.127862  0.159425  1
  O  O134  1  0.000000  0.250619  0.191132  1
  O  O135  1  0.499842  0.627709  0.121839  1
  O  O136  1  0.088580  0.749813  0.054455  1
  O  O137  1  0.414823  0.249566  0.069378  1
  O  O138  1  0.337809  0.339575  0.087486  1
  O  O139  1  0.337603  0.159959  0.087493  1
  O  O140  1  0.499181  0.249767  0.087632  1
  O  O141  1  0.001593  0.838105  0.071698  1
  O  O142  1  -0.000000  0.662542  0.071696  1
  O  O143  1  -0.000000  0.337983  0.524805  1
  O  O144  1  0.500420  0.663924  0.544571  1
  O  O145  1  0.584192  0.750958  0.526980  1
  O  O146  1  0.910927  0.249755  0.541888  1
  O  O147  1  0.730466  0.249767  0.573094  1
  O  O148  1  0.667406  0.413527  0.565904  1
  O  O149  1  0.668114  0.085831  0.565831  1
  O  O150  1  0.791425  0.414494  0.580670  1
  O  O151  1  0.791052  0.085041  0.580760  1
  O  O152  1  0.659416  0.837265  0.508523  1
  O  O153  1  0.836769  0.337500  0.560316  1
  O  O154  1  0.836810  0.161770  0.560348  1
  O  O155  1  0.660806  0.661766  0.508583  1
  O  O156  1  0.868741  0.749419  0.598097  1
  O  O157  1  0.828219  0.912760  0.588329  1
  O  O158  1  0.827781  0.586705  0.588202  1
  O  O159  1  0.870449  0.912128  0.609040  1
  O  O160  1  0.870608  0.584695  0.608854  1
  O  O161  1  0.587942  0.583702  0.562577  1
  O  O162  1  0.589217  0.916246  0.562310  1
  O  O163  1  0.750178  0.024700  0.601871  1
  O  O164  1  0.752834  0.473971  0.601921  1
  O  O165  1  0.660114  0.972810  0.582157  1
  O  O166  1  0.659277  0.525584  0.582316  1
  O  O167  1  0.500310  0.842061  0.544231  1
  O  O168  1  0.998835  0.162135  0.524716  1
  O  O169  1  -0.000000  0.871767  0.594481  1
  O  O170  1  0.000000  0.626820  0.594209  1
  O  O171  1  0.503337  0.750945  0.562716  1
  O  O172  1  0.000000  0.249194  0.560066  1
  O  O173  1  0.770513  0.749946  0.496285  1
  O  O174  1  0.770470  0.250832  0.415464  1
  O  O175  1  0.829032  0.914994  0.503626  1
  O  O176  1  0.832366  0.086927  0.408040  1
  O  O177  1  0.830682  0.584649  0.503396  1
  O  O178  1  0.831034  0.416356  0.408359  1
  O  O179  1  0.709906  0.914168  0.488345  1
  O  O180  1  0.710922  0.085251  0.423046  1
  O  O181  1  0.709790  0.586778  0.488251  1
  O  O182  1  0.706698  0.413068  0.423393  1
  O  O183  1  0.630174  0.249804  0.470935  1
  O  O184  1  0.630326  0.749765  0.440617  1
  O  O185  1  0.671965  0.414948  0.480458  1
  O  O186  1  0.671146  0.585065  0.430965  1
  O  O187  1  0.671934  0.085834  0.480569  1
  O  O188  1  0.672412  0.913822  0.430942  1
  O  O189  1  0.628417  0.412151  0.460036  1
  O  O190  1  0.629970  0.585606  0.451485  1
  O  O191  1  0.629239  0.085297  0.460130  1
  O  O192  1  0.628159  0.912026  0.451586  1
  O  O193  1  0.998225  0.750427  0.405266  1
  O  O194  1  0.913711  0.916672  0.405042  1
  O  O195  1  0.912983  0.084872  0.506306  1
  O  O196  1  0.911628  0.585918  0.404971  1
  O  O197  1  0.912247  0.414974  0.506619  1
  O  O198  1  0.750767  0.525499  0.467209  1
  O  O199  1  0.747857  0.473158  0.444389  1
  O  O200  1  0.748008  0.973670  0.467144  1
  O  O201  1  0.748166  0.023969  0.444232  1
  O  O202  1  0.840135  0.473639  0.486893  1
  O  O203  1  0.839563  0.526067  0.424701  1
  O  O204  1  0.840325  0.026568  0.486567  1
  O  O205  1  0.841079  0.972391  0.424828  1
  O  O206  1  0.998025  0.962384  0.495831  1
  O  O207  1  -0.000000  0.037478  0.416170  1
  O  O208  1  0.500054  0.872264  0.436865  1
  O  O209  1  0.501656  0.337576  0.367213  1
  O  O210  1  0.502160  0.161867  0.367217  1
  O  O211  1  0.914479  0.750666  0.369488  1
  O  O212  1  0.588961  0.250573  0.384431  1
  O  O213  1  0.731915  0.750005  0.338653  1
  O  O214  1  0.668747  0.585357  0.345858  1
  O  O215  1  0.668401  0.914658  0.345742  1
  O  O216  1  0.791884  0.584628  0.330955  1
  O  O217  1  0.791936  0.915306  0.330880  1
  O  O218  1  0.837334  0.660572  0.351352  1
  O  O219  1  0.663032  0.162724  0.402801  1
  O  O220  1  0.661558  0.338646  0.402975  1
  O  O221  1  0.837104  0.840039  0.351316  1
  O  O222  1  0.869231  0.250228  0.313412  1
  O  O223  1  0.828428  0.087432  0.323268  1
  O  O224  1  0.828336  0.412739  0.323366  1
  O  O225  1  0.870197  0.085374  0.302557  1
  O  O226  1  0.871694  0.412423  0.302457  1
  O  O227  1  0.501917  0.249658  0.348780  1
  O  O228  1  0.588671  0.414895  0.349128  1
  O  O229  1  0.588538  0.084730  0.349035  1
  O  O230  1  0.998803  0.750554  0.351235  1
  O  O231  1  0.752479  0.974956  0.309607  1
  O  O232  1  0.753042  0.523168  0.309783  1
  O  O233  1  0.660185  0.026763  0.329306  1
  O  O234  1  0.660227  0.473053  0.329453  1
  O  O235  1  0.000000  0.373062  0.317231  1
  O  O236  1  -0.000000  0.127640  0.317165  1
  O  O237  1  0.499517  0.037127  0.573535  1
  O  O238  1  0.499843  0.458981  0.573952  1
  O  O239  1  0.414700  0.751135  0.527074  1
  O  O240  1  0.087413  0.249027  0.541914  1
  O  O241  1  0.268990  0.249118  0.573069  1
  O  O242  1  0.331243  0.085842  0.565661  1
  O  O243  1  0.330942  0.414692  0.566155  1
  O  O244  1  0.208451  0.084992  0.580867  1
  O  O245  1  0.207025  0.412373  0.580760  1
  O  O246  1  0.338328  0.659864  0.508926  1
  O  O247  1  0.161806  0.161047  0.560386  1
  O  O248  1  0.161615  0.336988  0.560365  1
  O  O249  1  0.337603  0.837804  0.508516  1
  O  O250  1  0.129846  0.749016  0.598087  1
  O  O251  1  0.173166  0.584491  0.588339  1
  O  O252  1  0.171439  0.913581  0.588646  1
  O  O253  1  0.127450  0.586408  0.608913  1
  O  O254  1  0.129490  0.913508  0.608899  1
  O  O255  1  0.414917  0.916848  0.562711  1
  O  O256  1  0.416927  0.584008  0.563047  1
  O  O257  1  0.247519  0.473677  0.601722  1
  O  O258  1  0.249196  0.027442  0.602025  1
  O  O259  1  0.343228  0.525818  0.582647  1
  O  O260  1  0.339258  0.974987  0.582457  1
  O  O261  1  0.231655  0.249932  0.415243  1
  O  O262  1  0.229893  0.751075  0.496246  1
  O  O263  1  0.169502  0.415529  0.408326  1
  O  O264  1  0.169256  0.585683  0.503431  1
  O  O265  1  0.168876  0.084472  0.408372  1
  O  O266  1  0.167223  0.915130  0.503734  1
  O  O267  1  0.290952  0.414772  0.423073  1
  O  O268  1  0.292213  0.585631  0.488529  1
  O  O269  1  0.290778  0.085079  0.423067  1
  O  O270  1  0.291414  0.914204  0.488224  1
  O  O271  1  0.369739  0.750418  0.440680  1
  O  O272  1  0.368954  0.250329  0.470963  1
  O  O273  1  0.327332  0.913651  0.430921  1
  O  O274  1  0.327837  0.085622  0.480557  1
  O  O275  1  0.327657  0.586329  0.430991  1
  O  O276  1  0.328856  0.413155  0.480942  1
  O  O277  1  0.370756  0.915317  0.451339  1
  O  O278  1  0.371180  0.088498  0.459889  1
  O  O279  1  0.371410  0.588260  0.451645  1
  O  O280  1  0.370232  0.415295  0.460238  1
  O  O281  1  0.499877  0.372311  0.474700  1
  O  O282  1  0.000000  0.535843  0.495785  1
  O  O283  1  0.088143  0.415774  0.506704  1
  O  O284  1  0.085563  0.585306  0.405275  1
  O  O285  1  0.087415  0.085227  0.506749  1
  O  O286  1  0.085957  0.914760  0.405344  1
  O  O287  1  0.498788  0.748092  0.508185  1
  O  O288  1  0.251672  0.026540  0.444302  1
  O  O289  1  0.251689  0.975891  0.467236  1
  O  O290  1  0.251800  0.475915  0.444261  1
  O  O291  1  0.252826  0.525765  0.467300  1
  O  O292  1  0.158154  0.972523  0.425058  1
  O  O293  1  0.159545  0.025051  0.487094  1
  O  O294  1  0.158846  0.528262  0.424947  1
  O  O295  1  0.161033  0.473573  0.486989  1
  O  O296  1  -0.000000  0.464332  0.416045  1
  O  O297  1  0.499668  0.127862  0.474590  1
  O  O298  1  -0.000000  0.250619  0.506297  1
  O  O299  1  0.499842  0.627709  0.437004  1
  O  O300  1  0.499364  0.963004  0.338022  1
  O  O301  1  0.088580  0.749813  0.369620  1
  O  O302  1  0.414823  0.249566  0.384544  1
  O  O303  1  0.269691  0.749120  0.338466  1
  O  O304  1  0.331936  0.913135  0.345954  1
  O  O305  1  0.330837  0.585265  0.345994  1
  O  O306  1  0.208526  0.915204  0.330828  1
  O  O307  1  0.204470  0.586154  0.330708  1
  O  O308  1  0.162573  0.837829  0.351177  1
  O  O309  1  0.337809  0.339575  0.402652  1
  O  O310  1  0.337603  0.159959  0.402658  1
  O  O311  1  0.161551  0.661779  0.351088  1
  O  O312  1  0.130428  0.250682  0.313589  1
  O  O313  1  0.170128  0.413365  0.323511  1
  O  O314  1  0.170824  0.087563  0.323328  1
  O  O315  1  0.129065  0.414178  0.302692  1
  O  O316  1  0.129673  0.086899  0.302611  1
  O  O317  1  0.499181  0.249767  0.402797  1
  O  O318  1  0.414797  0.083209  0.349002  1
  O  O319  1  0.414900  0.415917  0.348989  1
  O  O320  1  0.245259  0.525585  0.309614  1
  O  O321  1  0.247070  0.975789  0.309585  1
  O  O322  1  0.337795  0.476013  0.329449  1
  O  O323  1  0.338502  0.025930  0.329332  1
  O  O324  1  0.001593  0.838105  0.386863  1
  O  O325  1  0.000000  0.662542  0.386861  1
  O  O326  1  0.499655  0.537124  0.338182  1
  O  O327  1  0.000000  0.337983  0.839970  1
  O  O328  1  0.500420  0.663924  0.859736  1
  O  O329  1  0.584192  0.750958  0.842146  1
  O  O330  1  0.910927  0.249755  0.857053  1
  O  O331  1  0.659416  0.837265  0.823688  1
  O  O332  1  0.660806  0.661766  0.823749  1
  O  O333  1  0.500310  0.842061  0.859396  1
  O  O334  1  0.998835  0.162135  0.839882  1
  O  O335  1  0.770513  0.749946  0.811451  1
  O  O336  1  0.770470  0.250832  0.730630  1
  O  O337  1  0.829032  0.914994  0.818792  1
  O  O338  1  0.832366  0.086927  0.723205  1
  O  O339  1  0.830682  0.584649  0.818562  1
  O  O340  1  0.831034  0.416356  0.723525  1
  O  O341  1  0.709906  0.914168  0.803510  1
  O  O342  1  0.710922  0.085251  0.738212  1
  O  O343  1  0.709790  0.586778  0.803417  1
  O  O344  1  0.706698  0.413068  0.738559  1
  O  O345  1  0.630174  0.249804  0.786100  1
  O  O346  1  0.630326  0.749765  0.755783  1
  O  O347  1  0.671965  0.414948  0.795623  1
  O  O348  1  0.671146  0.585065  0.746131  1
  O  O349  1  0.671934  0.085834  0.795734  1
  O  O350  1  0.672412  0.913822  0.746108  1
  O  O351  1  0.628417  0.412151  0.775201  1
  O  O352  1  0.629970  0.585606  0.766650  1
  O  O353  1  0.629239  0.085297  0.775295  1
  O  O354  1  0.628159  0.912026  0.766751  1
  O  O355  1  0.998225  0.750427  0.720431  1
  O  O356  1  0.913711  0.916672  0.720208  1
  O  O357  1  0.912983  0.084872  0.821471  1
  O  O358  1  0.911628  0.585918  0.720136  1
  O  O359  1  0.912247  0.414974  0.821784  1
  O  O360  1  0.750767  0.525499  0.782375  1
  O  O361  1  0.747857  0.473158  0.759554  1
  O  O362  1  0.748008  0.973670  0.782309  1
  O  O363  1  0.748166  0.023969  0.759398  1
  O  O364  1  0.840135  0.473639  0.802058  1
  O  O365  1  0.839563  0.526067  0.739866  1
  O  O366  1  0.840325  0.026568  0.801732  1
  O  O367  1  0.841079  0.972391  0.739993  1
  O  O368  1  0.998025  0.962384  0.810996  1
  O  O369  1  -0.000000  0.037478  0.731335  1
  O  O370  1  0.500054  0.872264  0.752030  1
  O  O371  1  0.501656  0.337576  0.682378  1
  O  O372  1  0.502160  0.161867  0.682382  1
  O  O373  1  0.914479  0.750666  0.684653  1
  O  O374  1  0.588961  0.250573  0.699596  1
  O  O375  1  0.731915  0.750005  0.653819  1
  O  O376  1  0.668747  0.585357  0.661023  1
  O  O377  1  0.668401  0.914658  0.660907  1
  O  O378  1  0.791884  0.584628  0.646120  1
  O  O379  1  0.791936  0.915306  0.646045  1
  O  O380  1  0.837334  0.660572  0.666518  1
  O  O381  1  0.663032  0.162724  0.717966  1
  O  O382  1  0.661558  0.338646  0.718141  1
  O  O383  1  0.837104  0.840039  0.666481  1
  O  O384  1  0.869231  0.250228  0.628577  1
  O  O385  1  0.828428  0.087432  0.638433  1
  O  O386  1  0.828336  0.412739  0.638531  1
  O  O387  1  0.870197  0.085374  0.617722  1
  O  O388  1  0.871694  0.412423  0.617622  1
  O  O389  1  0.501917  0.249658  0.663946  1
  O  O390  1  0.588671  0.414895  0.664293  1
  O  O391  1  0.588538  0.084730  0.664201  1
  O  O392  1  0.998803  0.750554  0.666400  1
  O  O393  1  0.752479  0.974956  0.624773  1
  O  O394  1  0.753042  0.523168  0.624949  1
  O  O395  1  0.660185  0.026763  0.644471  1
  O  O396  1  0.660227  0.473053  0.644618  1
  O  O397  1  -0.000000  0.373062  0.632397  1
  O  O398  1  0.000000  0.127640  0.632331  1
  O  O399  1  0.414700  0.751135  0.842240  1
  O  O400  1  0.087413  0.249027  0.857079  1
  O  O401  1  0.338328  0.659864  0.824091  1
  O  O402  1  0.337603  0.837804  0.823681  1
  O  O403  1  0.231655  0.249932  0.730408  1
  O  O404  1  0.229893  0.751075  0.811411  1
  O  O405  1  0.169502  0.415529  0.723491  1
  O  O406  1  0.169256  0.585683  0.818597  1
  O  O407  1  0.168876  0.084472  0.723538  1
  O  O408  1  0.167223  0.915130  0.818899  1
  O  O409  1  0.290952  0.414772  0.738238  1
  O  O410  1  0.292213  0.585631  0.803694  1
  O  O411  1  0.290778  0.085079  0.738233  1
  O  O412  1  0.291414  0.914204  0.803389  1
  O  O413  1  0.369739  0.750418  0.755846  1
  O  O414  1  0.368954  0.250329  0.786128  1
  O  O415  1  0.327332  0.913651  0.746087  1
  O  O416  1  0.327837  0.085622  0.795722  1
  O  O417  1  0.327657  0.586329  0.746156  1
  O  O418  1  0.328856  0.413155  0.796107  1
  O  O419  1  0.370756  0.915317  0.766505  1
  O  O420  1  0.371180  0.088498  0.775054  1
  O  O421  1  0.371410  0.588260  0.766810  1
  O  O422  1  0.370232  0.415295  0.775404  1
  O  O423  1  0.499877  0.372311  0.789865  1
  O  O424  1  -0.000000  0.535843  0.810950  1
  O  O425  1  0.088143  0.415774  0.821869  1
  O  O426  1  0.085563  0.585306  0.720440  1
  O  O427  1  0.087415  0.085227  0.821915  1
  O  O428  1  0.085957  0.914760  0.720509  1
  O  O429  1  0.498788  0.748092  0.823350  1
  O  O430  1  0.251672  0.026540  0.759467  1
  O  O431  1  0.251689  0.975891  0.782401  1
  O  O432  1  0.251800  0.475915  0.759426  1
  O  O433  1  0.252826  0.525765  0.782465  1
  O  O434  1  0.158154  0.972523  0.740223  1
  O  O435  1  0.159545  0.025051  0.802259  1
  O  O436  1  0.158846  0.528262  0.740112  1
  O  O437  1  0.161033  0.473573  0.802154  1
  O  O438  1  -0.000000  0.464332  0.731210  1
  O  O439  1  0.499668  0.127862  0.789755  1
  O  O440  1  -0.000000  0.250619  0.821462  1
  O  O441  1  0.499842  0.627709  0.752169  1
  O  O442  1  0.499364  0.963004  0.653187  1
  O  O443  1  0.088580  0.749813  0.684785  1
  O  O444  1  0.414823  0.249566  0.699709  1
  O  O445  1  0.269691  0.749120  0.653631  1
  O  O446  1  0.331936  0.913135  0.661119  1
  O  O447  1  0.330837  0.585265  0.661160  1
  O  O448  1  0.208526  0.915204  0.645994  1
  O  O449  1  0.204470  0.586154  0.645873  1
  O  O450  1  0.162573  0.837829  0.666343  1
  O  O451  1  0.337809  0.339575  0.717817  1
  O  O452  1  0.337603  0.159959  0.717824  1
  O  O453  1  0.161551  0.661779  0.666254  1
  O  O454  1  0.130428  0.250682  0.628755  1
  O  O455  1  0.170128  0.413365  0.638676  1
  O  O456  1  0.170824  0.087563  0.638493  1
  O  O457  1  0.129065  0.414178  0.617858  1
  O  O458  1  0.129673  0.086899  0.617776  1
  O  O459  1  0.499181  0.249767  0.717963  1
  O  O460  1  0.414797  0.083209  0.664167  1
  O  O461  1  0.414900  0.415917  0.664154  1
  O  O462  1  0.245259  0.525585  0.624780  1
  O  O463  1  0.247070  0.975789  0.624751  1
  O  O464  1  0.337795  0.476013  0.644614  1
  O  O465  1  0.338502  0.025930  0.644497  1
  O  O466  1  0.001593  0.838105  0.702029  1
  O  O467  1  -0.000000  0.662542  0.702026  1
  O  O468  1  0.499655  0.537124  0.653348  1
  Si  Si469  1  0.502621  0.857968  0.242569  1
  Si  Si470  1  0.757821  0.355464  0.254541  1
  Si  Si471  1  0.757768  0.144025  0.254565  1
  Si  Si472  1  0.891777  0.859628  0.282155  1
  Si  Si473  1  0.892746  0.639930  0.281919  1
  Si  Si474  1  0.756584  0.997454  0.273493  1
  Si  Si475  1  0.756546  0.501271  0.273327  1
  Si  Si476  1  0.600455  0.495937  0.255767  1
  Si  Si477  1  0.603266  0.002713  0.255573  1
  Si  Si478  1  0.600130  0.749085  0.198163  1
  Si  Si479  1  0.894735  0.249572  0.240142  1
  Si  Si480  1  0.502857  0.643634  0.242943  1
  Si  Si481  1  0.000000  0.249576  0.218566  1
  Si  Si482  1  0.808110  0.998174  0.297832  1
  Si  Si483  1  0.893687  0.005146  0.098353  1
  Si  Si484  1  0.690734  0.997765  0.140466  1
  Si  Si485  1  0.692051  0.497851  0.140977  1
  Si  Si486  1  0.896714  0.498707  0.098134  1
  Si  Si487  1  0.895897  0.502260  0.183208  1
  Si  Si488  1  0.741709  0.856278  0.184333  1
  Si  Si489  1  0.743851  0.144190  0.096864  1
  Si  Si490  1  0.741803  0.643908  0.184268  1
  Si  Si491  1  0.741345  0.357676  0.097203  1
  Si  Si492  1  0.606364  0.359158  0.156518  1
  Si  Si493  1  0.606286  0.640867  0.124619  1
  Si  Si494  1  0.606113  0.140941  0.156621  1
  Si  Si495  1  0.606685  0.859283  0.124705  1
  Si  Si496  1  0.745027  0.500167  0.165290  1
  Si  Si497  1  0.743654  0.498834  0.115695  1
  Si  Si498  1  0.745379  0.000000  0.165427  1
  Si  Si499  1  0.746199  0.998645  0.115596  1
  Si  Si500  1  0.891512  0.995528  0.182890  1
  Si  Si501  1  0.000000  0.856156  0.085256  1
  Si  Si502  1  0.998379  0.643890  0.085329  1
  Si  Si503  1  0.603765  0.250485  0.082750  1
  Si  Si504  1  0.502563  0.249771  0.060834  1
  Si  Si505  1  0.000000  0.358330  0.195903  1
  Si  Si506  1  0.103709  0.248934  0.240172  1
  Si  Si507  1  0.396960  0.748261  0.198172  1
  Si  Si508  1  0.398108  0.495273  0.256288  1
  Si  Si509  1  0.242048  0.142392  0.254553  1
  Si  Si510  1  0.240532  0.355598  0.254674  1
  Si  Si511  1  0.106361  0.639591  0.282020  1
  Si  Si512  1  0.105650  0.857816  0.282152  1
  Si  Si513  1  0.246628  0.497843  0.272925  1
  Si  Si514  1  0.243663  0.000000  0.273677  1
  Si  Si515  1  0.394408  0.005347  0.255877  1
  Si  Si516  1  0.191722  0.000000  0.297995  1
  Si  Si517  1  0.189940  0.500867  0.297935  1
  Si  Si518  1  -0.000000  0.143580  0.195896  1
  Si  Si519  1  0.499940  0.752935  0.220867  1
  Si  Si520  1  0.259557  0.355994  0.096781  1
  Si  Si521  1  0.259438  0.644876  0.184468  1
  Si  Si522  1  0.259210  0.143777  0.096777  1
  Si  Si523  1  0.255840  0.859581  0.184120  1
  Si  Si524  1  0.393647  0.859222  0.124546  1
  Si  Si525  1  0.392990  0.140799  0.156460  1
  Si  Si526  1  0.393174  0.640925  0.124766  1
  Si  Si527  1  0.392798  0.359704  0.156802  1
  Si  Si528  1  0.253918  0.000000  0.115682  1
  Si  Si529  1  0.255153  0.000000  0.165568  1
  Si  Si530  1  0.254177  0.501144  0.115614  1
  Si  Si531  1  0.257442  0.498390  0.165563  1
  Si  Si532  1  0.105524  0.497454  0.098484  1
  Si  Si533  1  0.104489  0.502790  0.183240  1
  Si  Si534  1  0.104661  0.002833  0.098573  1
  Si  Si535  1  0.103242  0.996400  0.183458  1
  Si  Si536  1  0.308876  0.002585  0.140662  1
  Si  Si537  1  0.308817  0.502482  0.140507  1
  Si  Si538  1  0.393243  0.249690  0.083002  1
  Si  Si539  1  0.002165  0.750407  0.062898  1
  Si  Si540  1  0.502621  0.857968  0.557735  1
  Si  Si541  1  0.757821  0.355464  0.569707  1
  Si  Si542  1  0.757768  0.144025  0.569730  1
  Si  Si543  1  0.891777  0.859628  0.597320  1
  Si  Si544  1  0.892746  0.639930  0.597084  1
  Si  Si545  1  0.756584  0.997454  0.588658  1
  Si  Si546  1  0.756546  0.501271  0.588493  1
  Si  Si547  1  0.600455  0.495937  0.570933  1
  Si  Si548  1  0.603266  0.002713  0.570738  1
  Si  Si549  1  0.600130  0.749085  0.513328  1
  Si  Si550  1  0.894735  0.249572  0.555307  1
  Si  Si551  1  0.502857  0.643634  0.558108  1
  Si  Si552  1  -0.000000  0.249576  0.533731  1
  Si  Si553  1  0.808110  0.998174  0.612998  1
  Si  Si554  1  0.893687  0.005146  0.413518  1
  Si  Si555  1  0.690734  0.997765  0.455631  1
  Si  Si556  1  0.692051  0.497851  0.456142  1
  Si  Si557  1  0.896714  0.498707  0.413299  1
  Si  Si558  1  0.895897  0.502260  0.498373  1
  Si  Si559  1  0.741709  0.856278  0.499499  1
  Si  Si560  1  0.743851  0.144190  0.412029  1
  Si  Si561  1  0.741803  0.643908  0.499433  1
  Si  Si562  1  0.741345  0.357676  0.412369  1
  Si  Si563  1  0.606364  0.359158  0.471683  1
  Si  Si564  1  0.606286  0.640867  0.439785  1
  Si  Si565  1  0.606113  0.140941  0.471786  1
  Si  Si566  1  0.606685  0.859283  0.439870  1
  Si  Si567  1  0.745027  0.500167  0.480456  1
  Si  Si568  1  0.743654  0.498834  0.430860  1
  Si  Si569  1  0.745379  0.000000  0.480592  1
  Si  Si570  1  0.746199  0.998645  0.430761  1
  Si  Si571  1  0.891512  0.995528  0.498055  1
  Si  Si572  1  -0.000000  0.856156  0.400421  1
  Si  Si573  1  0.998379  0.643890  0.400494  1
  Si  Si574  1  0.502103  0.142885  0.353591  1
  Si  Si575  1  0.759185  0.643840  0.342033  1
  Si  Si576  1  0.759051  0.856342  0.341971  1
  Si  Si577  1  0.893061  0.140727  0.314345  1
  Si  Si578  1  0.892324  0.360460  0.314278  1
  Si  Si579  1  0.756809  0.002260  0.323072  1
  Si  Si580  1  0.756757  0.497384  0.323217  1
  Si  Si581  1  0.603638  0.502542  0.340860  1
  Si  Si582  1  0.603422  0.997400  0.340706  1
  Si  Si583  1  0.892823  0.750446  0.355853  1
  Si  Si584  1  0.603765  0.250485  0.397915  1
  Si  Si585  1  0.502174  0.356418  0.353591  1
  Si  Si586  1  0.502563  0.249771  0.375999  1
  Si  Si587  1  0.809392  0.497695  0.298307  1
  Si  Si588  1  0.000000  0.358330  0.511068  1
  Si  Si589  1  0.103709  0.248934  0.555337  1
  Si  Si590  1  0.396960  0.748261  0.513337  1
  Si  Si591  1  0.398108  0.495273  0.571454  1
  Si  Si592  1  0.242048  0.142392  0.569718  1
  Si  Si593  1  0.240532  0.355598  0.569839  1
  Si  Si594  1  0.106361  0.639591  0.597185  1
  Si  Si595  1  0.105650  0.857816  0.597318  1
  Si  Si596  1  0.246628  0.497843  0.588090  1
  Si  Si597  1  0.243663  0.000000  0.588842  1
  Si  Si598  1  0.394408  0.005347  0.571042  1
  Si  Si599  1  0.191722  0.000000  0.613160  1
  Si  Si600  1  0.189940  0.500867  0.613100  1
  Si  Si601  1  0.000000  0.143580  0.511062  1
  Si  Si602  1  0.499940  0.752935  0.536033  1
  Si  Si603  1  0.259557  0.355994  0.411946  1
  Si  Si604  1  0.259438  0.644876  0.499633  1
  Si  Si605  1  0.259210  0.143777  0.411943  1
  Si  Si606  1  0.255840  0.859581  0.499286  1
  Si  Si607  1  0.393647  0.859222  0.439712  1
  Si  Si608  1  0.392990  0.140799  0.471625  1
  Si  Si609  1  0.393174  0.640925  0.439931  1
  Si  Si610  1  0.392798  0.359704  0.471967  1
  Si  Si611  1  0.253918  -0.000000  0.430848  1
  Si  Si612  1  0.255153  0.000000  0.480733  1
  Si  Si613  1  0.254177  0.501144  0.430780  1
  Si  Si614  1  0.257442  0.498390  0.480728  1
  Si  Si615  1  0.105524  0.497454  0.413649  1
  Si  Si616  1  0.104489  0.502790  0.498406  1
  Si  Si617  1  0.104661  0.002833  0.413738  1
  Si  Si618  1  0.103242  0.996400  0.498623  1
  Si  Si619  1  0.308876  0.002585  0.455827  1
  Si  Si620  1  0.308817  0.502482  0.455672  1
  Si  Si621  1  0.393243  0.249690  0.398168  1
  Si  Si622  1  0.242904  0.856368  0.341862  1
  Si  Si623  1  0.241782  0.641050  0.341640  1
  Si  Si624  1  0.106929  0.360081  0.314521  1
  Si  Si625  1  0.106803  0.141210  0.314400  1
  Si  Si626  1  0.240240  0.499845  0.323222  1
  Si  Si627  1  0.242215  0.002478  0.322999  1
  Si  Si628  1  0.394453  0.994819  0.340694  1
  Si  Si629  1  0.394970  0.504983  0.340818  1
  Si  Si630  1  0.103425  0.750226  0.356128  1
  Si  Si631  1  0.002165  0.750407  0.378063  1
  Si  Si632  1  0.600130  0.749085  0.828493  1
  Si  Si633  1  -0.000000  0.249576  0.848896  1
  Si  Si634  1  0.893687  0.005146  0.728683  1
  Si  Si635  1  0.690734  0.997765  0.770797  1
  Si  Si636  1  0.692051  0.497851  0.771307  1
  Si  Si637  1  0.896714  0.498707  0.728465  1
  Si  Si638  1  0.895897  0.502260  0.813538  1
  Si  Si639  1  0.741709  0.856278  0.814664  1
  Si  Si640  1  0.743851  0.144190  0.727194  1
  Si  Si641  1  0.741803  0.643908  0.814599  1
  Si  Si642  1  0.741345  0.357676  0.727534  1
  Si  Si643  1  0.606364  0.359158  0.786849  1
  Si  Si644  1  0.606286  0.640867  0.754950  1
  Si  Si645  1  0.606113  0.140941  0.786952  1
  Si  Si646  1  0.606685  0.859283  0.755035  1
  Si  Si647  1  0.745027  0.500167  0.795621  1
  Si  Si648  1  0.743654  0.498834  0.746025  1
  Si  Si649  1  0.745379  0.000000  0.795758  1
  Si  Si650  1  0.746199  0.998645  0.745926  1
  Si  Si651  1  0.891512  0.995528  0.813220  1
  Si  Si652  1  0.000000  0.856156  0.715587  1
  Si  Si653  1  0.998379  0.643890  0.715659  1
  Si  Si654  1  0.502103  0.142885  0.668757  1
  Si  Si655  1  0.759185  0.643840  0.657198  1
  Si  Si656  1  0.759051  0.856342  0.657137  1
  Si  Si657  1  0.893061  0.140727  0.629510  1
  Si  Si658  1  0.892324  0.360460  0.629443  1
  Si  Si659  1  0.756809  0.002260  0.638237  1
  Si  Si660  1  0.756757  0.497384  0.638383  1
  Si  Si661  1  0.603638  0.502542  0.656025  1
  Si  Si662  1  0.603422  0.997400  0.655872  1
  Si  Si663  1  0.892823  0.750446  0.671019  1
  Si  Si664  1  0.603765  0.250485  0.713081  1
  Si  Si665  1  0.502174  0.356418  0.668756  1
  Si  Si666  1  0.502563  0.249771  0.691164  1
  Si  Si667  1  0.809392  0.497695  0.613473  1
  Si  Si668  1  0.000000  0.358330  0.826233  1
  Si  Si669  1  0.396960  0.748261  0.828502  1
  Si  Si670  1  0.000000  0.143580  0.826227  1
  Si  Si671  1  0.499940  0.752935  0.851198  1
  Si  Si672  1  0.259557  0.355994  0.727111  1
  Si  Si673  1  0.259438  0.644876  0.814798  1
  Si  Si674  1  0.259210  0.143777  0.727108  1
  Si  Si675  1  0.255840  0.859581  0.814451  1
  Si  Si676  1  0.393647  0.859222  0.754877  1
  Si  Si677  1  0.392990  0.140799  0.786791  1
  Si  Si678  1  0.393174  0.640925  0.755096  1
  Si  Si679  1  0.392798  0.359704  0.787133  1
  Si  Si680  1  0.253918  0.000000  0.746013  1
  Si  Si681  1  0.255153  0.000000  0.795899  1
  Si  Si682  1  0.254177  0.501144  0.745945  1
  Si  Si683  1  0.257442  0.498390  0.795893  1
  Si  Si684  1  0.105524  0.497454  0.728814  1
  Si  Si685  1  0.104489  0.502790  0.813571  1
  Si  Si686  1  0.104661  0.002833  0.728903  1
  Si  Si687  1  0.103242  0.996400  0.813789  1
  Si  Si688  1  0.308876  0.002585  0.770993  1
  Si  Si689  1  0.308817  0.502482  0.770837  1
  Si  Si690  1  0.393243  0.249690  0.713333  1
  Si  Si691  1  0.242904  0.856368  0.657027  1
  Si  Si692  1  0.241782  0.641050  0.656805  1
  Si  Si693  1  0.106929  0.360081  0.629687  1
  Si  Si694  1  0.106803  0.141210  0.629566  1
  Si  Si695  1  0.240240  0.499845  0.638387  1
  Si  Si696  1  0.242215  0.002478  0.638165  1
  Si  Si697  1  0.394453  0.994819  0.655859  1
  Si  Si698  1  0.394970  0.504983  0.655983  1
  Si  Si699  1  0.103425  0.750226  0.671293  1
  Si  Si700  1  0.002165  0.750407  0.693229  1
  H  H701  1  0.501656  0.337576  0.044108  1
  H  H702  1  0.502160  0.161867  0.044112  1
  H  H703  1  0.914479  0.750666  0.046383  1
  H  H704  1  0.088580  0.749813  0.046515  1
  H  H705  1  0.500420  0.663924  0.867676  1
  H  H706  1  0.910927  0.249755  0.864993  1
  H  H707  1  0.500310  0.842061  0.867336  1
  H  H708  1  0.087413  0.249027  0.865019  1
