# generated using pymatgen
data_Si14H2O29
_symmetry_space_group_name_H-M   'P 1'
_cell_length_a   12.70191421
_cell_length_b   13.04642943
_cell_length_c   42.07701492
_cell_angle_alpha   90.00000000
_cell_angle_beta   90.00000000
_cell_angle_gamma   90.00000000
_symmetry_Int_Tables_number   1
_chemical_formula_structural   Si14H2O29
_chemical_formula_sum   'Si56 H8 O116'
_cell_volume   6972.77684776
_cell_formula_units_Z   4
loop_
 _symmetry_equiv_pos_site_id
 _symmetry_equiv_pos_as_xyz
  1  'x, y, z'
loop_
 _atom_site_type_symbol
 _atom_site_label
 _atom_site_symmetry_multiplicity
 _atom_site_fract_x
 _atom_site_fract_y
 _atom_site_fract_z
 _atom_site_occupancy
  O  O1  1  0.176822  0.192371  0.140219  1
  O  O2  1  0.298066  0.307669  0.176825  1
  O  O3  1  0.170684  0.169037  0.199866  1
  O  O4  1  0.100477  0.331040  0.178658  1
  O  O5  1  0.357860  0.500012  0.186883  1
  O  O6  1  0.499835  0.638009  0.187030  1
  O  O7  1  0.499887  0.362060  0.187034  1
  O  O8  1  0.298012  0.692349  0.176820  1
  O  O9  1  0.176792  0.807699  0.140222  1
  O  O10  1  0.170694  0.831027  0.199870  1
  O  O11  1  0.100417  0.669057  0.178661  1
  O  O12  1  0.822949  0.192397  0.140219  1
  O  O13  1  0.701710  0.307729  0.176821  1
  O  O14  1  0.829029  0.169058  0.199867  1
  O  O15  1  0.899305  0.331035  0.178661  1
  O  O16  1  0.641861  0.500058  0.186885  1
  O  O17  1  0.000000  0.500046  0.186690  1
  O  O18  1  0.701655  0.692394  0.176819  1
  O  O19  1  0.822913  0.807727  0.140222  1
  O  O20  1  0.828995  0.831034  0.199871  1
  O  O21  1  0.899246  0.669051  0.178658  1
  O  O22  1  0.100470  0.331040  0.281805  1
  O  O23  1  0.142998  0.138006  0.381167  1
  O  O24  1  0.176822  0.192371  0.442093  1
  O  O25  1  0.176812  0.192363  0.320242  1
  O  O26  1  0.298061  0.307684  0.283645  1
  O  O27  1  0.298066  0.307669  0.478699  1
  O  O28  1  0.144083  0.000000  0.230233  1
  O  O29  1  0.170684  0.169037  0.501740  1
  O  O30  1  0.170704  0.169049  0.260594  1
  O  O31  1  0.100477  0.331040  0.480532  1
  O  O32  1  0.143471  -0.000000  0.338303  1
  O  O33  1  0.143478  0.000000  0.424034  1
  O  O34  1  0.362393  0.369414  0.230235  1
  O  O35  1  0.362338  0.630625  0.230231  1
  O  O36  1  0.357857  0.500025  0.273584  1
  O  O37  1  0.357860  0.500012  0.488756  1
  O  O38  1  0.499830  0.638025  0.273434  1
  O  O39  1  0.499884  0.362074  0.273438  1
  O  O40  1  0.499835  0.638009  0.488904  1
  O  O41  1  0.499887  0.362060  0.488908  1
  O  O42  1  0.142970  0.862054  0.381170  1
  O  O43  1  0.298002  0.692358  0.283642  1
  O  O44  1  0.298012  0.692349  0.478693  1
  O  O45  1  0.176792  0.807699  0.442095  1
  O  O46  1  0.176777  0.807686  0.320244  1
  O  O47  1  0.170694  0.831027  0.501744  1
  O  O48  1  0.170673  0.831029  0.260597  1
  O  O49  1  0.100406  0.669049  0.281802  1
  O  O50  1  0.100417  0.669057  0.480535  1
  O  O51  1  0.899301  0.331026  0.281801  1
  O  O52  1  0.856770  0.138029  0.381169  1
  O  O53  1  0.822944  0.192386  0.320244  1
  O  O54  1  0.822949  0.192397  0.442093  1
  O  O55  1  0.701710  0.307729  0.478695  1
  O  O56  1  0.701708  0.307740  0.283650  1
  O  O57  1  0.856261  0.000000  0.338304  1
  O  O58  1  0.829005  0.169060  0.260595  1
  O  O59  1  0.829029  0.169058  0.501741  1
  O  O60  1  0.855609  0.000000  0.230231  1
  O  O61  1  0.000000  0.130657  0.422674  1
  O  O62  1  0.899305  0.331035  0.480535  1
  O  O63  1  0.000000  0.130645  0.339662  1
  O  O64  1  -0.000000  0.130802  0.230237  1
  O  O65  1  0.856272  -0.000000  0.424037  1
  O  O66  1  0.637382  0.369453  0.230236  1
  O  O67  1  0.637328  0.630677  0.230233  1
  O  O68  1  0.641861  0.500058  0.488759  1
  O  O69  1  0.641857  0.500073  0.273584  1
  O  O70  1  0.000000  0.630803  0.230231  1
  O  O71  1  -0.000000  0.500041  0.273772  1
  O  O72  1  0.000000  0.500046  0.488564  1
  O  O73  1  -0.000000  0.369284  0.230231  1
  O  O74  1  0.000000  0.869430  0.339666  1
  O  O75  1  0.899236  0.669047  0.281804  1
  O  O76  1  0.856743  0.862081  0.381172  1
  O  O77  1  0.701655  0.692394  0.478692  1
  O  O78  1  0.701649  0.692415  0.283645  1
  O  O79  1  0.822913  0.807713  0.320248  1
  O  O80  1  0.822913  0.807727  0.442096  1
  O  O81  1  0.000000  0.869284  0.230229  1
  O  O82  1  0.829014  0.831051  0.260600  1
  O  O83  1  0.828995  0.831034  0.501745  1
  O  O84  1  0.899246  0.669051  0.480532  1
  O  O85  1  0.000000  0.869437  0.422677  1
  O  O86  1  0.100470  0.331040  0.583678  1
  O  O87  1  0.176812  0.192363  0.622115  1
  O  O88  1  0.298061  0.307684  0.585519  1
  O  O89  1  0.144083  0.000000  0.532107  1
  O  O90  1  0.170704  0.169049  0.562468  1
  O  O91  1  0.362393  0.369414  0.532109  1
  O  O92  1  0.362338  0.630625  0.532105  1
  O  O93  1  0.357857  0.500025  0.575458  1
  O  O94  1  0.499830  0.638025  0.575308  1
  O  O95  1  0.499884  0.362074  0.575312  1
  O  O96  1  0.298002  0.692358  0.585516  1
  O  O97  1  0.176777  0.807686  0.622118  1
  O  O98  1  0.170673  0.831029  0.562471  1
  O  O99  1  0.100406  0.669049  0.583676  1
  O  O100  1  0.899301  0.331026  0.583675  1
  O  O101  1  0.822944  0.192386  0.622118  1
  O  O102  1  0.701708  0.307740  0.585524  1
  O  O103  1  0.829005  0.169060  0.562469  1
  O  O104  1  0.855609  0.000000  0.532105  1
  O  O105  1  -0.000000  0.130802  0.532110  1
  O  O106  1  0.637382  0.369453  0.532110  1
  O  O107  1  0.637328  0.630677  0.532106  1
  O  O108  1  0.641857  0.500073  0.575458  1
  O  O109  1  -0.000000  0.630803  0.532105  1
  O  O110  1  -0.000000  0.500041  0.575646  1
  O  O111  1  -0.000000  0.369284  0.532105  1
  O  O112  1  0.899236  0.669047  0.583678  1
  O  O113  1  0.701649  0.692415  0.585519  1
  O  O114  1  0.822913  0.807713  0.622121  1
  O  O115  1  0.000000  0.869284  0.532102  1
  O  O116  1  0.829014  0.831051  0.562474  1
  Si  Si117  1  0.189723  0.250029  0.172923  1
  Si  Si118  1  0.378834  0.382097  0.193485  1
  Si  Si119  1  0.378789  0.617936  0.193482  1
  Si  Si120  1  0.189690  0.750033  0.172925  1
  Si  Si121  1  0.810036  0.250056  0.172923  1
  Si  Si122  1  0.000000  0.382112  0.193154  1
  Si  Si123  1  0.620888  0.617975  0.193483  1
  Si  Si124  1  0.620932  0.382135  0.193486  1
  Si  Si125  1  0.000000  0.617980  0.193154  1
  Si  Si126  1  0.809993  0.750053  0.172923  1
  Si  Si127  1  0.122673  0.117972  0.230232  1
  Si  Si128  1  0.189723  0.250029  0.474797  1
  Si  Si129  1  0.121624  0.117956  0.417709  1
  Si  Si130  1  0.121617  0.117948  0.344626  1
  Si  Si131  1  0.189720  0.250033  0.287540  1
  Si  Si132  1  0.378832  0.382109  0.266985  1
  Si  Si133  1  0.378834  0.382097  0.495359  1
  Si  Si134  1  0.378785  0.617947  0.266982  1
  Si  Si135  1  0.378789  0.617936  0.495356  1
  Si  Si136  1  0.122664  0.882105  0.230232  1
  Si  Si137  1  0.121600  0.882117  0.417711  1
  Si  Si138  1  0.121594  0.882109  0.344629  1
  Si  Si139  1  0.189690  0.750033  0.474798  1
  Si  Si140  1  0.189675  0.750029  0.287540  1
  Si  Si141  1  0.877030  0.117981  0.230233  1
  Si  Si142  1  0.878139  0.117967  0.344627  1
  Si  Si143  1  0.878145  0.117977  0.417710  1
  Si  Si144  1  0.810036  0.250056  0.474797  1
  Si  Si145  1  0.810029  0.250052  0.287542  1
  Si  Si146  1  0.000000  0.382112  0.495028  1
  Si  Si147  1  0.620883  0.617988  0.266982  1
  Si  Si148  1  0.620888  0.617975  0.495357  1
  Si  Si149  1  0.620932  0.382135  0.495360  1
  Si  Si150  1  0.000000  0.382108  0.267308  1
  Si  Si151  1  0.000000  0.617980  0.495028  1
  Si  Si152  1  0.620930  0.382148  0.266986  1
  Si  Si153  1  0.000000  0.617975  0.267308  1
  Si  Si154  1  0.877021  0.882114  0.230233  1
  Si  Si155  1  0.878115  0.882129  0.344630  1
  Si  Si156  1  0.878122  0.882137  0.417713  1
  Si  Si157  1  0.809993  0.750058  0.287544  1
  Si  Si158  1  0.809993  0.750053  0.474797  1
  Si  Si159  1  0.122673  0.117972  0.532106  1
  Si  Si160  1  0.189720  0.250033  0.589414  1
  Si  Si161  1  0.378832  0.382109  0.568859  1
  Si  Si162  1  0.378785  0.617947  0.568855  1
  Si  Si163  1  0.122664  0.882105  0.532105  1
  Si  Si164  1  0.189675  0.750029  0.589414  1
  Si  Si165  1  0.877030  0.117981  0.532106  1
  Si  Si166  1  0.810029  0.250052  0.589416  1
  Si  Si167  1  0.620883  0.617988  0.568856  1
  Si  Si168  1  0.000000  0.382108  0.569181  1
  Si  Si169  1  0.620930  0.382148  0.568859  1
  Si  Si170  1  0.000000  0.617975  0.569181  1
  Si  Si171  1  0.877021  0.882114  0.532106  1
  Si  Si172  1  0.809993  0.750058  0.589417  1
  H  H173  1  0.176822  0.192371  0.118830  1
  H  H174  1  0.176792  0.807699  0.118832  1
  H  H175  1  0.822949  0.192397  0.118830  1
  H  H176  1  0.822913  0.807727  0.118833  1
  H  H177  1  0.176812  0.192363  0.643505  1
  H  H178  1  0.176777  0.807686  0.643507  1
  H  H179  1  0.822944  0.192386  0.643507  1
  H  H180  1  0.822913  0.807713  0.643511  1
