# generated using pymatgen
data_Si10H2O21
_symmetry_space_group_name_H-M   'P 1'
_cell_length_a   12.70191421
_cell_length_b   13.04642943
_cell_length_c   39.62921060
_cell_angle_alpha   90.00000000
_cell_angle_beta   90.00000000
_cell_angle_gamma   90.00000000
_symmetry_Int_Tables_number   1
_chemical_formula_structural   Si10H2O21
_chemical_formula_sum   'Si40 H8 O84'
_cell_volume   6567.13986787
_cell_formula_units_Z   4
loop_
 _symmetry_equiv_pos_site_id
 _symmetry_equiv_pos_as_xyz
  1  'x, y, z'
loop_
 _atom_site_type_symbol
 _atom_site_label
 _atom_site_symmetry_multiplicity
 _atom_site_fract_x
 _atom_site_fract_y
 _atom_site_fract_z
 _atom_site_occupancy
  O  O1  1  0.142998  0.138006  0.213568  1
  O  O2  1  0.176822  0.192371  0.278258  1
  O  O3  1  0.176812  0.192363  0.148880  1
  O  O4  1  0.298066  0.307669  0.317125  1
  O  O5  1  0.170684  0.169037  0.341589  1
  O  O6  1  0.100477  0.331040  0.319071  1
  O  O7  1  0.143471  -0.000000  0.168056  1
  O  O8  1  0.143478  0.000000  0.259083  1
  O  O9  1  0.357860  0.500012  0.327803  1
  O  O10  1  0.499835  0.638009  0.327960  1
  O  O11  1  0.499887  0.362060  0.327964  1
  O  O12  1  0.142970  0.862054  0.213572  1
  O  O13  1  0.298012  0.692349  0.317119  1
  O  O14  1  0.176792  0.807699  0.278260  1
  O  O15  1  0.176777  0.807686  0.148883  1
  O  O16  1  0.170694  0.831027  0.341593  1
  O  O17  1  0.100417  0.669057  0.319074  1
  O  O18  1  0.856770  0.138029  0.213571  1
  O  O19  1  0.822944  0.192386  0.148883  1
  O  O20  1  0.822949  0.192397  0.278258  1
  O  O21  1  0.701710  0.307729  0.317121  1
  O  O22  1  0.856261  0.000000  0.168058  1
  O  O23  1  0.829029  0.169058  0.341590  1
  O  O24  1  -0.000000  0.130657  0.257639  1
  O  O25  1  0.899305  0.331035  0.319074  1
  O  O26  1  0.000000  0.130645  0.169500  1
  O  O27  1  0.856272  -0.000000  0.259086  1
  O  O28  1  0.641861  0.500058  0.327806  1
  O  O29  1  -0.000000  0.500046  0.327599  1
  O  O30  1  -0.000000  0.869430  0.169504  1
  O  O31  1  0.856743  0.862081  0.213574  1
  O  O32  1  0.701655  0.692394  0.317118  1
  O  O33  1  0.822913  0.807713  0.148886  1
  O  O34  1  0.822913  0.807727  0.278261  1
  O  O35  1  0.828995  0.831034  0.341594  1
  O  O36  1  0.899246  0.669051  0.319071  1
  O  O37  1  0.000000  0.869437  0.257643  1
  O  O38  1  0.100470  0.331040  0.428589  1
  O  O39  1  0.142998  0.138006  0.534088  1
  O  O40  1  0.176822  0.192371  0.598777  1
  O  O41  1  0.176812  0.192363  0.469400  1
  O  O42  1  0.298061  0.307684  0.430543  1
  O  O43  1  0.144083  -0.000000  0.373831  1
  O  O44  1  0.170704  0.169049  0.406068  1
  O  O45  1  0.143471  0.000000  0.488576  1
  O  O46  1  0.143478  0.000000  0.579603  1
  O  O47  1  0.362393  0.369414  0.373834  1
  O  O48  1  0.362338  0.630625  0.373830  1
  O  O49  1  0.357857  0.500025  0.419860  1
  O  O50  1  0.499830  0.638025  0.419701  1
  O  O51  1  0.499884  0.362074  0.419705  1
  O  O52  1  0.142970  0.862054  0.534092  1
  O  O53  1  0.298002  0.692358  0.430540  1
  O  O54  1  0.176792  0.807699  0.598780  1
  O  O55  1  0.176777  0.807686  0.469402  1
  O  O56  1  0.170673  0.831029  0.406071  1
  O  O57  1  0.100406  0.669049  0.428586  1
  O  O58  1  0.899301  0.331026  0.428585  1
  O  O59  1  0.856770  0.138029  0.534090  1
  O  O60  1  0.822944  0.192386  0.469402  1
  O  O61  1  0.822949  0.192397  0.598778  1
  O  O62  1  0.701708  0.307740  0.430548  1
  O  O63  1  0.856261  -0.000000  0.488578  1
  O  O64  1  0.829005  0.169060  0.406069  1
  O  O65  1  0.855609  -0.000000  0.373829  1
  O  O66  1  -0.000000  0.130657  0.578159  1
  O  O67  1  0.000000  0.130645  0.490020  1
  O  O68  1  0.000000  0.130802  0.373835  1
  O  O69  1  0.856272  -0.000000  0.579606  1
  O  O70  1  0.637382  0.369453  0.373835  1
  O  O71  1  0.637328  0.630677  0.373831  1
  O  O72  1  0.641857  0.500073  0.419861  1
  O  O73  1  -0.000000  0.630803  0.373829  1
  O  O74  1  0.000000  0.500041  0.420060  1
  O  O75  1  -0.000000  0.369284  0.373829  1
  O  O76  1  -0.000000  0.869430  0.490024  1
  O  O77  1  0.899236  0.669047  0.428588  1
  O  O78  1  0.856743  0.862081  0.534094  1
  O  O79  1  0.701649  0.692415  0.430543  1
  O  O80  1  0.822913  0.807713  0.469406  1
  O  O81  1  0.822913  0.807727  0.598781  1
  O  O82  1  -0.000000  0.869284  0.373827  1
  O  O83  1  0.829014  0.831051  0.406074  1
  O  O84  1  -0.000000  0.869437  0.578163  1
  Si  Si85  1  0.189723  0.250029  0.312982  1
  Si  Si86  1  0.121624  0.117956  0.252367  1
  Si  Si87  1  0.121617  0.117948  0.174770  1
  Si  Si88  1  0.378834  0.382097  0.334814  1
  Si  Si89  1  0.378789  0.617936  0.334810  1
  Si  Si90  1  0.121600  0.882117  0.252370  1
  Si  Si91  1  0.121594  0.882109  0.174773  1
  Si  Si92  1  0.189690  0.750033  0.312983  1
  Si  Si93  1  0.878139  0.117967  0.174772  1
  Si  Si94  1  0.878145  0.117977  0.252369  1
  Si  Si95  1  0.810036  0.250056  0.312981  1
  Si  Si96  1  0.000000  0.382112  0.334463  1
  Si  Si97  1  0.620888  0.617975  0.334811  1
  Si  Si98  1  0.620932  0.382135  0.334815  1
  Si  Si99  1  0.000000  0.617980  0.334463  1
  Si  Si100  1  0.878115  0.882129  0.174775  1
  Si  Si101  1  0.878122  0.882137  0.252372  1
  Si  Si102  1  0.809993  0.750053  0.312981  1
  Si  Si103  1  0.122673  0.117972  0.373830  1
  Si  Si104  1  0.121624  0.117956  0.572887  1
  Si  Si105  1  0.121617  0.117948  0.495290  1
  Si  Si106  1  0.189720  0.250033  0.434679  1
  Si  Si107  1  0.378832  0.382109  0.412853  1
  Si  Si108  1  0.378785  0.617947  0.412850  1
  Si  Si109  1  0.122664  0.882105  0.373830  1
  Si  Si110  1  0.121600  0.882117  0.572890  1
  Si  Si111  1  0.121594  0.882109  0.495293  1
  Si  Si112  1  0.189675  0.750029  0.434678  1
  Si  Si113  1  0.877030  0.117981  0.373831  1
  Si  Si114  1  0.878139  0.117967  0.495292  1
  Si  Si115  1  0.878145  0.117977  0.572889  1
  Si  Si116  1  0.810029  0.250052  0.434680  1
  Si  Si117  1  0.620883  0.617988  0.412851  1
  Si  Si118  1  0.000000  0.382108  0.413196  1
  Si  Si119  1  0.620930  0.382148  0.412854  1
  Si  Si120  1  0.000000  0.617975  0.413196  1
  Si  Si121  1  0.877021  0.882114  0.373831  1
  Si  Si122  1  0.878115  0.882129  0.495295  1
  Si  Si123  1  0.878122  0.882137  0.572892  1
  Si  Si124  1  0.809993  0.750058  0.434682  1
  H  H125  1  0.176812  0.192363  0.126170  1
  H  H126  1  0.176777  0.807686  0.126172  1
  H  H127  1  0.822944  0.192386  0.126172  1
  H  H128  1  0.822913  0.807713  0.126176  1
  H  H129  1  0.176822  0.192371  0.621488  1
  H  H130  1  0.176792  0.807699  0.621491  1
  H  H131  1  0.822949  0.192397  0.621488  1
  H  H132  1  0.822913  0.807727  0.621491  1
