# generated using pymatgen
data_Si47(HO24)4
_symmetry_space_group_name_H-M   'P 1'
_cell_length_a   12.60116802
_cell_length_b   28.93711615
_cell_length_c   62.76347354
_cell_angle_alpha   115.81692622
_cell_angle_beta   90.00000000
_cell_angle_gamma   90.00000000
_symmetry_Int_Tables_number   1
_chemical_formula_structural   Si47(HO24)4
_chemical_formula_sum   'Si188 H16 O384'
_cell_volume   20601.9002748
_cell_formula_units_Z   4
loop_
 _symmetry_equiv_pos_site_id
 _symmetry_equiv_pos_as_xyz
  1  'x, y, z'
loop_
 _atom_site_type_symbol
 _atom_site_label
 _atom_site_symmetry_multiplicity
 _atom_site_fract_x
 _atom_site_fract_y
 _atom_site_fract_z
 _atom_site_occupancy
  O  O1  1  0.159301  0.599290  0.102862  1
  O  O2  1  0.509275  0.598814  0.102837  1
  O  O3  1  0.162490  0.187170  0.185200  1
  O  O4  1  0.028779  0.188065  0.215246  1
  O  O5  1  0.162961  0.187873  0.245079  1
  O  O6  1  0.491811  0.097117  0.136929  1
  O  O7  1  0.363437  0.150753  0.172597  1
  O  O8  1  0.295526  0.183668  0.214395  1
  O  O9  1  0.324170  0.246933  0.198006  1
  O  O10  1  0.490467  0.098836  0.257888  1
  O  O11  1  0.363808  0.151208  0.242960  1
  O  O12  1  0.324329  0.247835  0.256210  1
  O  O13  1  0.437166  0.331622  0.209656  1
  O  O14  1  0.334888  0.313420  0.240271  1
  O  O15  1  0.496115  0.082717  0.214699  1
  O  O16  1  0.497157  0.084993  0.174442  1
  O  O17  1  0.436937  0.332737  0.278290  1
  O  O18  1  0.185653  0.562886  0.255994  1
  O  O19  1  0.185650  0.437171  0.165449  1
  O  O20  1  0.186785  0.500027  0.210723  1
  O  O21  1  0.035930  0.346797  0.212110  1
  O  O22  1  0.160004  0.596784  0.222908  1
  O  O23  1  0.035973  0.653273  0.209328  1
  O  O24  1  0.160016  0.403269  0.198533  1
  O  O25  1  0.334371  0.561989  0.228969  1
  O  O26  1  0.334374  0.438057  0.192472  1
  O  O27  1  0.482047  0.500021  0.210718  1
  O  O28  1  0.035252  0.347152  0.282039  1
  O  O29  1  0.035271  0.652894  0.139386  1
  O  O30  1  0.159301  0.599290  0.303648  1
  O  O31  1  0.159308  0.400764  0.117794  1
  O  O32  1  0.334553  0.566391  0.283412  1
  O  O33  1  0.334552  0.433664  0.138032  1
  O  O34  1  0.189666  0.503125  0.276461  1
  O  O35  1  0.189651  0.496935  0.144983  1
  O  O36  1  0.478637  0.502208  0.276307  1
  O  O37  1  0.478627  0.497828  0.145131  1
  O  O38  1  0.162920  0.581645  0.139312  1
  O  O39  1  0.162975  0.418427  0.282138  1
  O  O40  1  0.333638  0.563427  0.156176  1
  O  O41  1  0.333654  0.436624  0.265262  1
  O  O42  1  0.163672  0.584093  0.180381  1
  O  O43  1  0.163666  0.415958  0.241063  1
  O  O44  1  0.483166  0.562171  0.255940  1
  O  O45  1  0.483172  0.437867  0.165495  1
  O  O46  1  0.234155  0.334992  0.278510  1
  O  O47  1  0.234174  0.665057  0.142927  1
  O  O48  1  0.235077  0.665951  0.211153  1
  O  O49  1  0.235033  0.334093  0.210290  1
  O  O50  1  0.162543  0.812893  0.236243  1
  O  O51  1  0.028827  0.812034  0.206214  1
  O  O52  1  0.162969  0.812151  0.176347  1
  O  O53  1  0.491734  0.902902  0.284508  1
  O  O54  1  0.363474  0.849291  0.248834  1
  O  O55  1  0.295558  0.816380  0.207040  1
  O  O56  1  0.324203  0.753113  0.223428  1
  O  O57  1  0.363753  0.848837  0.178469  1
  O  O58  1  0.490490  0.901207  0.163553  1
  O  O59  1  0.324381  0.752199  0.165222  1
  O  O60  1  0.437211  0.668430  0.211780  1
  O  O61  1  0.334906  0.686623  0.181168  1
  O  O62  1  0.496044  0.917294  0.206742  1
  O  O63  1  0.497260  0.915048  0.246995  1
  O  O64  1  0.436956  0.667288  0.143143  1
  O  O65  1  0.814137  0.062857  0.291060  1
  O  O66  1  0.837220  0.312865  0.210445  1
  O  O67  1  0.000000  0.250037  0.198056  1
  O  O68  1  0.839775  0.096795  0.136983  1
  O  O69  1  0.963791  0.153273  0.173245  1
  O  O70  1  0.970946  0.311988  0.240132  1
  O  O71  1  0.836784  0.312173  0.270046  1
  O  O72  1  0.964489  0.152884  0.243026  1
  O  O73  1  0.840430  0.099266  0.258032  1
  O  O74  1  0.665205  0.066354  0.265060  1
  O  O75  1  0.704186  0.316366  0.241046  1
  O  O76  1  0.810110  0.003089  0.246596  1
  O  O77  1  0.675518  0.253098  0.199244  1
  O  O78  1  0.521126  0.002199  0.246392  1
  O  O79  1  0.675416  0.252192  0.257083  1
  O  O80  1  0.836787  0.081606  0.214499  1
  O  O81  1  0.562584  0.168388  0.176866  1
  O  O82  1  0.666104  0.063403  0.190316  1
  O  O83  1  0.664772  0.186608  0.214799  1
  O  O84  1  0.836107  0.084087  0.174418  1
  O  O85  1  0.764714  0.165952  0.176523  1
  O  O86  1  0.562795  0.167309  0.245074  1
  O  O87  1  0.765572  0.165038  0.244372  1
  O  O88  1  0.516562  0.062160  0.290831  1
  O  O89  1  -0.000000  0.250018  0.257328  1
  O  O90  1  0.507930  0.597095  0.223100  1
  O  O91  1  0.507935  0.402951  0.198338  1
  O  O92  1  0.636302  0.349283  0.212466  1
  O  O93  1  0.636334  0.650754  0.208975  1
  O  O94  1  0.635938  0.348825  0.282645  1
  O  O95  1  0.509275  0.598814  0.303623  1
  O  O96  1  0.635948  0.651196  0.138793  1
  O  O97  1  0.509260  0.401213  0.117811  1
  O  O98  1  0.503688  0.582720  0.139568  1
  O  O99  1  0.503705  0.417302  0.281865  1
  O  O100  1  0.502531  0.584990  0.180736  1
  O  O101  1  0.502518  0.415051  0.240703  1
  O  O102  1  0.814044  0.937160  0.130349  1
  O  O103  1  0.837290  0.687181  0.210988  1
  O  O104  1  0.000000  0.750098  0.164128  1
  O  O105  1  0.963821  0.846800  0.248208  1
  O  O106  1  0.839648  0.903273  0.284445  1
  O  O107  1  0.665313  0.938100  0.304480  1
  O  O108  1  0.970985  0.688097  0.181315  1
  O  O109  1  0.836778  0.687866  0.151401  1
  O  O110  1  0.516570  0.937869  0.130587  1
  O  O111  1  0.964395  0.847091  0.178378  1
  O  O112  1  0.840434  0.900744  0.163381  1
  O  O113  1  0.665181  0.933655  0.156366  1
  O  O114  1  0.704229  0.683660  0.180395  1
  O  O115  1  0.810122  0.996912  0.174806  1
  O  O116  1  0.675587  0.746932  0.222192  1
  O  O117  1  0.521109  0.997827  0.175040  1
  O  O118  1  0.675356  0.747818  0.164347  1
  O  O119  1  0.562632  0.831642  0.244575  1
  O  O120  1  0.836835  0.918368  0.206913  1
  O  O121  1  0.664800  0.813411  0.206631  1
  O  O122  1  0.666134  0.936601  0.231091  1
  O  O123  1  0.764731  0.834081  0.244904  1
  O  O124  1  0.836101  0.915945  0.247010  1
  O  O125  1  0.562716  0.832702  0.176364  1
  O  O126  1  0.765488  0.834979  0.177037  1
  O  O127  1  0.000000  0.750044  0.223390  1
  O  O128  1  0.162490  0.187170  0.385986  1
  O  O129  1  0.028779  0.188065  0.416032  1
  O  O130  1  0.162961  0.187873  0.445865  1
  O  O131  1  0.491811  0.097117  0.337715  1
  O  O132  1  0.363437  0.150753  0.373384  1
  O  O133  1  0.295526  0.183668  0.415181  1
  O  O134  1  0.324170  0.246933  0.398792  1
  O  O135  1  0.490467  0.098836  0.458674  1
  O  O136  1  0.363808  0.151208  0.443746  1
  O  O137  1  0.324329  0.247835  0.456996  1
  O  O138  1  0.437166  0.331622  0.410442  1
  O  O139  1  0.334888  0.313420  0.441057  1
  O  O140  1  0.496115  0.082717  0.415485  1
  O  O141  1  0.497157  0.084993  0.375228  1
  O  O142  1  0.436937  0.332737  0.479076  1
  O  O143  1  0.185653  0.562886  0.456780  1
  O  O144  1  0.185650  0.437171  0.366235  1
  O  O145  1  0.186785  0.500027  0.411509  1
  O  O146  1  0.035930  0.346797  0.412896  1
  O  O147  1  0.160004  0.596784  0.423694  1
  O  O148  1  0.035973  0.653273  0.410114  1
  O  O149  1  0.160016  0.403269  0.399319  1
  O  O150  1  0.334371  0.561989  0.429755  1
  O  O151  1  0.334374  0.438057  0.393258  1
  O  O152  1  0.482047  0.500021  0.411504  1
  O  O153  1  0.035252  0.347152  0.482825  1
  O  O154  1  0.035271  0.652894  0.340172  1
  O  O155  1  0.159301  0.599290  0.504434  1
  O  O156  1  0.159308  0.400764  0.318580  1
  O  O157  1  0.334553  0.566391  0.484198  1
  O  O158  1  0.334552  0.433664  0.338818  1
  O  O159  1  0.189666  0.503125  0.477247  1
  O  O160  1  0.189651  0.496935  0.345769  1
  O  O161  1  0.478637  0.502208  0.477093  1
  O  O162  1  0.478627  0.497828  0.345917  1
  O  O163  1  0.162920  0.581645  0.340098  1
  O  O164  1  0.162975  0.418427  0.482924  1
  O  O165  1  0.333638  0.563427  0.356962  1
  O  O166  1  0.333654  0.436624  0.466048  1
  O  O167  1  0.163672  0.584093  0.381167  1
  O  O168  1  0.163666  0.415958  0.441849  1
  O  O169  1  0.483166  0.562171  0.456726  1
  O  O170  1  0.483172  0.437867  0.366281  1
  O  O171  1  0.234155  0.334992  0.479296  1
  O  O172  1  0.234174  0.665057  0.343713  1
  O  O173  1  0.235077  0.665951  0.411939  1
  O  O174  1  0.235033  0.334093  0.411076  1
  O  O175  1  0.162543  0.812893  0.437029  1
  O  O176  1  0.028827  0.812034  0.407000  1
  O  O177  1  0.162969  0.812151  0.377133  1
  O  O178  1  0.491734  0.902902  0.485294  1
  O  O179  1  0.363474  0.849291  0.449620  1
  O  O180  1  0.295558  0.816380  0.407826  1
  O  O181  1  0.324203  0.753113  0.424214  1
  O  O182  1  0.363753  0.848837  0.379255  1
  O  O183  1  0.490490  0.901207  0.364339  1
  O  O184  1  0.324381  0.752199  0.366008  1
  O  O185  1  0.437211  0.668430  0.412566  1
  O  O186  1  0.334906  0.686623  0.381954  1
  O  O187  1  0.496044  0.917294  0.407528  1
  O  O188  1  0.497260  0.915048  0.447781  1
  O  O189  1  0.436956  0.667288  0.343929  1
  O  O190  1  0.814137  0.062857  0.491846  1
  O  O191  1  0.837220  0.312865  0.411231  1
  O  O192  1  0.000000  0.250037  0.398842  1
  O  O193  1  0.839775  0.096795  0.337770  1
  O  O194  1  0.963791  0.153273  0.374031  1
  O  O195  1  0.665421  0.062042  0.317748  1
  O  O196  1  0.970946  0.311988  0.440919  1
  O  O197  1  0.836784  0.312173  0.470832  1
  O  O198  1  0.964489  0.152884  0.443812  1
  O  O199  1  0.840430  0.099266  0.458818  1
  O  O200  1  0.665205  0.066354  0.465846  1
  O  O201  1  0.704186  0.316366  0.441832  1
  O  O202  1  0.810110  0.003089  0.447382  1
  O  O203  1  0.675518  0.253098  0.400030  1
  O  O204  1  0.521126  0.002199  0.447178  1
  O  O205  1  0.675416  0.252192  0.457869  1
  O  O206  1  0.836787  0.081606  0.415285  1
  O  O207  1  0.562584  0.168388  0.377652  1
  O  O208  1  0.666104  0.063403  0.391102  1
  O  O209  1  0.664772  0.186608  0.415585  1
  O  O210  1  0.836107  0.084087  0.375204  1
  O  O211  1  0.764714  0.165952  0.377309  1
  O  O212  1  0.562795  0.167309  0.445860  1
  O  O213  1  0.765572  0.165038  0.445159  1
  O  O214  1  0.516562  0.062160  0.491617  1
  O  O215  1  0.000000  0.250018  0.458114  1
  O  O216  1  0.812976  -0.000000  0.311116  1
  O  O217  1  0.517752  0.000000  0.311148  1
  O  O218  1  0.507930  0.597095  0.423886  1
  O  O219  1  0.507935  0.402951  0.399124  1
  O  O220  1  0.636302  0.349283  0.413252  1
  O  O221  1  0.636334  0.650754  0.409761  1
  O  O222  1  0.635938  0.348825  0.483431  1
  O  O223  1  0.509275  0.598814  0.504409  1
  O  O224  1  0.635948  0.651196  0.339579  1
  O  O225  1  0.509260  0.401213  0.318597  1
  O  O226  1  0.503688  0.582720  0.340354  1
  O  O227  1  0.503705  0.417302  0.482651  1
  O  O228  1  0.502531  0.584990  0.381522  1
  O  O229  1  0.502518  0.415051  0.441489  1
  O  O230  1  0.814044  0.937160  0.331135  1
  O  O231  1  0.837290  0.687181  0.411774  1
  O  O232  1  0.000000  0.750098  0.364914  1
  O  O233  1  0.963821  0.846800  0.448994  1
  O  O234  1  0.839648  0.903273  0.485231  1
  O  O235  1  0.665313  0.938100  0.505266  1
  O  O236  1  0.970985  0.688097  0.382101  1
  O  O237  1  0.836778  0.687866  0.352187  1
  O  O238  1  0.516570  0.937869  0.331373  1
  O  O239  1  0.964395  0.847091  0.379164  1
  O  O240  1  0.840434  0.900744  0.364167  1
  O  O241  1  0.665181  0.933655  0.357152  1
  O  O242  1  0.704229  0.683660  0.381181  1
  O  O243  1  0.810122  0.996912  0.375592  1
  O  O244  1  0.675587  0.746932  0.422978  1
  O  O245  1  0.521109  0.997827  0.375826  1
  O  O246  1  0.675356  0.747818  0.365133  1
  O  O247  1  0.562632  0.831642  0.445361  1
  O  O248  1  0.836835  0.918368  0.407699  1
  O  O249  1  0.664800  0.813411  0.407417  1
  O  O250  1  0.666134  0.936601  0.431877  1
  O  O251  1  0.764731  0.834081  0.445690  1
  O  O252  1  0.836101  0.915945  0.447796  1
  O  O253  1  0.562716  0.832702  0.377150  1
  O  O254  1  0.765488  0.834979  0.377823  1
  O  O255  1  0.000000  0.750044  0.424176  1
  O  O256  1  0.162490  0.187170  0.586772  1
  O  O257  1  0.028779  0.188065  0.616818  1
  O  O258  1  0.162961  0.187873  0.646651  1
  O  O259  1  0.491811  0.097117  0.538501  1
  O  O260  1  0.363437  0.150753  0.574170  1
  O  O261  1  0.295526  0.183668  0.615967  1
  O  O262  1  0.324170  0.246933  0.599578  1
  O  O263  1  0.490467  0.098836  0.659460  1
  O  O264  1  0.363808  0.151208  0.644532  1
  O  O265  1  0.324329  0.247835  0.657782  1
  O  O266  1  0.437166  0.331622  0.611228  1
  O  O267  1  0.334888  0.313420  0.641843  1
  O  O268  1  0.496115  0.082717  0.616271  1
  O  O269  1  0.497157  0.084993  0.576014  1
  O  O270  1  0.436937  0.332737  0.679862  1
  O  O271  1  0.185653  0.562886  0.657566  1
  O  O272  1  0.185650  0.437171  0.567021  1
  O  O273  1  0.186785  0.500027  0.612295  1
  O  O274  1  0.035930  0.346797  0.613682  1
  O  O275  1  0.160004  0.596784  0.624480  1
  O  O276  1  0.035973  0.653273  0.610900  1
  O  O277  1  0.160016  0.403269  0.600105  1
  O  O278  1  0.334371  0.561989  0.630541  1
  O  O279  1  0.334374  0.438057  0.594044  1
  O  O280  1  0.482047  0.500021  0.612290  1
  O  O281  1  0.035252  0.347152  0.683611  1
  O  O282  1  0.035271  0.652894  0.540958  1
  O  O283  1  0.159301  0.599290  0.705220  1
  O  O284  1  0.159308  0.400764  0.519366  1
  O  O285  1  0.334553  0.566391  0.684984  1
  O  O286  1  0.334552  0.433664  0.539604  1
  O  O287  1  0.189666  0.503125  0.678033  1
  O  O288  1  0.189651  0.496935  0.546555  1
  O  O289  1  0.478637  0.502208  0.677879  1
  O  O290  1  0.478627  0.497828  0.546703  1
  O  O291  1  0.162920  0.581645  0.540884  1
  O  O292  1  0.162975  0.418427  0.683710  1
  O  O293  1  0.333638  0.563427  0.557748  1
  O  O294  1  0.333654  0.436624  0.666835  1
  O  O295  1  0.163672  0.584093  0.581953  1
  O  O296  1  0.163666  0.415958  0.642635  1
  O  O297  1  0.483166  0.562171  0.657512  1
  O  O298  1  0.483172  0.437867  0.567067  1
  O  O299  1  0.234155  0.334992  0.680082  1
  O  O300  1  0.234174  0.665057  0.544499  1
  O  O301  1  0.235077  0.665951  0.612725  1
  O  O302  1  0.235033  0.334093  0.611862  1
  O  O303  1  0.162543  0.812893  0.637815  1
  O  O304  1  0.028827  0.812034  0.607786  1
  O  O305  1  0.162969  0.812151  0.577919  1
  O  O306  1  0.491734  0.902902  0.686080  1
  O  O307  1  0.363474  0.849291  0.650406  1
  O  O308  1  0.295558  0.816380  0.608612  1
  O  O309  1  0.324203  0.753113  0.625000  1
  O  O310  1  0.363753  0.848837  0.580041  1
  O  O311  1  0.490490  0.901207  0.565125  1
  O  O312  1  0.324381  0.752199  0.566794  1
  O  O313  1  0.437211  0.668430  0.613352  1
  O  O314  1  0.334906  0.686623  0.582740  1
  O  O315  1  0.496044  0.917294  0.608314  1
  O  O316  1  0.497260  0.915048  0.648567  1
  O  O317  1  0.436956  0.667288  0.544715  1
  O  O318  1  0.814137  0.062857  0.692633  1
  O  O319  1  0.837220  0.312865  0.612017  1
  O  O320  1  0.000000  0.250037  0.599628  1
  O  O321  1  0.839775  0.096795  0.538556  1
  O  O322  1  0.963791  0.153273  0.574817  1
  O  O323  1  0.665421  0.062042  0.518534  1
  O  O324  1  0.970946  0.311988  0.641705  1
  O  O325  1  0.836784  0.312173  0.671618  1
  O  O326  1  0.964489  0.152884  0.644598  1
  O  O327  1  0.840430  0.099266  0.659604  1
  O  O328  1  0.665205  0.066354  0.666633  1
  O  O329  1  0.704186  0.316366  0.642618  1
  O  O330  1  0.810110  0.003089  0.648168  1
  O  O331  1  0.675518  0.253098  0.600816  1
  O  O332  1  0.521126  0.002199  0.647964  1
  O  O333  1  0.675416  0.252192  0.658655  1
  O  O334  1  0.836787  0.081606  0.616071  1
  O  O335  1  0.562584  0.168388  0.578438  1
  O  O336  1  0.666104  0.063403  0.591888  1
  O  O337  1  0.664772  0.186608  0.616371  1
  O  O338  1  0.836107  0.084087  0.575990  1
  O  O339  1  0.764714  0.165952  0.578096  1
  O  O340  1  0.562795  0.167309  0.646646  1
  O  O341  1  0.765572  0.165038  0.645945  1
  O  O342  1  0.516562  0.062160  0.692403  1
  O  O343  1  -0.000000  0.250018  0.658900  1
  O  O344  1  0.812976  0.000000  0.511902  1
  O  O345  1  0.517752  -0.000000  0.511934  1
  O  O346  1  0.507930  0.597095  0.624672  1
  O  O347  1  0.507935  0.402951  0.599910  1
  O  O348  1  0.636302  0.349283  0.614038  1
  O  O349  1  0.636334  0.650754  0.610547  1
  O  O350  1  0.635938  0.348825  0.684217  1
  O  O351  1  0.509275  0.598814  0.705195  1
  O  O352  1  0.635948  0.651196  0.540365  1
  O  O353  1  0.509260  0.401213  0.519383  1
  O  O354  1  0.503688  0.582720  0.541140  1
  O  O355  1  0.503705  0.417302  0.683438  1
  O  O356  1  0.502531  0.584990  0.582308  1
  O  O357  1  0.502518  0.415051  0.642275  1
  O  O358  1  0.814044  0.937160  0.531921  1
  O  O359  1  0.837290  0.687181  0.612560  1
  O  O360  1  0.000000  0.750098  0.565700  1
  O  O361  1  0.963821  0.846800  0.649780  1
  O  O362  1  0.839648  0.903273  0.686017  1
  O  O363  1  0.970985  0.688097  0.582887  1
  O  O364  1  0.836778  0.687866  0.552973  1
  O  O365  1  0.516570  0.937869  0.532159  1
  O  O366  1  0.964395  0.847091  0.579950  1
  O  O367  1  0.840434  0.900744  0.564953  1
  O  O368  1  0.665181  0.933655  0.557938  1
  O  O369  1  0.704229  0.683660  0.581967  1
  O  O370  1  0.810122  0.996912  0.576378  1
  O  O371  1  0.675587  0.746932  0.623764  1
  O  O372  1  0.521109  0.997827  0.576613  1
  O  O373  1  0.675356  0.747818  0.565919  1
  O  O374  1  0.562632  0.831642  0.646147  1
  O  O375  1  0.836835  0.918368  0.608485  1
  O  O376  1  0.664800  0.813411  0.608203  1
  O  O377  1  0.666134  0.936601  0.632663  1
  O  O378  1  0.764731  0.834081  0.646476  1
  O  O379  1  0.836101  0.915945  0.648582  1
  O  O380  1  0.562716  0.832702  0.577936  1
  O  O381  1  0.765488  0.834979  0.578609  1
  O  O382  1  0.000000  0.750044  0.624962  1
  O  O383  1  0.159308  0.400764  0.720152  1
  O  O384  1  0.509260  0.401213  0.720169  1
  Si  Si385  1  0.475869  0.125018  0.240641  1
  Si  Si386  1  0.476425  0.125497  0.164598  1
  Si  Si387  1  0.334262  0.307082  0.263810  1
  Si  Si388  1  0.285457  0.191222  0.240536  1
  Si  Si389  1  0.334583  0.306169  0.214034  1
  Si  Si390  1  0.040595  0.194066  0.191778  1
  Si  Si391  1  0.040851  0.194071  0.241110  1
  Si  Si392  1  0.284872  0.190538  0.191118  1
  Si  Si393  1  0.211477  0.555990  0.230138  1
  Si  Si394  1  0.211483  0.444068  0.191305  1
  Si  Si395  1  0.457179  0.555943  0.230183  1
  Si  Si396  1  0.457183  0.444099  0.191253  1
  Si  Si397  1  0.211732  0.559512  0.279884  1
  Si  Si398  1  0.211731  0.440549  0.141558  1
  Si  Si399  1  0.457212  0.558809  0.279856  1
  Si  Si400  1  0.457215  0.441224  0.141578  1
  Si  Si401  1  0.210210  0.556171  0.154785  1
  Si  Si402  1  0.210230  0.443889  0.266658  1
  Si  Si403  1  0.457220  0.557073  0.155035  1
  Si  Si404  1  0.457237  0.442964  0.266406  1
  Si  Si405  1  0.144709  0.624524  0.130618  1
  Si  Si406  1  0.144722  0.375539  0.290824  1
  Si  Si407  1  0.145706  0.375033  0.214905  1
  Si  Si408  1  0.145723  0.625024  0.206538  1
  Si  Si409  1  0.475841  0.875018  0.180795  1
  Si  Si410  1  0.476469  0.874541  0.256834  1
  Si  Si411  1  0.334295  0.692952  0.157625  1
  Si  Si412  1  0.334614  0.693877  0.207405  1
  Si  Si413  1  0.284912  0.809508  0.230318  1
  Si  Si414  1  0.285461  0.808805  0.180894  1
  Si  Si415  1  0.040643  0.806016  0.229679  1
  Si  Si416  1  0.040874  0.805988  0.180341  1
  Si  Si417  1  0.959122  0.305999  0.214257  1
  Si  Si418  1  0.958888  0.305970  0.263582  1
  Si  Si419  1  0.788036  0.059473  0.265815  1
  Si  Si420  1  0.714844  0.309487  0.215009  1
  Si  Si421  1  0.542531  0.058800  0.265569  1
  Si  Si422  1  0.714287  0.308808  0.264153  1
  Si  Si423  1  0.789532  0.056147  0.188792  1
  Si  Si424  1  0.665132  0.193859  0.191473  1
  Si  Si425  1  0.542519  0.057073  0.188928  1
  Si  Si426  1  0.665461  0.192950  0.240884  1
  Si  Si427  1  0.855013  0.124498  0.240408  1
  Si  Si428  1  0.854046  0.125018  0.164696  1
  Si  Si429  1  0.523887  0.624996  0.130596  1
  Si  Si430  1  0.523876  0.375024  0.290837  1
  Si  Si431  1  0.523289  0.374530  0.214599  1
  Si  Si432  1  0.523314  0.625515  0.206840  1
  Si  Si433  1  0.788222  0.944090  0.308056  1
  Si  Si434  1  0.959176  0.694078  0.207188  1
  Si  Si435  1  0.542506  0.944137  0.308119  1
  Si  Si436  1  0.958883  0.694112  0.157861  1
  Si  Si437  1  0.787997  0.940525  0.155594  1
  Si  Si438  1  0.714904  0.690541  0.206431  1
  Si  Si439  1  0.542526  0.941224  0.155854  1
  Si  Si440  1  0.714285  0.691213  0.157287  1
  Si  Si441  1  0.665155  0.806165  0.229958  1
  Si  Si442  1  0.789565  0.943851  0.232618  1
  Si  Si443  1  0.665418  0.807063  0.180542  1
  Si  Si444  1  0.542554  0.942960  0.232501  1
  Si  Si445  1  0.854995  0.875490  0.180997  1
  Si  Si446  1  0.854030  0.875027  0.256738  1
  Si  Si447  1  0.475869  0.125018  0.441427  1
  Si  Si448  1  0.476425  0.125497  0.365384  1
  Si  Si449  1  0.334262  0.307082  0.464596  1
  Si  Si450  1  0.285457  0.191222  0.441322  1
  Si  Si451  1  0.334583  0.306169  0.414820  1
  Si  Si452  1  0.040595  0.194066  0.392564  1
  Si  Si453  1  0.040851  0.194071  0.441896  1
  Si  Si454  1  0.284872  0.190538  0.391904  1
  Si  Si455  1  0.211477  0.555990  0.430924  1
  Si  Si456  1  0.211483  0.444068  0.392091  1
  Si  Si457  1  0.457179  0.555943  0.430969  1
  Si  Si458  1  0.457183  0.444099  0.392039  1
  Si  Si459  1  0.211732  0.559512  0.480670  1
  Si  Si460  1  0.211731  0.440549  0.342344  1
  Si  Si461  1  0.457212  0.558809  0.480642  1
  Si  Si462  1  0.457215  0.441224  0.342364  1
  Si  Si463  1  0.210210  0.556171  0.355571  1
  Si  Si464  1  0.210230  0.443889  0.467444  1
  Si  Si465  1  0.457220  0.557073  0.355821  1
  Si  Si466  1  0.457237  0.442964  0.467192  1
  Si  Si467  1  0.144709  0.624524  0.331404  1
  Si  Si468  1  0.144722  0.375539  0.491610  1
  Si  Si469  1  0.145706  0.375033  0.415691  1
  Si  Si470  1  0.145723  0.625024  0.407324  1
  Si  Si471  1  0.475841  0.875018  0.381581  1
  Si  Si472  1  0.476469  0.874541  0.457620  1
  Si  Si473  1  0.334295  0.692952  0.358411  1
  Si  Si474  1  0.334614  0.693877  0.408191  1
  Si  Si475  1  0.284912  0.809508  0.431104  1
  Si  Si476  1  0.285461  0.808805  0.381680  1
  Si  Si477  1  0.040643  0.806016  0.430465  1
  Si  Si478  1  0.040874  0.805988  0.381127  1
  Si  Si479  1  0.788313  0.056007  0.314157  1
  Si  Si480  1  0.959122  0.305999  0.415043  1
  Si  Si481  1  0.542602  0.055993  0.314103  1
  Si  Si482  1  0.958888  0.305970  0.464368  1
  Si  Si483  1  0.788036  0.059473  0.466601  1
  Si  Si484  1  0.714844  0.309487  0.415795  1
  Si  Si485  1  0.542531  0.058800  0.466355  1
  Si  Si486  1  0.714287  0.308808  0.464939  1
  Si  Si487  1  0.789532  0.056147  0.389579  1
  Si  Si488  1  0.665132  0.193859  0.392259  1
  Si  Si489  1  0.542519  0.057073  0.389714  1
  Si  Si490  1  0.665461  0.192950  0.441670  1
  Si  Si491  1  0.855013  0.124498  0.441194  1
  Si  Si492  1  0.854046  0.125018  0.365482  1
  Si  Si493  1  0.523887  0.624996  0.331383  1
  Si  Si494  1  0.523876  0.375024  0.491623  1
  Si  Si495  1  0.523289  0.374530  0.415385  1
  Si  Si496  1  0.523314  0.625515  0.407626  1
  Si  Si497  1  0.788222  0.944090  0.508842  1
  Si  Si498  1  0.959176  0.694078  0.407974  1
  Si  Si499  1  0.542506  0.944137  0.508905  1
  Si  Si500  1  0.958883  0.694112  0.358647  1
  Si  Si501  1  0.787997  0.940525  0.356380  1
  Si  Si502  1  0.714904  0.690541  0.407217  1
  Si  Si503  1  0.542526  0.941224  0.356640  1
  Si  Si504  1  0.714285  0.691213  0.358073  1
  Si  Si505  1  0.665155  0.806165  0.430744  1
  Si  Si506  1  0.789565  0.943851  0.433404  1
  Si  Si507  1  0.665418  0.807063  0.381328  1
  Si  Si508  1  0.542554  0.942960  0.433287  1
  Si  Si509  1  0.854995  0.875490  0.381783  1
  Si  Si510  1  0.854030  0.875027  0.457524  1
  Si  Si511  1  0.475869  0.125018  0.642213  1
  Si  Si512  1  0.476425  0.125497  0.566170  1
  Si  Si513  1  0.334262  0.307082  0.665382  1
  Si  Si514  1  0.285457  0.191222  0.642108  1
  Si  Si515  1  0.334583  0.306169  0.615606  1
  Si  Si516  1  0.040595  0.194066  0.593350  1
  Si  Si517  1  0.040851  0.194071  0.642682  1
  Si  Si518  1  0.284872  0.190538  0.592690  1
  Si  Si519  1  0.211477  0.555990  0.631710  1
  Si  Si520  1  0.211483  0.444068  0.592877  1
  Si  Si521  1  0.457179  0.555943  0.631755  1
  Si  Si522  1  0.457183  0.444099  0.592825  1
  Si  Si523  1  0.211732  0.559512  0.681456  1
  Si  Si524  1  0.211731  0.440549  0.543130  1
  Si  Si525  1  0.457212  0.558809  0.681428  1
  Si  Si526  1  0.457215  0.441224  0.543151  1
  Si  Si527  1  0.210210  0.556171  0.556357  1
  Si  Si528  1  0.210230  0.443889  0.668230  1
  Si  Si529  1  0.457220  0.557073  0.556607  1
  Si  Si530  1  0.457237  0.442964  0.667978  1
  Si  Si531  1  0.144709  0.624524  0.532190  1
  Si  Si532  1  0.144722  0.375539  0.692396  1
  Si  Si533  1  0.145706  0.375033  0.616477  1
  Si  Si534  1  0.145723  0.625024  0.608110  1
  Si  Si535  1  0.475841  0.875018  0.582367  1
  Si  Si536  1  0.476469  0.874541  0.658406  1
  Si  Si537  1  0.334295  0.692952  0.559197  1
  Si  Si538  1  0.334614  0.693877  0.608977  1
  Si  Si539  1  0.284912  0.809508  0.631890  1
  Si  Si540  1  0.285461  0.808805  0.582466  1
  Si  Si541  1  0.040643  0.806016  0.631251  1
  Si  Si542  1  0.040874  0.805988  0.581913  1
  Si  Si543  1  0.788313  0.056007  0.514943  1
  Si  Si544  1  0.959122  0.305999  0.615829  1
  Si  Si545  1  0.542602  0.055993  0.514889  1
  Si  Si546  1  0.958888  0.305970  0.665154  1
  Si  Si547  1  0.788036  0.059473  0.667387  1
  Si  Si548  1  0.714844  0.309487  0.616581  1
  Si  Si549  1  0.542531  0.058800  0.667141  1
  Si  Si550  1  0.714287  0.308808  0.665725  1
  Si  Si551  1  0.789532  0.056147  0.590365  1
  Si  Si552  1  0.665132  0.193859  0.593045  1
  Si  Si553  1  0.542519  0.057073  0.590500  1
  Si  Si554  1  0.665461  0.192950  0.642456  1
  Si  Si555  1  0.855013  0.124498  0.641980  1
  Si  Si556  1  0.854046  0.125018  0.566268  1
  Si  Si557  1  0.523887  0.624996  0.532169  1
  Si  Si558  1  0.523876  0.375024  0.692409  1
  Si  Si559  1  0.523289  0.374530  0.616171  1
  Si  Si560  1  0.523314  0.625515  0.608412  1
  Si  Si561  1  0.959176  0.694078  0.608760  1
  Si  Si562  1  0.958883  0.694112  0.559433  1
  Si  Si563  1  0.787997  0.940525  0.557166  1
  Si  Si564  1  0.714904  0.690541  0.608003  1
  Si  Si565  1  0.542526  0.941224  0.557426  1
  Si  Si566  1  0.714285  0.691213  0.558859  1
  Si  Si567  1  0.665155  0.806165  0.631530  1
  Si  Si568  1  0.789565  0.943851  0.634190  1
  Si  Si569  1  0.665418  0.807063  0.582114  1
  Si  Si570  1  0.542554  0.942960  0.634073  1
  Si  Si571  1  0.854995  0.875490  0.582569  1
  Si  Si572  1  0.854030  0.875027  0.658310  1
  H  H573  1  0.159301  0.599290  0.088522  1
  H  H574  1  0.509275  0.598814  0.088497  1
  H  H575  1  0.491811  0.097117  0.122589  1
  H  H576  1  0.159308  0.400764  0.103455  1
  H  H577  1  0.839775  0.096795  0.122644  1
  H  H578  1  0.509260  0.401213  0.103472  1
  H  H579  1  0.814044  0.937160  0.116010  1
  H  H580  1  0.516570  0.937869  0.116247  1
  H  H581  1  0.159301  0.599290  0.719559  1
  H  H582  1  0.491734  0.902902  0.700419  1
  H  H583  1  0.814137  0.062857  0.706972  1
  H  H584  1  0.516562  0.062160  0.706743  1
  H  H585  1  0.509275  0.598814  0.719534  1
  H  H586  1  0.839648  0.903273  0.700356  1
  H  H587  1  0.159308  0.400764  0.734492  1
  H  H588  1  0.509260  0.401213  0.734509  1
