# generated using pymatgen
data_Si19H6O41
_symmetry_space_group_name_H-M   'P 1'
_cell_length_a   24.41204530
_cell_length_b   24.41160814
_cell_length_c   67.85932978
_cell_angle_alpha   45.00446172
_cell_angle_beta   90.00000000
_cell_angle_gamma   59.99544042
_symmetry_Int_Tables_number   1
_chemical_formula_structural   Si19H6O41
_chemical_formula_sum   'Si152 H48 O328'
_cell_volume   20220.3142775
_cell_formula_units_Z   8
loop_
 _symmetry_equiv_pos_site_id
 _symmetry_equiv_pos_as_xyz
  1  'x, y, z'
loop_
 _atom_site_type_symbol
 _atom_site_label
 _atom_site_symmetry_multiplicity
 _atom_site_fract_x
 _atom_site_fract_y
 _atom_site_fract_z
 _atom_site_occupancy
  O  O1  1  0.347967  0.471240  0.140875  1
  O  O2  1  0.061917  0.589529  0.141706  1
  O  O3  1  0.180993  0.258076  0.218411  1
  O  O4  1  0.431220  0.472092  0.172845  1
  O  O5  1  0.186689  0.382880  0.172805  1
  O  O6  1  0.402094  0.286412  0.189835  1
  O  O7  1  0.317325  0.245064  0.221360  1
  O  O8  1  0.438322  0.410054  0.221604  1
  O  O9  1  0.069090  0.527875  0.190558  1
  O  O10  1  0.096518  0.216193  0.207833  1
  O  O11  1  0.311074  0.120791  0.239183  1
  O  O12  1  0.272305  0.424664  0.169124  1
  O  O13  1  0.302642  0.573470  0.168107  1
  O  O14  1  0.124782  0.602196  0.169590  1
  O  O15  1  0.022553  0.102032  0.233014  1
  O  O16  1  0.123257  0.323213  0.168901  1
  O  O17  1  0.196494  0.427165  0.194822  1
  O  O18  1  0.375972  0.396023  0.194325  1
  O  O19  1  0.477719  0.398099  0.157652  1
  O  O20  1  0.053103  0.467928  0.158684  1
  O  O21  1  0.374208  0.178781  0.204857  1
  O  O22  1  0.182014  0.755930  0.141281  1
  O  O23  1  0.096572  0.592783  0.238808  1
  O  O24  1  0.151428  0.530936  0.221695  1
  O  O25  1  0.153109  0.665293  0.218592  1
  O  O26  1  0.311938  0.620022  0.189653  1
  O  O27  1  0.097677  0.714876  0.173052  1
  O  O28  1  0.020430  0.605510  0.205075  1
  O  O29  1  0.445800  0.531974  0.205491  1
  O  O30  1  0.476831  0.646328  0.221797  1
  O  O31  1  0.127176  0.819467  0.158582  1
  O  O32  1  0.227441  0.576847  0.193847  1
  O  O33  1  0.023332  0.852961  0.169324  1
  O  O34  1  0.182043  0.877927  0.236467  1
  O  O35  1  0.347711  0.334130  0.144574  1
  O  O36  1  0.093529  0.096075  0.203305  1
  O  O37  1  0.065992  0.836894  0.207887  1
  O  O38  1  0.150589  0.167614  0.187166  1
  O  O39  1  0.304566  0.820684  0.232997  1
  O  O40  1  0.124682  0.148449  0.157800  1
  O  O41  1  0.056979  0.918011  0.233783  1
  O  O42  1  0.478362  0.147907  0.193976  1
  O  O43  1  0.224977  0.968182  0.222116  1
  O  O44  1  0.377827  0.850046  0.206191  1
  O  O45  1  0.019752  0.354621  0.141698  1
  O  O46  1  0.560243  0.287700  0.218585  1
  O  O47  1  0.684886  0.373926  0.189286  1
  O  O48  1  0.813821  0.257299  0.204270  1
  O  O49  1  0.568423  0.337985  0.238402  1
  O  O50  1  0.938635  0.213889  0.237082  1
  O  O51  1  0.687853  0.242021  0.207847  1
  O  O52  1  0.804554  0.319257  0.222423  1
  O  O53  1  0.875904  0.069109  0.234006  1
  O  O54  1  0.554412  0.423993  0.169856  1
  O  O55  1  0.725548  0.468867  0.157849  1
  O  O56  1  0.876843  0.352209  0.232824  1
  O  O57  1  0.625317  0.431276  0.141998  1
  O  O58  1  0.772785  0.531665  0.204901  1
  O  O59  1  0.874767  0.569748  0.221611  1
  O  O60  1  0.944686  0.032814  0.142270  1
  O  O61  1  0.848521  0.967370  0.238609  1
  O  O62  1  0.932818  0.968462  0.205201  1
  O  O63  1  0.937916  0.908383  0.187585  1
  O  O64  1  0.772271  0.922243  0.234250  1
  O  O65  1  0.805904  0.070946  0.157730  1
  O  O66  1  0.695240  0.931390  0.205169  1
  O  O67  1  0.874000  0.898245  0.221546  1
  O  O68  1  0.554546  0.968961  0.221371  1
  O  O69  1  0.347967  0.471240  0.395229  1
  O  O70  1  0.061917  0.589529  0.396060  1
  O  O71  1  0.180993  0.258076  0.472765  1
  O  O72  1  0.063540  0.087929  0.304075  1
  O  O73  1  0.430712  0.975730  0.330458  1
  O  O74  1  0.431220  0.472092  0.427199  1
  O  O75  1  0.186689  0.382880  0.427159  1
  O  O76  1  0.402094  0.286412  0.444189  1
  O  O77  1  0.317325  0.245064  0.475714  1
  O  O78  1  0.438322  0.410054  0.475957  1
  O  O79  1  0.151643  0.031715  0.252818  1
  O  O80  1  0.438354  0.911283  0.314027  1
  O  O81  1  0.068963  0.029588  0.285569  1
  O  O82  1  0.069090  0.527875  0.444912  1
  O  O83  1  0.096518  0.216193  0.462187  1
  O  O84  1  0.311074  0.120791  0.493536  1
  O  O85  1  0.272305  0.424664  0.423477  1
  O  O86  1  0.302642  0.573470  0.422461  1
  O  O87  1  0.124782  0.602196  0.423943  1
  O  O88  1  0.304258  0.071569  0.284775  1
  O  O89  1  0.124604  0.105540  0.268720  1
  O  O90  1  0.022553  0.102032  0.487368  1
  O  O91  1  0.123257  0.323213  0.423254  1
  O  O92  1  0.446097  0.034235  0.268398  1
  O  O93  1  0.196494  0.427165  0.449176  1
  O  O94  1  0.375972  0.396023  0.448679  1
  O  O95  1  0.228107  0.076248  0.257399  1
  O  O96  1  0.197701  0.926995  0.332462  1
  O  O97  1  0.376708  0.898180  0.349127  1
  O  O98  1  0.477719  0.398099  0.412006  1
  O  O99  1  0.053103  0.467928  0.413037  1
  O  O100  1  0.374208  0.178781  0.459211  1
  O  O101  1  0.182014  0.755930  0.395635  1
  O  O102  1  0.345657  0.971654  0.364453  1
  O  O103  1  0.347409  0.833101  0.430687  1
  O  O104  1  0.182103  0.378618  0.314918  1
  O  O105  1  0.311421  0.255675  0.332099  1
  O  O106  1  0.096572  0.592783  0.493162  1
  O  O107  1  0.401939  0.786196  0.409496  1
  O  O108  1  0.187428  0.881161  0.377393  1
  O  O109  1  0.151428  0.530936  0.476049  1
  O  O110  1  0.317982  0.744014  0.398620  1
  O  O111  1  0.317621  0.119860  0.380748  1
  O  O112  1  0.153109  0.665293  0.472945  1
  O  O113  1  0.402405  0.908346  0.413341  1
  O  O114  1  0.188512  0.242863  0.335328  1
  O  O115  1  0.311938  0.620022  0.444007  1
  O  O116  1  0.097677  0.714876  0.427406  1
  O  O117  1  0.272777  0.923143  0.360039  1
  O  O118  1  0.272827  0.030374  0.396936  1
  O  O119  1  0.372287  0.072852  0.359367  1
  O  O120  1  0.055998  0.419700  0.297833  1
  O  O121  1  0.020430  0.605510  0.459429  1
  O  O122  1  0.445800  0.531974  0.459845  1
  O  O123  1  0.476831  0.646328  0.476151  1
  O  O124  1  0.127176  0.819467  0.412936  1
  O  O125  1  0.227441  0.576847  0.448201  1
  O  O126  1  0.226554  0.468596  0.284892  1
  O  O127  1  0.445745  0.075996  0.384616  1
  O  O128  1  0.475052  0.899348  0.383888  1
  O  O129  1  0.124553  0.430257  0.268861  1
  O  O130  1  0.372163  0.681453  0.447951  1
  O  O131  1  0.052772  0.967147  0.349014  1
  O  O132  1  0.023332  0.852961  0.423678  1
  O  O133  1  0.182043  0.877927  0.490821  1
  O  O134  1  0.061730  0.282626  0.346488  1
  O  O135  1  0.347711  0.334130  0.398928  1
  O  O136  1  0.061056  0.781968  0.254633  1
  O  O137  1  0.093529  0.096075  0.457658  1
  O  O138  1  0.311876  0.754992  0.282551  1
  O  O139  1  0.067253  0.335272  0.366325  1
  O  O140  1  0.065992  0.836894  0.462240  1
  O  O141  1  0.150589  0.167614  0.441519  1
  O  O142  1  0.438496  0.713239  0.272061  1
  O  O143  1  0.320080  0.616602  0.303890  1
  O  O144  1  0.437797  0.213620  0.364032  1
  O  O145  1  0.190970  0.741168  0.286370  1
  O  O146  1  0.402294  0.409804  0.377699  1
  O  O147  1  0.432443  0.664373  0.251467  1
  O  O148  1  0.430496  0.166494  0.409258  1
  O  O149  1  0.304566  0.820684  0.487351  1
  O  O150  1  0.124682  0.148449  0.412154  1
  O  O151  1  0.271394  0.531784  0.332919  1
  O  O152  1  0.303240  0.319213  0.349184  1
  O  O153  1  0.123326  0.649805  0.256499  1
  O  O154  1  0.056979  0.918011  0.488137  1
  O  O155  1  0.374657  0.571872  0.348648  1
  O  O156  1  0.478362  0.147907  0.448330  1
  O  O157  1  0.224977  0.968182  0.476469  1
  O  O158  1  0.195470  0.181692  0.384241  1
  O  O159  1  0.377827  0.850046  0.460545  1
  O  O160  1  0.194340  0.680138  0.269016  1
  O  O161  1  0.373538  0.352909  0.359781  1
  O  O162  1  0.127039  0.929698  0.256670  1
  O  O163  1  0.448010  0.572615  0.322011  1
  O  O164  1  0.019752  0.354621  0.396051  1
  O  O165  1  0.848524  0.835274  0.302359  1
  O  O166  1  0.560243  0.287700  0.472939  1
  O  O167  1  0.684886  0.373926  0.443640  1
  O  O168  1  0.560634  0.787207  0.379832  1
  O  O169  1  0.813821  0.257299  0.458624  1
  O  O170  1  0.592954  0.597169  0.365607  1
  O  O171  1  0.568423  0.337985  0.492756  1
  O  O172  1  0.568040  0.835186  0.334630  1
  O  O173  1  0.816131  0.125284  0.252448  1
  O  O174  1  0.938147  0.713080  0.399414  1
  O  O175  1  0.650568  0.668080  0.344992  1
  O  O176  1  0.938635  0.213889  0.491435  1
  O  O177  1  0.906969  0.904595  0.287371  1
  O  O178  1  0.687853  0.242021  0.462201  1
  O  O179  1  0.931745  0.664528  0.378763  1
  O  O180  1  0.932392  0.165752  0.282648  1
  O  O181  1  0.774622  0.031917  0.268663  1
  O  O182  1  0.803906  0.819731  0.360136  1
  O  O183  1  0.622984  0.151964  0.284939  1
  O  O184  1  0.804554  0.319257  0.476777  1
  O  O185  1  0.623359  0.648332  0.384637  1
  O  O186  1  0.875904  0.069109  0.488359  1
  O  O187  1  0.554412  0.423993  0.424209  1
  O  O188  1  0.977432  0.647187  0.348979  1
  O  O189  1  0.693792  0.182370  0.256550  1
  O  O190  1  0.875891  0.850689  0.332934  1
  O  O191  1  0.725548  0.468867  0.412202  1
  O  O192  1  0.695837  0.681836  0.394798  1
  O  O193  1  0.876843  0.352209  0.487177  1
  O  O194  1  0.946648  0.075362  0.258686  1
  O  O195  1  0.625317  0.431276  0.396352  1
  O  O196  1  0.521716  0.855613  0.295309  1
  O  O197  1  0.843854  0.474595  0.267105  1
  O  O198  1  0.682439  0.257237  0.345968  1
  O  O199  1  0.683684  0.876615  0.364906  1
  O  O200  1  0.848302  0.331933  0.271927  1
  O  O201  1  0.597905  0.091214  0.332583  1
  O  O202  1  0.813320  0.755503  0.409751  1
  O  O203  1  0.686830  0.382151  0.300337  1
  O  O204  1  0.902785  0.286497  0.316464  1
  O  O205  1  0.816269  0.243310  0.349546  1
  O  O206  1  0.652420  0.027831  0.381669  1
  O  O207  1  0.656464  0.161933  0.316174  1
  O  O208  1  0.817566  0.622218  0.429580  1
  O  O209  1  0.688039  0.742158  0.413506  1
  O  O210  1  0.902293  0.407615  0.251513  1
  O  O211  1  0.597024  0.212657  0.335775  1
  O  O212  1  0.811214  0.118257  0.366477  1
  O  O213  1  0.772869  0.421970  0.296784  1
  O  O214  1  0.772785  0.531665  0.459255  1
  O  O215  1  0.555341  0.921119  0.360364  1
  O  O216  1  0.521742  0.103678  0.359733  1
  O  O217  1  0.874767  0.569748  0.475964  1
  O  O218  1  0.624921  0.319603  0.297195  1
  O  O219  1  0.944686  0.032814  0.396624  1
  O  O220  1  0.979708  0.145596  0.322027  1
  O  O221  1  0.726401  0.078282  0.384706  1
  O  O222  1  0.727391  0.967996  0.348910  1
  O  O223  1  0.625966  0.927783  0.384941  1
  O  O224  1  0.947386  0.572963  0.449162  1
  O  O225  1  0.975787  0.397023  0.285854  1
  O  O226  1  0.553374  0.467067  0.285968  1
  O  O227  1  0.524754  0.347840  0.269608  1
  O  O228  1  0.875350  0.178391  0.333049  1
  O  O229  1  0.682428  0.756497  0.268101  1
  O  O230  1  0.562759  0.588319  0.269036  1
  O  O231  1  0.848521  0.967370  0.492963  1
  O  O232  1  0.559641  0.093534  0.429613  1
  O  O233  1  0.932818  0.968462  0.459554  1
  O  O234  1  0.932933  0.469763  0.301417  1
  O  O235  1  0.906235  0.781288  0.283214  1
  O  O236  1  0.689858  0.877988  0.251540  1
  O  O237  1  0.651602  0.531947  0.349023  1
  O  O238  1  0.937058  0.410523  0.349317  1
  O  O239  1  0.819134  0.742285  0.271715  1
  O  O240  1  0.937916  0.908383  0.441938  1
  O  O241  1  0.568228  0.029540  0.412835  1
  O  O242  1  0.568554  0.528908  0.317493  1
  O  O243  1  0.812578  0.618786  0.317044  1
  O  O244  1  0.596680  0.715769  0.299606  1
  O  O245  1  0.803614  0.573095  0.295451  1
  O  O246  1  0.623638  0.604792  0.295758  1
  O  O247  1  0.772271  0.922243  0.488604  1
  O  O248  1  0.805904  0.070946  0.412084  1
  O  O249  1  0.622111  0.106725  0.395495  1
  O  O250  1  0.522327  0.603420  0.332575  1
  O  O251  1  0.946929  0.532162  0.332154  1
  O  O252  1  0.627173  0.819189  0.285438  1
  O  O253  1  0.726826  0.577586  0.320523  1
  O  O254  1  0.697466  0.426725  0.322406  1
  O  O255  1  0.875191  0.398526  0.320448  1
  O  O256  1  0.695240  0.931390  0.459522  1
  O  O257  1  0.874000  0.898245  0.475899  1
  O  O258  1  0.978199  0.895312  0.257969  1
  O  O259  1  0.874915  0.680260  0.320438  1
  O  O260  1  0.554546  0.968961  0.475724  1
  O  O261  1  0.063540  0.087929  0.558428  1
  O  O262  1  0.151643  0.031715  0.507172  1
  O  O263  1  0.068963  0.029588  0.539923  1
  O  O264  1  0.304258  0.071569  0.539129  1
  O  O265  1  0.124604  0.105540  0.523074  1
  O  O266  1  0.446097  0.034235  0.522751  1
  O  O267  1  0.228107  0.076248  0.511752  1
  O  O268  1  0.197701  0.926995  0.586815  1
  O  O269  1  0.226554  0.468596  0.539246  1
  O  O270  1  0.124553  0.430257  0.523214  1
  O  O271  1  0.052772  0.967147  0.603368  1
  O  O272  1  0.061056  0.781968  0.508987  1
  O  O273  1  0.311876  0.754992  0.536904  1
  O  O274  1  0.438496  0.713239  0.526414  1
  O  O275  1  0.320080  0.616602  0.558244  1
  O  O276  1  0.190970  0.741168  0.540724  1
  O  O277  1  0.432443  0.664373  0.505821  1
  O  O278  1  0.271394  0.531784  0.587273  1
  O  O279  1  0.123326  0.649805  0.510853  1
  O  O280  1  0.374657  0.571872  0.603002  1
  O  O281  1  0.194340  0.680138  0.523370  1
  O  O282  1  0.127039  0.929698  0.511024  1
  O  O283  1  0.448010  0.572615  0.576364  1
  O  O284  1  0.848524  0.835274  0.556713  1
  O  O285  1  0.816131  0.125284  0.506802  1
  O  O286  1  0.650568  0.668080  0.599345  1
  O  O287  1  0.906969  0.904595  0.541724  1
  O  O288  1  0.932392  0.165752  0.537002  1
  O  O289  1  0.774622  0.031917  0.523016  1
  O  O290  1  0.622984  0.151964  0.539293  1
  O  O291  1  0.977432  0.647187  0.603333  1
  O  O292  1  0.693792  0.182370  0.510904  1
  O  O293  1  0.875891  0.850689  0.587287  1
  O  O294  1  0.946648  0.075362  0.513040  1
  O  O295  1  0.521716  0.855613  0.549663  1
  O  O296  1  0.843854  0.474595  0.521459  1
  O  O297  1  0.848302  0.331933  0.526281  1
  O  O298  1  0.686830  0.382151  0.554691  1
  O  O299  1  0.902785  0.286497  0.570817  1
  O  O300  1  0.816269  0.243310  0.603900  1
  O  O301  1  0.902293  0.407615  0.505867  1
  O  O302  1  0.772869  0.421970  0.551138  1
  O  O303  1  0.979708  0.145596  0.576381  1
  O  O304  1  0.975787  0.397023  0.540207  1
  O  O305  1  0.553374  0.467067  0.540322  1
  O  O306  1  0.524754  0.347840  0.523961  1
  O  O307  1  0.875350  0.178391  0.587402  1
  O  O308  1  0.682428  0.756497  0.522454  1
  O  O309  1  0.562759  0.588319  0.523390  1
  O  O310  1  0.932933  0.469763  0.555771  1
  O  O311  1  0.906235  0.781288  0.537567  1
  O  O312  1  0.689858  0.877988  0.505894  1
  O  O313  1  0.651602  0.531947  0.603376  1
  O  O314  1  0.937058  0.410523  0.603670  1
  O  O315  1  0.819134  0.742285  0.526068  1
  O  O316  1  0.568554  0.528908  0.571847  1
  O  O317  1  0.812578  0.618786  0.571397  1
  O  O318  1  0.596680  0.715769  0.553960  1
  O  O319  1  0.803614  0.573095  0.549804  1
  O  O320  1  0.623638  0.604792  0.550111  1
  O  O321  1  0.522327  0.603420  0.586928  1
  O  O322  1  0.946929  0.532162  0.586507  1
  O  O323  1  0.627173  0.819189  0.539791  1
  O  O324  1  0.726826  0.577586  0.574876  1
  O  O325  1  0.697466  0.426725  0.576759  1
  O  O326  1  0.875191  0.398526  0.574802  1
  O  O327  1  0.978199  0.895312  0.512323  1
  O  O328  1  0.874915  0.680260  0.574791  1
  Si  Si329  1  0.347814  0.398304  0.173253  1
  Si  Si330  1  0.115891  0.535643  0.174039  1
  Si  Si331  1  0.097139  0.039838  0.236151  1
  Si  Si332  1  0.133612  0.362031  0.178212  1
  Si  Si333  1  0.242982  0.372779  0.189356  1
  Si  Si334  1  0.383132  0.464381  0.189043  1
  Si  Si335  1  0.365513  0.140814  0.233805  1
  Si  Si336  1  0.256700  0.628251  0.173462  1
  Si  Si337  1  0.095979  0.539661  0.233568  1
  Si  Si338  1  0.495504  0.407426  0.234070  1
  Si  Si339  1  0.152154  0.603788  0.189719  1
  Si  Si340  1  0.098626  0.767541  0.178370  1
  Si  Si341  1  0.254514  0.858493  0.242353  1
  Si  Si342  1  0.007218  0.892617  0.237826  1
  Si  Si343  1  0.403169  0.230513  0.185172  1
  Si  Si344  1  0.150471  0.093189  0.192748  1
  Si  Si345  1  0.386052  0.766732  0.239461  1
  Si  Si346  1  0.095116  0.270300  0.175001  1
  Si  Si347  1  0.758772  0.354994  0.193995  1
  Si  Si348  1  0.865376  0.131982  0.236934  1
  Si  Si349  1  0.506299  0.397494  0.178490  1
  Si  Si350  1  0.884632  0.268786  0.242000  1
  Si  Si351  1  0.635558  0.367742  0.176870  1
  Si  Si352  1  0.848057  0.406361  0.239560  1
  Si  Si353  1  0.992634  0.910308  0.175386  1
  Si  Si354  1  0.847972  0.893267  0.243689  1
  Si  Si355  1  0.745736  0.869643  0.239798  1
  Si  Si356  1  0.885723  0.961287  0.192965  1
  Si  Si357  1  0.347814  0.398304  0.427607  1
  Si  Si358  1  0.115891  0.535643  0.428393  1
  Si  Si359  1  0.254220  0.130769  0.250612  1
  Si  Si360  1  0.116989  0.036914  0.297918  1
  Si  Si361  1  0.097139  0.039838  0.490504  1
  Si  Si362  1  0.133612  0.362031  0.432566  1
  Si  Si363  1  0.493027  0.911947  0.301694  1
  Si  Si364  1  0.242982  0.372779  0.443710  1
  Si  Si365  1  0.383132  0.464381  0.443397  1
  Si  Si366  1  0.152531  0.104240  0.248512  1
  Si  Si367  1  0.386152  0.963627  0.319769  1
  Si  Si368  1  0.402503  0.463299  0.382783  1
  Si  Si369  1  0.005855  0.590352  0.384105  1
  Si  Si370  1  0.365513  0.140814  0.488159  1
  Si  Si371  1  0.256700  0.628251  0.427816  1
  Si  Si372  1  0.347524  0.897159  0.369663  1
  Si  Si373  1  0.348337  0.905495  0.426046  1
  Si  Si374  1  0.256003  0.358133  0.320161  1
  Si  Si375  1  0.364303  0.128293  0.364352  1
  Si  Si376  1  0.006777  0.393896  0.307161  1
  Si  Si377  1  0.095979  0.539661  0.487921  1
  Si  Si378  1  0.495504  0.407426  0.488423  1
  Si  Si379  1  0.401351  0.732362  0.441736  1
  Si  Si380  1  0.133856  0.859884  0.383369  1
  Si  Si381  1  0.152154  0.603788  0.444073  1
  Si  Si382  1  0.243957  0.871246  0.365910  1
  Si  Si383  1  0.243119  0.141588  0.375403  1
  Si  Si384  1  0.151987  0.592784  0.250511  1
  Si  Si385  1  0.495085  0.102109  0.380575  1
  Si  Si386  1  0.400804  0.963840  0.380517  1
  Si  Si387  1  0.135967  0.369237  0.303303  1
  Si  Si388  1  0.364362  0.642291  0.438728  1
  Si  Si389  1  0.006741  0.089594  0.315823  1
  Si  Si390  1  0.098626  0.767541  0.432724  1
  Si  Si391  1  0.254514  0.858493  0.496706  1
  Si  Si392  1  0.114611  0.233572  0.377450  1
  Si  Si393  1  0.346801  0.409123  0.366198  1
  Si  Si394  1  0.112627  0.734365  0.248043  1
  Si  Si395  1  0.007218  0.892617  0.492180  1
  Si  Si396  1  0.367501  0.626050  0.315587  1
  Si  Si397  1  0.403169  0.230513  0.439525  1
  Si  Si398  1  0.150471  0.093189  0.447102  1
  Si  Si399  1  0.386052  0.766732  0.493815  1
  Si  Si400  1  0.245484  0.638315  0.298517  1
  Si  Si401  1  0.383642  0.267319  0.369024  1
  Si  Si402  1  0.137687  0.868351  0.253395  1
  Si  Si403  1  0.493808  0.602728  0.312153  1
  Si  Si404  1  0.095116  0.270300  0.429354  1
  Si  Si405  1  0.849831  0.907280  0.297833  1
  Si  Si406  1  0.612792  0.236455  0.250567  1
  Si  Si407  1  0.758772  0.354994  0.448349  1
  Si  Si408  1  0.616223  0.731355  0.375322  1
  Si  Si409  1  0.865376  0.131982  0.491288  1
  Si  Si410  1  0.506299  0.397494  0.432843  1
  Si  Si411  1  0.903244  0.733235  0.314188  1
  Si  Si412  1  0.743015  0.143689  0.247271  1
  Si  Si413  1  0.884650  0.766696  0.366942  1
  Si  Si414  1  0.649383  0.595363  0.377452  1
  Si  Si415  1  0.884632  0.268786  0.496354  1
  Si  Si416  1  0.994446  0.102526  0.253590  1
  Si  Si417  1  0.635558  0.367742  0.431224  1
  Si  Si418  1  0.596941  0.769423  0.304646  1
  Si  Si419  1  0.847317  0.397942  0.299873  1
  Si  Si420  1  0.756449  0.130107  0.377962  1
  Si  Si421  1  0.756966  0.857712  0.369664  1
  Si  Si422  1  0.848057  0.406361  0.493914  1
  Si  Si423  1  0.503731  0.898940  0.363305  1
  Si  Si424  1  0.597468  0.036882  0.364938  1
  Si  Si425  1  0.866340  0.628535  0.441979  1
  Si  Si426  1  0.634109  0.360670  0.305777  1
  Si  Si427  1  0.992634  0.910308  0.429740  1
  Si  Si428  1  0.903709  0.231007  0.311996  1
  Si  Si429  1  0.743207  0.371343  0.317170  1
  Si  Si430  1  0.651476  0.102995  0.375993  1
  Si  Si431  1  0.652842  0.092585  0.320465  1
  Si  Si432  1  0.741901  0.644605  0.423613  1
  Si  Si433  1  0.637060  0.866944  0.381288  1
  Si  Si434  1  0.994669  0.601468  0.440027  1
  Si  Si435  1  0.900829  0.461962  0.256598  1
  Si  Si436  1  0.506230  0.589618  0.256905  1
  Si  Si437  1  0.599034  0.263648  0.303930  1
  Si  Si438  1  0.863912  0.138517  0.362287  1
  Si  Si439  1  0.756340  0.629142  0.300324  1
  Si  Si440  1  0.616729  0.535886  0.301369  1
  Si  Si441  1  0.847972  0.893267  0.498043  1
  Si  Si442  1  0.613641  0.039918  0.424522  1
  Si  Si443  1  0.596771  0.541492  0.361184  1
  Si  Si444  1  0.993686  0.409415  0.361600  1
  Si  Si445  1  0.636039  0.858165  0.256479  1
  Si  Si446  1  0.651404  0.603729  0.316453  1
  Si  Si447  1  0.884294  0.463639  0.316864  1
  Si  Si448  1  0.745736  0.869643  0.494152  1
  Si  Si449  1  0.885723  0.961287  0.447318  1
  Si  Si450  1  0.904091  0.959179  0.254745  1
  Si  Si451  1  0.866064  0.638875  0.311920  1
  Si  Si452  1  0.503780  0.094355  0.441412  1
  Si  Si453  1  0.254220  0.130769  0.504965  1
  Si  Si454  1  0.116989  0.036914  0.552271  1
  Si  Si455  1  0.152531  0.104240  0.502866  1
  Si  Si456  1  0.151987  0.592784  0.504864  1
  Si  Si457  1  0.006741  0.089594  0.570176  1
  Si  Si458  1  0.112627  0.734365  0.502396  1
  Si  Si459  1  0.367501  0.626050  0.569940  1
  Si  Si460  1  0.245484  0.638315  0.552871  1
  Si  Si461  1  0.137687  0.868351  0.507749  1
  Si  Si462  1  0.493808  0.602728  0.566507  1
  Si  Si463  1  0.849831  0.907280  0.552187  1
  Si  Si464  1  0.612792  0.236455  0.504920  1
  Si  Si465  1  0.903244  0.733235  0.568542  1
  Si  Si466  1  0.743015  0.143689  0.501625  1
  Si  Si467  1  0.994446  0.102526  0.507944  1
  Si  Si468  1  0.596941  0.769423  0.559000  1
  Si  Si469  1  0.847317  0.397942  0.554226  1
  Si  Si470  1  0.903709  0.231007  0.566350  1
  Si  Si471  1  0.743207  0.371343  0.571524  1
  Si  Si472  1  0.900829  0.461962  0.510952  1
  Si  Si473  1  0.506230  0.589618  0.511258  1
  Si  Si474  1  0.756340  0.629142  0.554677  1
  Si  Si475  1  0.616729  0.535886  0.555722  1
  Si  Si476  1  0.636039  0.858165  0.510833  1
  Si  Si477  1  0.651404  0.603729  0.570807  1
  Si  Si478  1  0.884294  0.463639  0.571217  1
  Si  Si479  1  0.904091  0.959179  0.509099  1
  Si  Si480  1  0.866064  0.638875  0.566274  1
  H  H481  1  0.347967  0.471240  0.127613  1
  H  H482  1  0.061917  0.589529  0.128443  1
  H  H483  1  0.069090  0.527875  0.177295  1
  H  H484  1  0.477719  0.398099  0.144389  1
  H  H485  1  0.053103  0.467928  0.145421  1
  H  H486  1  0.182014  0.755930  0.128019  1
  H  H487  1  0.311938  0.620022  0.176390  1
  H  H488  1  0.020430  0.605510  0.191812  1
  H  H489  1  0.445800  0.531974  0.192229  1
  H  H490  1  0.476831  0.646328  0.208535  1
  H  H491  1  0.127176  0.819467  0.145319  1
  H  H492  1  0.347711  0.334130  0.131311  1
  H  H493  1  0.124682  0.148449  0.144538  1
  H  H494  1  0.478362  0.147907  0.180714  1
  H  H495  1  0.377827  0.850046  0.192928  1
  H  H496  1  0.019752  0.354621  0.128435  1
  H  H497  1  0.725548  0.468867  0.144586  1
  H  H498  1  0.625317  0.431276  0.128736  1
  H  H499  1  0.772785  0.531665  0.191638  1
  H  H500  1  0.874767  0.569748  0.208348  1
  H  H501  1  0.944686  0.032814  0.129008  1
  H  H502  1  0.805904  0.070946  0.144467  1
  H  H503  1  0.695240  0.931390  0.191906  1
  H  H504  1  0.554546  0.968961  0.208108  1
  H  H505  1  0.304258  0.071569  0.552392  1
  H  H506  1  0.446097  0.034235  0.536014  1
  H  H507  1  0.197701  0.926995  0.600078  1
  H  H508  1  0.226554  0.468596  0.552509  1
  H  H509  1  0.124553  0.430257  0.536477  1
  H  H510  1  0.052772  0.967147  0.616631  1
  H  H511  1  0.271394  0.531784  0.600535  1
  H  H512  1  0.374657  0.571872  0.616265  1
  H  H513  1  0.650568  0.668080  0.612608  1
  H  H514  1  0.622984  0.151964  0.552555  1
  H  H515  1  0.977432  0.647187  0.616595  1
  H  H516  1  0.875891  0.850689  0.600550  1
  H  H517  1  0.521716  0.855613  0.562925  1
  H  H518  1  0.686830  0.382151  0.567954  1
  H  H519  1  0.816269  0.243310  0.617162  1
  H  H520  1  0.975787  0.397023  0.553470  1
  H  H521  1  0.553374  0.467067  0.553584  1
  H  H522  1  0.524754  0.347840  0.537224  1
  H  H523  1  0.875350  0.178391  0.600665  1
  H  H524  1  0.932933  0.469763  0.569033  1
  H  H525  1  0.651602  0.531947  0.616639  1
  H  H526  1  0.937058  0.410523  0.616933  1
  H  H527  1  0.522327  0.603420  0.600191  1
  H  H528  1  0.946929  0.532162  0.599770  1
