# generated using pymatgen
data_Si32H2O65
_symmetry_space_group_name_H-M   'P 1'
_cell_length_a   19.95132824
_cell_length_b   12.61157101
_cell_length_c   86.87404077
_cell_angle_alpha   90.00000000
_cell_angle_beta   90.00000000
_cell_angle_gamma   90.00000000
_symmetry_Int_Tables_number   1
_chemical_formula_structural   Si32H2O65
_chemical_formula_sum   'Si256 H16 O520'
_cell_volume   21859.037019
_cell_formula_units_Z   8
loop_
 _symmetry_equiv_pos_site_id
 _symmetry_equiv_pos_as_xyz
  1  'x, y, z'
loop_
 _atom_site_type_symbol
 _atom_site_label
 _atom_site_symmetry_multiplicity
 _atom_site_fract_x
 _atom_site_fract_y
 _atom_site_fract_z
 _atom_site_occupancy
  O  O1  1  0.801760  0.419176  0.265443  1
  O  O2  1  0.698203  0.080772  0.265440  1
  O  O3  1  0.876180  0.259784  0.256019  1
  O  O4  1  0.876176  0.259812  0.215226  1
  O  O5  1  0.623771  0.240210  0.215224  1
  O  O6  1  0.623773  0.240155  0.256017  1
  O  O7  1  0.808666  0.359485  0.235622  1
  O  O8  1  0.691279  0.140496  0.235619  1
  O  O9  1  0.749975  0.249983  0.255807  1
  O  O10  1  0.749974  0.250009  0.215437  1
  O  O11  1  0.901539  0.071751  0.265172  1
  O  O12  1  0.598411  0.428165  0.265174  1
  O  O13  1  0.000000  0.185595  0.255625  1
  O  O14  1  0.000000  0.185605  0.215618  1
  O  O15  1  0.913784  0.130214  0.235622  1
  O  O16  1  0.586149  0.369754  0.235622  1
  O  O17  1  0.803655  0.574856  0.286697  1
  O  O18  1  0.696276  0.925097  0.286695  1
  O  O19  1  0.699356  0.120745  0.294246  1
  O  O20  1  0.800647  0.379212  0.294249  1
  O  O21  1  0.876421  0.734761  0.297367  1
  O  O22  1  0.623535  0.765156  0.297366  1
  O  O23  1  0.749979  0.749983  0.295921  1
  O  O24  1  0.904075  0.921652  0.286980  1
  O  O25  1  0.595909  0.578253  0.286982  1
  O  O26  1  0.595412  0.385469  0.293800  1
  O  O27  1  0.904527  0.114440  0.293797  1
  O  O28  1  0.700217  0.464798  0.282375  1
  O  O29  1  0.799745  0.035050  0.282370  1
  O  O30  1  0.698153  0.919197  0.127556  1
  O  O31  1  0.801758  0.419196  0.205799  1
  O  O32  1  0.698181  0.080832  0.205796  1
  O  O33  1  0.801755  0.580832  0.127560  1
  O  O34  1  0.598407  0.571752  0.127291  1
  O  O35  1  0.901503  0.071796  0.206068  1
  O  O36  1  0.598413  0.428236  0.206072  1
  O  O37  1  0.901533  0.928273  0.127289  1
  O  O38  1  0.696254  0.074898  0.148808  1
  O  O39  1  0.803627  0.574874  0.184545  1
  O  O40  1  0.696306  0.925154  0.184542  1
  O  O41  1  0.803646  0.425131  0.148811  1
  O  O42  1  0.699252  0.120802  0.176989  1
  O  O43  1  0.800629  0.620775  0.156363  1
  O  O44  1  0.699303  0.879251  0.156360  1
  O  O45  1  0.800647  0.379223  0.176992  1
  O  O46  1  0.623512  0.234820  0.159483  1
  O  O47  1  0.876375  0.734805  0.173872  1
  O  O48  1  0.623526  0.765261  0.173871  1
  O  O49  1  0.876413  0.265241  0.159483  1
  O  O50  1  0.749963  0.250006  0.158036  1
  O  O51  1  0.749949  0.750004  0.175316  1
  O  O52  1  0.595888  0.421703  0.149102  1
  O  O53  1  0.903979  0.921715  0.184258  1
  O  O54  1  0.595939  0.578346  0.184263  1
  O  O55  1  0.904022  0.078355  0.149097  1
  O  O56  1  0.595361  0.385556  0.177446  1
  O  O57  1  0.904497  0.885573  0.155914  1
  O  O58  1  0.595397  0.614482  0.155917  1
  O  O59  1  0.904580  0.114500  0.177442  1
  O  O60  1  -0.000000  0.812219  0.172342  1
  O  O61  1  0.799706  0.964904  0.144483  1
  O  O62  1  0.700209  0.464767  0.188865  1
  O  O63  1  0.799716  0.035314  0.188855  1
  O  O64  1  0.700204  0.535169  0.144492  1
  O  O65  1  0.000000  0.187810  0.161007  1
  O  O66  1  0.698185  0.919151  0.067914  1
  O  O67  1  0.801768  0.580806  0.067919  1
  O  O68  1  0.623753  0.759765  0.118134  1
  O  O69  1  0.623762  0.759747  0.077339  1
  O  O70  1  0.876174  0.740210  0.077342  1
  O  O71  1  0.876169  0.740251  0.118138  1
  O  O72  1  0.691249  0.859460  0.097736  1
  O  O73  1  0.808685  0.640526  0.097740  1
  O  O74  1  0.749968  0.749982  0.077555  1
  O  O75  1  0.598421  0.571717  0.068186  1
  O  O76  1  0.901542  0.928216  0.068184  1
  O  O77  1  -0.000000  0.814383  0.117741  1
  O  O78  1  0.586159  0.630171  0.097737  1
  O  O79  1  0.913791  0.869800  0.097738  1
  O  O80  1  0.749961  0.750014  0.117922  1
  O  O81  1  -0.000000  0.814359  0.077736  1
  O  O82  1  0.198201  0.419115  0.265443  1
  O  O83  1  0.301780  0.080746  0.265444  1
  O  O84  1  0.123776  0.259733  0.256017  1
  O  O85  1  0.123771  0.259720  0.215224  1
  O  O86  1  0.376181  0.240120  0.215222  1
  O  O87  1  0.376182  0.240143  0.256017  1
  O  O88  1  0.191282  0.359411  0.235621  1
  O  O89  1  0.308684  0.140434  0.235621  1
  O  O90  1  0.249978  0.249919  0.255804  1
  O  O91  1  0.249978  0.249912  0.215434  1
  O  O92  1  0.098423  0.071717  0.265172  1
  O  O93  1  0.401528  0.428163  0.265171  1
  O  O94  1  0.499974  0.314343  0.215616  1
  O  O95  1  0.499972  0.314315  0.255623  1
  O  O96  1  0.086145  0.130158  0.235620  1
  O  O97  1  0.413787  0.369713  0.235619  1
  O  O98  1  0.196330  0.574809  0.286695  1
  O  O99  1  0.303664  0.925077  0.286699  1
  O  O100  1  0.300657  0.120723  0.294250  1
  O  O101  1  0.199289  0.379159  0.294249  1
  O  O102  1  0.123562  0.734717  0.297367  1
  O  O103  1  0.376419  0.765161  0.297371  1
  O  O104  1  0.249992  0.749947  0.295924  1
  O  O105  1  0.095946  0.921624  0.286980  1
  O  O106  1  0.404015  0.578252  0.286981  1
  O  O107  1  0.404595  0.385461  0.293797  1
  O  O108  1  0.095401  0.114411  0.293797  1
  O  O109  1  0.299742  0.464673  0.282381  1
  O  O110  1  0.200231  0.035147  0.282375  1
  O  O111  1  0.499970  0.687732  0.298897  1
  O  O112  1  -0.000000  0.812132  0.298895  1
  O  O113  1  0.301760  0.919052  0.127564  1
  O  O114  1  0.198180  0.419098  0.205799  1
  O  O115  1  0.301752  0.080697  0.205803  1
  O  O116  1  0.198160  0.580720  0.127557  1
  O  O117  1  0.401531  0.571671  0.127290  1
  O  O118  1  0.098383  0.071715  0.206068  1
  O  O119  1  0.401514  0.428155  0.206070  1
  O  O120  1  0.098433  0.928176  0.127289  1
  O  O121  1  0.303681  0.074707  0.148819  1
  O  O122  1  0.196198  0.574745  0.184543  1
  O  O123  1  0.303590  0.924972  0.184553  1
  O  O124  1  0.196360  0.425009  0.148809  1
  O  O125  1  0.300654  0.120623  0.176999  1
  O  O126  1  0.199208  0.620664  0.156363  1
  O  O127  1  0.300616  0.879063  0.156371  1
  O  O128  1  0.199359  0.379106  0.176993  1
  O  O129  1  0.376419  0.234655  0.159491  1
  O  O130  1  0.123466  0.734708  0.173873  1
  O  O131  1  0.376366  0.765094  0.173881  1
  O  O132  1  0.123570  0.265156  0.159484  1
  O  O133  1  0.249997  0.249843  0.158039  1
  O  O134  1  0.249912  0.749845  0.175322  1
  O  O135  1  0.403948  0.421592  0.149100  1
  O  O136  1  0.095895  0.921628  0.184259  1
  O  O137  1  0.404064  0.578234  0.184261  1
  O  O138  1  0.095932  0.078266  0.149097  1
  O  O139  1  0.404481  0.385457  0.177445  1
  O  O140  1  0.095372  0.885484  0.155915  1
  O  O141  1  0.404587  0.614386  0.155917  1
  O  O142  1  0.095384  0.114414  0.177442  1
  O  O143  1  0.499972  0.687803  0.172349  1
  O  O144  1  0.200218  0.964717  0.144497  1
  O  O145  1  0.299713  0.464899  0.188872  1
  O  O146  1  0.200193  0.035124  0.188870  1
  O  O147  1  0.299715  0.535284  0.144497  1
  O  O148  1  0.499943  0.312207  0.161017  1
  O  O149  1  0.301766  0.919124  0.067920  1
  O  O150  1  0.198175  0.580757  0.067916  1
  O  O151  1  0.376163  0.759672  0.118135  1
  O  O152  1  0.376171  0.759701  0.077340  1
  O  O153  1  0.123763  0.740176  0.077338  1
  O  O154  1  0.123750  0.740144  0.118134  1
  O  O155  1  0.308685  0.859400  0.097740  1
  O  O156  1  0.191248  0.640453  0.097736  1
  O  O157  1  0.249955  0.749901  0.117921  1
  O  O158  1  0.249968  0.749933  0.077554  1
  O  O159  1  0.401543  0.571683  0.068185  1
  O  O160  1  0.098415  0.928198  0.068185  1
  O  O161  1  0.499962  0.685554  0.117739  1
  O  O162  1  0.499971  0.685556  0.077734  1
  O  O163  1  0.413787  0.630114  0.097736  1
  O  O164  1  0.086162  0.869750  0.097737  1
  O  O165  1  0.801760  0.419176  0.541209  1
  O  O166  1  0.698203  0.080772  0.541206  1
  O  O167  1  0.876180  0.259784  0.531785  1
  O  O168  1  0.876176  0.259812  0.490992  1
  O  O169  1  0.623771  0.240210  0.490990  1
  O  O170  1  0.623773  0.240155  0.531783  1
  O  O171  1  0.808666  0.359485  0.511388  1
  O  O172  1  0.691279  0.140496  0.511385  1
  O  O173  1  0.749975  0.249983  0.531573  1
  O  O174  1  0.749974  0.250009  0.491203  1
  O  O175  1  0.901539  0.071751  0.540938  1
  O  O176  1  0.598411  0.428165  0.540940  1
  O  O177  1  -0.000000  0.185595  0.531391  1
  O  O178  1  -0.000000  0.185605  0.491384  1
  O  O179  1  0.913784  0.130214  0.511388  1
  O  O180  1  0.586149  0.369754  0.511388  1
  O  O181  1  0.803655  0.574856  0.562463  1
  O  O182  1  0.696276  0.925097  0.562461  1
  O  O183  1  0.699356  0.120745  0.570012  1
  O  O184  1  0.800647  0.379212  0.570015  1
  O  O185  1  0.876421  0.734761  0.573133  1
  O  O186  1  0.623535  0.765156  0.573132  1
  O  O187  1  0.749979  0.749983  0.571687  1
  O  O188  1  0.904075  0.921652  0.562746  1
  O  O189  1  0.595909  0.578253  0.562748  1
  O  O190  1  0.595412  0.385469  0.569566  1
  O  O191  1  0.904527  0.114440  0.569563  1
  O  O192  1  0.700217  0.464798  0.558142  1
  O  O193  1  0.799745  0.035050  0.558136  1
  O  O194  1  0.698153  0.919197  0.403322  1
  O  O195  1  0.801758  0.419196  0.481565  1
  O  O196  1  0.698181  0.080832  0.481562  1
  O  O197  1  0.801755  0.580832  0.403326  1
  O  O198  1  0.598407  0.571752  0.403057  1
  O  O199  1  0.901503  0.071796  0.481834  1
  O  O200  1  0.598413  0.428236  0.481838  1
  O  O201  1  0.901533  0.928273  0.403055  1
  O  O202  1  0.696254  0.074898  0.424574  1
  O  O203  1  0.803627  0.574874  0.460311  1
  O  O204  1  0.696306  0.925154  0.460308  1
  O  O205  1  0.803646  0.425131  0.424577  1
  O  O206  1  0.699252  0.120802  0.452755  1
  O  O207  1  0.800629  0.620775  0.432129  1
  O  O208  1  0.699303  0.879251  0.432126  1
  O  O209  1  0.800647  0.379223  0.452758  1
  O  O210  1  0.623512  0.234820  0.435249  1
  O  O211  1  0.876375  0.734805  0.449638  1
  O  O212  1  0.623526  0.765261  0.449637  1
  O  O213  1  0.876413  0.265241  0.435249  1
  O  O214  1  0.749963  0.250006  0.433802  1
  O  O215  1  0.749949  0.750004  0.451083  1
  O  O216  1  0.595888  0.421703  0.424868  1
  O  O217  1  0.903979  0.921715  0.460024  1
  O  O218  1  0.595939  0.578346  0.460029  1
  O  O219  1  0.904022  0.078355  0.424863  1
  O  O220  1  0.595361  0.385556  0.453213  1
  O  O221  1  0.904497  0.885573  0.431680  1
  O  O222  1  0.595397  0.614482  0.431683  1
  O  O223  1  0.904580  0.114500  0.453208  1
  O  O224  1  -0.000000  0.812219  0.448108  1
  O  O225  1  0.799706  0.964904  0.420249  1
  O  O226  1  0.700209  0.464767  0.464631  1
  O  O227  1  0.799716  0.035314  0.464622  1
  O  O228  1  0.700204  0.535169  0.420258  1
  O  O229  1  -0.000000  0.187810  0.436773  1
  O  O230  1  0.698185  0.919151  0.343680  1
  O  O231  1  0.801768  0.580806  0.343685  1
  O  O232  1  0.623753  0.759765  0.393900  1
  O  O233  1  0.623762  0.759747  0.353105  1
  O  O234  1  0.876174  0.740210  0.353108  1
  O  O235  1  0.876169  0.740251  0.393904  1
  O  O236  1  0.691249  0.859460  0.373502  1
  O  O237  1  0.808685  0.640526  0.373507  1
  O  O238  1  0.749968  0.749982  0.353321  1
  O  O239  1  0.598421  0.571717  0.343952  1
  O  O240  1  0.901542  0.928216  0.343950  1
  O  O241  1  -0.000000  0.814383  0.393508  1
  O  O242  1  0.586159  0.630171  0.373503  1
  O  O243  1  0.913791  0.869800  0.373504  1
  O  O244  1  0.696339  0.074828  0.322427  1
  O  O245  1  0.803666  0.425127  0.322430  1
  O  O246  1  0.800659  0.620775  0.314878  1
  O  O247  1  0.699282  0.879179  0.314875  1
  O  O248  1  0.623568  0.234713  0.311756  1
  O  O249  1  0.876425  0.265214  0.311755  1
  O  O250  1  0.749997  0.249981  0.313205  1
  O  O251  1  0.595953  0.421616  0.322145  1
  O  O252  1  0.904008  0.078296  0.322141  1
  O  O253  1  0.904597  0.885508  0.315325  1
  O  O254  1  0.595394  0.614403  0.315326  1
  O  O255  1  0.749961  0.750014  0.393688  1
  O  O256  1  0.799743  0.964687  0.326744  1
  O  O257  1  0.700230  0.535182  0.326750  1
  O  O258  1  -0.000000  0.814359  0.353502  1
  O  O259  1  -0.000000  0.187745  0.310225  1
  O  O260  1  0.500001  0.312119  0.310232  1
  O  O261  1  0.198201  0.419115  0.541209  1
  O  O262  1  0.301780  0.080746  0.541210  1
  O  O263  1  0.123776  0.259733  0.531783  1
  O  O264  1  0.123771  0.259720  0.490990  1
  O  O265  1  0.376181  0.240120  0.490988  1
  O  O266  1  0.376182  0.240143  0.531783  1
  O  O267  1  0.191282  0.359411  0.511387  1
  O  O268  1  0.308684  0.140434  0.511387  1
  O  O269  1  0.249978  0.249919  0.531570  1
  O  O270  1  0.249978  0.249912  0.491200  1
  O  O271  1  0.098423  0.071717  0.540938  1
  O  O272  1  0.401528  0.428163  0.540937  1
  O  O273  1  0.499974  0.314343  0.491382  1
  O  O274  1  0.499972  0.314315  0.531389  1
  O  O275  1  0.086145  0.130158  0.511387  1
  O  O276  1  0.413787  0.369713  0.511385  1
  O  O277  1  0.196330  0.574809  0.562461  1
  O  O278  1  0.303664  0.925077  0.562466  1
  O  O279  1  0.300657  0.120723  0.570016  1
  O  O280  1  0.199289  0.379159  0.570015  1
  O  O281  1  0.123562  0.734717  0.573133  1
  O  O282  1  0.376419  0.765161  0.573137  1
  O  O283  1  0.249992  0.749947  0.571690  1
  O  O284  1  0.095946  0.921624  0.562746  1
  O  O285  1  0.404015  0.578252  0.562747  1
  O  O286  1  0.404595  0.385461  0.569563  1
  O  O287  1  0.095401  0.114411  0.569563  1
  O  O288  1  0.299742  0.464673  0.558147  1
  O  O289  1  0.200231  0.035147  0.558142  1
  O  O290  1  0.499970  0.687732  0.574663  1
  O  O291  1  -0.000000  0.812132  0.574661  1
  O  O292  1  0.301760  0.919052  0.403330  1
  O  O293  1  0.198180  0.419098  0.481565  1
  O  O294  1  0.301752  0.080697  0.481569  1
  O  O295  1  0.198160  0.580720  0.403323  1
  O  O296  1  0.401531  0.571671  0.403056  1
  O  O297  1  0.098383  0.071715  0.481834  1
  O  O298  1  0.401514  0.428155  0.481836  1
  O  O299  1  0.098433  0.928176  0.403055  1
  O  O300  1  0.303681  0.074707  0.424585  1
  O  O301  1  0.196198  0.574745  0.460309  1
  O  O302  1  0.303590  0.924972  0.460319  1
  O  O303  1  0.196360  0.425009  0.424575  1
  O  O304  1  0.300654  0.120623  0.452765  1
  O  O305  1  0.199208  0.620664  0.432129  1
  O  O306  1  0.300616  0.879063  0.432137  1
  O  O307  1  0.199359  0.379106  0.452759  1
  O  O308  1  0.376419  0.234655  0.435257  1
  O  O309  1  0.123466  0.734708  0.449639  1
  O  O310  1  0.376366  0.765094  0.449647  1
  O  O311  1  0.123570  0.265156  0.435250  1
  O  O312  1  0.249997  0.249843  0.433805  1
  O  O313  1  0.249912  0.749845  0.451088  1
  O  O314  1  0.403948  0.421592  0.424867  1
  O  O315  1  0.095895  0.921628  0.460025  1
  O  O316  1  0.404064  0.578234  0.460027  1
  O  O317  1  0.095932  0.078266  0.424863  1
  O  O318  1  0.404481  0.385457  0.453211  1
  O  O319  1  0.095372  0.885484  0.431681  1
  O  O320  1  0.404587  0.614386  0.431683  1
  O  O321  1  0.095384  0.114414  0.453208  1
  O  O322  1  0.499972  0.687803  0.448115  1
  O  O323  1  0.200218  0.964717  0.420263  1
  O  O324  1  0.299713  0.464899  0.464638  1
  O  O325  1  0.200193  0.035124  0.464636  1
  O  O326  1  0.299715  0.535284  0.420263  1
  O  O327  1  0.499943  0.312207  0.436783  1
  O  O328  1  0.301766  0.919124  0.343686  1
  O  O329  1  0.198175  0.580757  0.343682  1
  O  O330  1  0.376163  0.759672  0.393901  1
  O  O331  1  0.376171  0.759701  0.353106  1
  O  O332  1  0.123763  0.740176  0.353105  1
  O  O333  1  0.123750  0.740144  0.393900  1
  O  O334  1  0.308685  0.859400  0.373506  1
  O  O335  1  0.191248  0.640453  0.373502  1
  O  O336  1  0.249955  0.749901  0.393687  1
  O  O337  1  0.249968  0.749933  0.353320  1
  O  O338  1  0.401543  0.571683  0.343951  1
  O  O339  1  0.098415  0.928198  0.343951  1
  O  O340  1  0.499962  0.685554  0.393505  1
  O  O341  1  0.499971  0.685556  0.353500  1
  O  O342  1  0.413787  0.630114  0.373502  1
  O  O343  1  0.086162  0.869750  0.373503  1
  O  O344  1  0.303666  0.074819  0.322432  1
  O  O345  1  0.196292  0.425067  0.322431  1
  O  O346  1  0.199318  0.620711  0.314877  1
  O  O347  1  0.300657  0.879173  0.314881  1
  O  O348  1  0.376428  0.234710  0.311756  1
  O  O349  1  0.123539  0.265154  0.311758  1
  O  O350  1  0.249985  0.249948  0.313205  1
  O  O351  1  0.404039  0.421597  0.322142  1
  O  O352  1  0.095921  0.078263  0.322141  1
  O  O353  1  0.095421  0.885479  0.315325  1
  O  O354  1  0.404550  0.614379  0.315326  1
  O  O355  1  0.200228  0.964779  0.326752  1
  O  O356  1  0.299735  0.535095  0.326752  1
  O  O357  1  0.801760  0.419176  0.816975  1
  O  O358  1  0.698203  0.080772  0.816972  1
  O  O359  1  0.876180  0.259784  0.807551  1
  O  O360  1  0.876176  0.259812  0.766758  1
  O  O361  1  0.623771  0.240210  0.766756  1
  O  O362  1  0.623773  0.240155  0.807549  1
  O  O363  1  0.808666  0.359485  0.787154  1
  O  O364  1  0.691279  0.140496  0.787151  1
  O  O365  1  0.749975  0.249983  0.807339  1
  O  O366  1  0.749974  0.250009  0.766969  1
  O  O367  1  0.901539  0.071751  0.816704  1
  O  O368  1  0.598411  0.428165  0.816706  1
  O  O369  1  0.000000  0.185595  0.807157  1
  O  O370  1  -0.000000  0.185605  0.767150  1
  O  O371  1  0.913784  0.130214  0.787154  1
  O  O372  1  0.586149  0.369754  0.787155  1
  O  O373  1  0.698153  0.919197  0.679088  1
  O  O374  1  0.801758  0.419196  0.757331  1
  O  O375  1  0.698181  0.080832  0.757328  1
  O  O376  1  0.801755  0.580832  0.679092  1
  O  O377  1  0.598407  0.571752  0.678823  1
  O  O378  1  0.901503  0.071796  0.757600  1
  O  O379  1  0.598413  0.428236  0.757604  1
  O  O380  1  0.901533  0.928273  0.678821  1
  O  O381  1  0.696254  0.074898  0.700340  1
  O  O382  1  0.803627  0.574874  0.736077  1
  O  O383  1  0.696306  0.925154  0.736074  1
  O  O384  1  0.803646  0.425131  0.700343  1
  O  O385  1  0.699252  0.120802  0.728521  1
  O  O386  1  0.800629  0.620775  0.707895  1
  O  O387  1  0.699303  0.879251  0.707892  1
  O  O388  1  0.800647  0.379223  0.728524  1
  O  O389  1  0.623512  0.234820  0.711015  1
  O  O390  1  0.876375  0.734805  0.725404  1
  O  O391  1  0.623526  0.765261  0.725403  1
  O  O392  1  0.876413  0.265241  0.711015  1
  O  O393  1  0.749963  0.250006  0.709568  1
  O  O394  1  0.749949  0.750004  0.726849  1
  O  O395  1  0.595888  0.421703  0.700634  1
  O  O396  1  0.903979  0.921715  0.735790  1
  O  O397  1  0.595939  0.578346  0.735795  1
  O  O398  1  0.904022  0.078355  0.700629  1
  O  O399  1  0.595361  0.385556  0.728979  1
  O  O400  1  0.904497  0.885573  0.707446  1
  O  O401  1  0.595397  0.614482  0.707450  1
  O  O402  1  0.904580  0.114500  0.728974  1
  O  O403  1  -0.000000  0.812219  0.723874  1
  O  O404  1  0.799706  0.964904  0.696015  1
  O  O405  1  0.700209  0.464767  0.740397  1
  O  O406  1  0.799716  0.035314  0.740388  1
  O  O407  1  0.700204  0.535169  0.696024  1
  O  O408  1  0.000000  0.187810  0.712539  1
  O  O409  1  0.698185  0.919151  0.619447  1
  O  O410  1  0.801768  0.580806  0.619451  1
  O  O411  1  0.623753  0.759765  0.669666  1
  O  O412  1  0.623762  0.759747  0.628871  1
  O  O413  1  0.876174  0.740210  0.628874  1
  O  O414  1  0.876169  0.740251  0.669670  1
  O  O415  1  0.691249  0.859460  0.649268  1
  O  O416  1  0.808685  0.640526  0.649273  1
  O  O417  1  0.749968  0.749982  0.629087  1
  O  O418  1  0.598421  0.571717  0.619718  1
  O  O419  1  0.901542  0.928216  0.619717  1
  O  O420  1  -0.000000  0.814383  0.669274  1
  O  O421  1  0.586159  0.630171  0.649269  1
  O  O422  1  0.913791  0.869800  0.649270  1
  O  O423  1  0.696339  0.074828  0.598193  1
  O  O424  1  0.803666  0.425127  0.598196  1
  O  O425  1  0.800659  0.620775  0.590644  1
  O  O426  1  0.699282  0.879179  0.590641  1
  O  O427  1  0.623568  0.234713  0.587522  1
  O  O428  1  0.876425  0.265214  0.587521  1
  O  O429  1  0.749997  0.249981  0.588971  1
  O  O430  1  0.595953  0.421616  0.597911  1
  O  O431  1  0.904008  0.078296  0.597907  1
  O  O432  1  0.904597  0.885508  0.591091  1
  O  O433  1  0.595394  0.614403  0.591092  1
  O  O434  1  0.749961  0.750014  0.669454  1
  O  O435  1  0.799743  0.964687  0.602510  1
  O  O436  1  0.700230  0.535182  0.602516  1
  O  O437  1  0.000000  0.814359  0.629268  1
  O  O438  1  -0.000000  0.187745  0.585991  1
  O  O439  1  0.500001  0.312119  0.585998  1
  O  O440  1  0.198201  0.419115  0.816975  1
  O  O441  1  0.301780  0.080746  0.816976  1
  O  O442  1  0.123776  0.259733  0.807549  1
  O  O443  1  0.123771  0.259720  0.766756  1
  O  O444  1  0.376181  0.240120  0.766754  1
  O  O445  1  0.376182  0.240143  0.807549  1
  O  O446  1  0.191282  0.359411  0.787153  1
  O  O447  1  0.308684  0.140434  0.787153  1
  O  O448  1  0.249978  0.249919  0.807336  1
  O  O449  1  0.249978  0.249912  0.766966  1
  O  O450  1  0.098423  0.071717  0.816704  1
  O  O451  1  0.401528  0.428163  0.816703  1
  O  O452  1  0.499974  0.314343  0.767148  1
  O  O453  1  0.499972  0.314315  0.807155  1
  O  O454  1  0.086145  0.130158  0.787153  1
  O  O455  1  0.413787  0.369713  0.787151  1
  O  O456  1  0.301760  0.919052  0.679096  1
  O  O457  1  0.198180  0.419098  0.757331  1
  O  O458  1  0.301752  0.080697  0.757335  1
  O  O459  1  0.198160  0.580720  0.679089  1
  O  O460  1  0.401531  0.571671  0.678823  1
  O  O461  1  0.098383  0.071715  0.757600  1
  O  O462  1  0.401514  0.428155  0.757602  1
  O  O463  1  0.098433  0.928176  0.678821  1
  O  O464  1  0.303681  0.074707  0.700351  1
  O  O465  1  0.196198  0.574745  0.736075  1
  O  O466  1  0.303590  0.924972  0.736085  1
  O  O467  1  0.196360  0.425009  0.700341  1
  O  O468  1  0.300654  0.120623  0.728531  1
  O  O469  1  0.199208  0.620664  0.707895  1
  O  O470  1  0.300616  0.879063  0.707903  1
  O  O471  1  0.199359  0.379106  0.728525  1
  O  O472  1  0.376419  0.234655  0.711023  1
  O  O473  1  0.123466  0.734708  0.725405  1
  O  O474  1  0.376366  0.765094  0.725413  1
  O  O475  1  0.123570  0.265156  0.711016  1
  O  O476  1  0.249997  0.249843  0.709571  1
  O  O477  1  0.249912  0.749845  0.726854  1
  O  O478  1  0.403948  0.421592  0.700633  1
  O  O479  1  0.095895  0.921628  0.735791  1
  O  O480  1  0.404064  0.578234  0.735793  1
  O  O481  1  0.095932  0.078266  0.700629  1
  O  O482  1  0.404481  0.385457  0.728977  1
  O  O483  1  0.095372  0.885484  0.707447  1
  O  O484  1  0.404587  0.614386  0.707449  1
  O  O485  1  0.095384  0.114414  0.728974  1
  O  O486  1  0.499972  0.687803  0.723881  1
  O  O487  1  0.200218  0.964717  0.696030  1
  O  O488  1  0.299713  0.464899  0.740404  1
  O  O489  1  0.200193  0.035124  0.740402  1
  O  O490  1  0.299715  0.535284  0.696029  1
  O  O491  1  0.499943  0.312207  0.712549  1
  O  O492  1  0.301766  0.919124  0.619452  1
  O  O493  1  0.198175  0.580757  0.619448  1
  O  O494  1  0.376163  0.759672  0.669667  1
  O  O495  1  0.376171  0.759701  0.628872  1
  O  O496  1  0.123763  0.740176  0.628871  1
  O  O497  1  0.123750  0.740144  0.669666  1
  O  O498  1  0.308685  0.859400  0.649272  1
  O  O499  1  0.191248  0.640453  0.649268  1
  O  O500  1  0.249955  0.749901  0.669453  1
  O  O501  1  0.249968  0.749933  0.629086  1
  O  O502  1  0.401543  0.571683  0.619717  1
  O  O503  1  0.098415  0.928198  0.619717  1
  O  O504  1  0.499962  0.685554  0.669271  1
  O  O505  1  0.499971  0.685556  0.629266  1
  O  O506  1  0.413787  0.630114  0.649268  1
  O  O507  1  0.086162  0.869750  0.649270  1
  O  O508  1  0.303666  0.074819  0.598198  1
  O  O509  1  0.196292  0.425067  0.598197  1
  O  O510  1  0.199318  0.620711  0.590643  1
  O  O511  1  0.300657  0.879173  0.590647  1
  O  O512  1  0.376428  0.234710  0.587522  1
  O  O513  1  0.123539  0.265154  0.587524  1
  O  O514  1  0.249985  0.249948  0.588971  1
  O  O515  1  0.404039  0.421597  0.597908  1
  O  O516  1  0.095921  0.078263  0.597907  1
  O  O517  1  0.095421  0.885479  0.591091  1
  O  O518  1  0.404550  0.614379  0.591092  1
  O  O519  1  0.200228  0.964779  0.602518  1
  O  O520  1  0.299735  0.535095  0.602518  1
  Si  Si521  1  0.622140  0.466591  0.281570  1
  Si  Si522  1  0.810652  0.327367  0.253233  1
  Si  Si523  1  0.810649  0.327395  0.218010  1
  Si  Si524  1  0.689296  0.172625  0.218009  1
  Si  Si525  1  0.689306  0.172589  0.253231  1
  Si  Si526  1  0.922946  0.160416  0.253258  1
  Si  Si527  1  0.922931  0.160429  0.217985  1
  Si  Si528  1  0.576999  0.339569  0.217985  1
  Si  Si529  1  0.577002  0.339518  0.253258  1
  Si  Si530  1  0.809209  0.670095  0.298405  1
  Si  Si531  1  0.690737  0.829852  0.298403  1
  Si  Si532  1  0.922671  0.834816  0.299360  1
  Si  Si533  1  0.577303  0.665083  0.299362  1
  Si  Si534  1  0.778433  0.461596  0.281675  1
  Si  Si535  1  0.721529  0.038337  0.281671  1
  Si  Si536  1  0.877821  0.033300  0.281567  1
  Si  Si537  1  0.622133  0.466660  0.189675  1
  Si  Si538  1  0.877784  0.966703  0.143682  1
  Si  Si539  1  0.690718  0.170137  0.160517  1
  Si  Si540  1  0.809175  0.670107  0.172835  1
  Si  Si541  1  0.690739  0.829927  0.172832  1
  Si  Si542  1  0.809195  0.329895  0.160520  1
  Si  Si543  1  0.577272  0.334879  0.161482  1
  Si  Si544  1  0.922595  0.834893  0.171878  1
  Si  Si545  1  0.577308  0.665162  0.171883  1
  Si  Si546  1  0.922654  0.165175  0.161475  1
  Si  Si547  1  0.721490  0.961645  0.143786  1
  Si  Si548  1  0.778426  0.461601  0.189566  1
  Si  Si549  1  0.721499  0.038434  0.189562  1
  Si  Si550  1  0.778422  0.538391  0.143790  1
  Si  Si551  1  0.622128  0.533354  0.143688  1
  Si  Si552  1  0.877791  0.033405  0.189669  1
  Si  Si553  1  0.689271  0.827368  0.115348  1
  Si  Si554  1  0.689280  0.827348  0.080125  1
  Si  Si555  1  0.810653  0.672620  0.080129  1
  Si  Si556  1  0.810651  0.672652  0.115351  1
  Si  Si557  1  0.576996  0.660387  0.115373  1
  Si  Si558  1  0.577003  0.660372  0.080101  1
  Si  Si559  1  0.922944  0.839572  0.080102  1
  Si  Si560  1  0.922942  0.839606  0.115375  1
  Si  Si561  1  0.377818  0.466567  0.281570  1
  Si  Si562  1  0.189305  0.327310  0.253233  1
  Si  Si563  1  0.189301  0.327292  0.218010  1
  Si  Si564  1  0.310656  0.172533  0.218009  1
  Si  Si565  1  0.310661  0.172546  0.253232  1
  Si  Si566  1  0.077004  0.160372  0.253257  1
  Si  Si567  1  0.076989  0.160373  0.217984  1
  Si  Si568  1  0.422939  0.339499  0.217983  1
  Si  Si569  1  0.422943  0.339514  0.253255  1
  Si  Si570  1  0.190770  0.670040  0.298405  1
  Si  Si571  1  0.309214  0.829846  0.298409  1
  Si  Si572  1  0.077334  0.834797  0.299360  1
  Si  Si573  1  0.422639  0.665069  0.299362  1
  Si  Si574  1  0.221525  0.461528  0.281676  1
  Si  Si575  1  0.278448  0.038338  0.281676  1
  Si  Si576  1  0.122154  0.033298  0.281567  1
  Si  Si577  1  0.122143  0.966588  0.143687  1
  Si  Si578  1  0.309221  0.169948  0.160527  1
  Si  Si579  1  0.190662  0.669994  0.172835  1
  Si  Si580  1  0.309145  0.829738  0.172844  1
  Si  Si581  1  0.190796  0.329789  0.160520  1
  Si  Si582  1  0.422603  0.334792  0.161481  1
  Si  Si583  1  0.077262  0.834815  0.171879  1
  Si  Si584  1  0.422646  0.665080  0.171882  1
  Si  Si585  1  0.077318  0.165102  0.161476  1
  Si  Si586  1  0.278434  0.961462  0.143797  1
  Si  Si587  1  0.221496  0.461532  0.189567  1
  Si  Si588  1  0.278410  0.038260  0.189573  1
  Si  Si589  1  0.221497  0.538320  0.143790  1
  Si  Si590  1  0.377790  0.533298  0.143688  1
  Si  Si591  1  0.122116  0.033294  0.189672  1
  Si  Si592  1  0.377789  0.466603  0.189675  1
  Si  Si593  1  0.310642  0.827265  0.115350  1
  Si  Si594  1  0.310653  0.827297  0.080128  1
  Si  Si595  1  0.189279  0.672570  0.080125  1
  Si  Si596  1  0.189268  0.672538  0.115348  1
  Si  Si597  1  0.422936  0.660318  0.115373  1
  Si  Si598  1  0.422943  0.660341  0.080101  1
  Si  Si599  1  0.077003  0.839550  0.080101  1
  Si  Si600  1  0.077003  0.839536  0.115373  1
  Si  Si601  1  0.622140  0.466591  0.557336  1
  Si  Si602  1  0.810652  0.327367  0.528999  1
  Si  Si603  1  0.810649  0.327395  0.493776  1
  Si  Si604  1  0.689296  0.172625  0.493775  1
  Si  Si605  1  0.689306  0.172589  0.528997  1
  Si  Si606  1  0.922946  0.160416  0.529024  1
  Si  Si607  1  0.922931  0.160429  0.493752  1
  Si  Si608  1  0.576999  0.339569  0.493751  1
  Si  Si609  1  0.577002  0.339518  0.529024  1
  Si  Si610  1  0.809209  0.670095  0.574172  1
  Si  Si611  1  0.690737  0.829852  0.574169  1
  Si  Si612  1  0.922671  0.834816  0.575126  1
  Si  Si613  1  0.577303  0.665083  0.575128  1
  Si  Si614  1  0.778433  0.461596  0.557441  1
  Si  Si615  1  0.721529  0.038337  0.557438  1
  Si  Si616  1  0.877821  0.033300  0.557333  1
  Si  Si617  1  0.622133  0.466660  0.465441  1
  Si  Si618  1  0.877784  0.966703  0.419448  1
  Si  Si619  1  0.690718  0.170137  0.436283  1
  Si  Si620  1  0.809175  0.670107  0.448601  1
  Si  Si621  1  0.690739  0.829927  0.448598  1
  Si  Si622  1  0.809195  0.329895  0.436286  1
  Si  Si623  1  0.577272  0.334879  0.437248  1
  Si  Si624  1  0.922595  0.834893  0.447644  1
  Si  Si625  1  0.577308  0.665162  0.447649  1
  Si  Si626  1  0.922654  0.165175  0.437241  1
  Si  Si627  1  0.721490  0.961645  0.419552  1
  Si  Si628  1  0.778426  0.461601  0.465332  1
  Si  Si629  1  0.721499  0.038434  0.465328  1
  Si  Si630  1  0.778422  0.538391  0.419556  1
  Si  Si631  1  0.622128  0.533354  0.419454  1
  Si  Si632  1  0.877791  0.033405  0.465435  1
  Si  Si633  1  0.877819  0.966608  0.327553  1
  Si  Si634  1  0.689271  0.827368  0.391114  1
  Si  Si635  1  0.689280  0.827348  0.355891  1
  Si  Si636  1  0.810653  0.672620  0.355895  1
  Si  Si637  1  0.810651  0.672652  0.391117  1
  Si  Si638  1  0.576996  0.660387  0.391139  1
  Si  Si639  1  0.577003  0.660372  0.355867  1
  Si  Si640  1  0.922944  0.839572  0.355869  1
  Si  Si641  1  0.922942  0.839606  0.391141  1
  Si  Si642  1  0.690787  0.170060  0.310718  1
  Si  Si643  1  0.809215  0.329893  0.310721  1
  Si  Si644  1  0.577332  0.334787  0.309765  1
  Si  Si645  1  0.922637  0.165114  0.309761  1
  Si  Si646  1  0.721526  0.961549  0.327448  1
  Si  Si647  1  0.778445  0.538388  0.327452  1
  Si  Si648  1  0.622153  0.533299  0.327556  1
  Si  Si649  1  0.377818  0.466567  0.557336  1
  Si  Si650  1  0.189305  0.327310  0.528999  1
  Si  Si651  1  0.189301  0.327292  0.493776  1
  Si  Si652  1  0.310656  0.172533  0.493776  1
  Si  Si653  1  0.310661  0.172546  0.528998  1
  Si  Si654  1  0.077004  0.160372  0.529023  1
  Si  Si655  1  0.076989  0.160373  0.493750  1
  Si  Si656  1  0.422939  0.339499  0.493749  1
  Si  Si657  1  0.422943  0.339514  0.529021  1
  Si  Si658  1  0.190770  0.670040  0.574171  1
  Si  Si659  1  0.309214  0.829846  0.574175  1
  Si  Si660  1  0.077334  0.834797  0.575126  1
  Si  Si661  1  0.422639  0.665069  0.575128  1
  Si  Si662  1  0.221525  0.461528  0.557442  1
  Si  Si663  1  0.278448  0.038338  0.557442  1
  Si  Si664  1  0.122154  0.033298  0.557334  1
  Si  Si665  1  0.122143  0.966588  0.419453  1
  Si  Si666  1  0.309221  0.169948  0.436293  1
  Si  Si667  1  0.190662  0.669994  0.448601  1
  Si  Si668  1  0.309145  0.829738  0.448610  1
  Si  Si669  1  0.190796  0.329789  0.436286  1
  Si  Si670  1  0.422603  0.334792  0.437247  1
  Si  Si671  1  0.077262  0.834815  0.447645  1
  Si  Si672  1  0.422646  0.665080  0.447648  1
  Si  Si673  1  0.077318  0.165102  0.437242  1
  Si  Si674  1  0.278434  0.961462  0.419563  1
  Si  Si675  1  0.221496  0.461532  0.465333  1
  Si  Si676  1  0.278410  0.038260  0.465339  1
  Si  Si677  1  0.221497  0.538320  0.419556  1
  Si  Si678  1  0.377790  0.533298  0.419454  1
  Si  Si679  1  0.122116  0.033294  0.465438  1
  Si  Si680  1  0.377789  0.466603  0.465441  1
  Si  Si681  1  0.122151  0.966605  0.327555  1
  Si  Si682  1  0.310642  0.827265  0.391116  1
  Si  Si683  1  0.310653  0.827297  0.355894  1
  Si  Si684  1  0.189279  0.672570  0.355891  1
  Si  Si685  1  0.189268  0.672538  0.391114  1
  Si  Si686  1  0.422936  0.660318  0.391139  1
  Si  Si687  1  0.422943  0.660341  0.355867  1
  Si  Si688  1  0.077003  0.839550  0.355867  1
  Si  Si689  1  0.077003  0.839536  0.391140  1
  Si  Si690  1  0.309212  0.170050  0.310722  1
  Si  Si691  1  0.190749  0.329828  0.310722  1
  Si  Si692  1  0.422668  0.334776  0.309763  1
  Si  Si693  1  0.077304  0.165086  0.309761  1
  Si  Si694  1  0.278444  0.961559  0.327454  1
  Si  Si695  1  0.221518  0.538326  0.327452  1
  Si  Si696  1  0.377812  0.533259  0.327556  1
  Si  Si697  1  0.810652  0.327367  0.804765  1
  Si  Si698  1  0.810649  0.327395  0.769542  1
  Si  Si699  1  0.689296  0.172625  0.769541  1
  Si  Si700  1  0.689306  0.172589  0.804763  1
  Si  Si701  1  0.922946  0.160416  0.804790  1
  Si  Si702  1  0.922931  0.160429  0.769518  1
  Si  Si703  1  0.576999  0.339569  0.769517  1
  Si  Si704  1  0.577002  0.339518  0.804790  1
  Si  Si705  1  0.622133  0.466660  0.741207  1
  Si  Si706  1  0.877784  0.966703  0.695214  1
  Si  Si707  1  0.690718  0.170137  0.712049  1
  Si  Si708  1  0.809175  0.670107  0.724367  1
  Si  Si709  1  0.690739  0.829927  0.724364  1
  Si  Si710  1  0.809195  0.329895  0.712052  1
  Si  Si711  1  0.577272  0.334879  0.713014  1
  Si  Si712  1  0.922595  0.834893  0.723410  1
  Si  Si713  1  0.577308  0.665162  0.723415  1
  Si  Si714  1  0.922654  0.165175  0.713007  1
  Si  Si715  1  0.721490  0.961645  0.695318  1
  Si  Si716  1  0.778426  0.461601  0.741098  1
  Si  Si717  1  0.721499  0.038434  0.741094  1
  Si  Si718  1  0.778422  0.538391  0.695322  1
  Si  Si719  1  0.622128  0.533354  0.695220  1
  Si  Si720  1  0.877791  0.033405  0.741201  1
  Si  Si721  1  0.877819  0.966608  0.603319  1
  Si  Si722  1  0.689271  0.827368  0.666880  1
  Si  Si723  1  0.689280  0.827348  0.631657  1
  Si  Si724  1  0.810653  0.672620  0.631661  1
  Si  Si725  1  0.810651  0.672652  0.666883  1
  Si  Si726  1  0.576996  0.660387  0.666905  1
  Si  Si727  1  0.577003  0.660372  0.631633  1
  Si  Si728  1  0.922944  0.839572  0.631635  1
  Si  Si729  1  0.922942  0.839606  0.666907  1
  Si  Si730  1  0.690787  0.170060  0.586484  1
  Si  Si731  1  0.809215  0.329893  0.586487  1
  Si  Si732  1  0.577332  0.334787  0.585531  1
  Si  Si733  1  0.922637  0.165114  0.585527  1
  Si  Si734  1  0.721526  0.961549  0.603214  1
  Si  Si735  1  0.778445  0.538388  0.603218  1
  Si  Si736  1  0.622153  0.533299  0.603322  1
  Si  Si737  1  0.189305  0.327310  0.804765  1
  Si  Si738  1  0.189301  0.327292  0.769542  1
  Si  Si739  1  0.310656  0.172533  0.769542  1
  Si  Si740  1  0.310661  0.172546  0.804764  1
  Si  Si741  1  0.077004  0.160372  0.804789  1
  Si  Si742  1  0.076989  0.160373  0.769517  1
  Si  Si743  1  0.422939  0.339499  0.769515  1
  Si  Si744  1  0.422943  0.339514  0.804788  1
  Si  Si745  1  0.122143  0.966588  0.695219  1
  Si  Si746  1  0.309221  0.169948  0.712059  1
  Si  Si747  1  0.190662  0.669994  0.724367  1
  Si  Si748  1  0.309145  0.829738  0.724376  1
  Si  Si749  1  0.190796  0.329789  0.712052  1
  Si  Si750  1  0.422603  0.334792  0.713013  1
  Si  Si751  1  0.077262  0.834815  0.723411  1
  Si  Si752  1  0.422646  0.665080  0.723414  1
  Si  Si753  1  0.077318  0.165102  0.713008  1
  Si  Si754  1  0.278434  0.961462  0.695329  1
  Si  Si755  1  0.221496  0.461532  0.741099  1
  Si  Si756  1  0.278410  0.038260  0.741105  1
  Si  Si757  1  0.221497  0.538320  0.695322  1
  Si  Si758  1  0.377790  0.533298  0.695220  1
  Si  Si759  1  0.122116  0.033294  0.741204  1
  Si  Si760  1  0.377789  0.466603  0.741207  1
  Si  Si761  1  0.122151  0.966605  0.603321  1
  Si  Si762  1  0.310642  0.827265  0.666882  1
  Si  Si763  1  0.310653  0.827297  0.631660  1
  Si  Si764  1  0.189279  0.672570  0.631657  1
  Si  Si765  1  0.189268  0.672538  0.666880  1
  Si  Si766  1  0.422936  0.660318  0.666905  1
  Si  Si767  1  0.422943  0.660341  0.631633  1
  Si  Si768  1  0.077003  0.839550  0.631633  1
  Si  Si769  1  0.077003  0.839536  0.666906  1
  Si  Si770  1  0.309212  0.170050  0.586488  1
  Si  Si771  1  0.190749  0.329828  0.586488  1
  Si  Si772  1  0.422668  0.334776  0.585529  1
  Si  Si773  1  0.077304  0.165086  0.585527  1
  Si  Si774  1  0.278444  0.961559  0.603220  1
  Si  Si775  1  0.221518  0.538326  0.603218  1
  Si  Si776  1  0.377812  0.533259  0.603322  1
  H  H777  1  0.698185  0.919151  0.057555  1
  H  H778  1  0.801768  0.580806  0.057559  1
  H  H779  1  0.598421  0.571717  0.057826  1
  H  H780  1  0.901542  0.928216  0.057825  1
  H  H781  1  0.301766  0.919124  0.057560  1
  H  H782  1  0.198175  0.580757  0.057556  1
  H  H783  1  0.401543  0.571683  0.057825  1
  H  H784  1  0.098415  0.928198  0.057825  1
  H  H785  1  0.801760  0.419176  0.827335  1
  H  H786  1  0.698203  0.080772  0.827332  1
  H  H787  1  0.901539  0.071751  0.827064  1
  H  H788  1  0.598411  0.428165  0.827066  1
  H  H789  1  0.198201  0.419115  0.827335  1
  H  H790  1  0.301780  0.080746  0.827336  1
  H  H791  1  0.098423  0.071717  0.827063  1
  H  H792  1  0.401528  0.428163  0.827063  1
