# generated using pymatgen
data_Si18H2O37
_symmetry_space_group_name_H-M   'P 1'
_cell_length_a   12.70191421
_cell_length_b   13.04642943
_cell_length_c   52.33115452
_cell_angle_alpha   90.00000000
_cell_angle_beta   90.00000000
_cell_angle_gamma   90.00000000
_symmetry_Int_Tables_number   1
_chemical_formula_structural   Si18H2O37
_chemical_formula_sum   'Si72 H8 O148'
_cell_volume   8672.03777141
_cell_formula_units_Z   4
loop_
 _symmetry_equiv_pos_site_id
 _symmetry_equiv_pos_as_xyz
  1  'x, y, z'
loop_
 _atom_site_type_symbol
 _atom_site_label
 _atom_site_symmetry_multiplicity
 _atom_site_fract_x
 _atom_site_fract_y
 _atom_site_fract_z
 _atom_site_occupancy
  O  O1  1  0.142998  0.138006  0.161731  1
  O  O2  1  0.176822  0.192371  0.210718  1
  O  O3  1  0.176812  0.192363  0.112744  1
  O  O4  1  0.298066  0.307669  0.240151  1
  O  O5  1  0.170684  0.169037  0.258677  1
  O  O6  1  0.100477  0.331040  0.241625  1
  O  O7  1  0.143471  0.000000  0.127265  1
  O  O8  1  0.143478  0.000000  0.196198  1
  O  O9  1  0.357860  0.500012  0.248238  1
  O  O10  1  0.499835  0.638009  0.248357  1
  O  O11  1  0.499887  0.362060  0.248360  1
  O  O12  1  0.142970  0.862054  0.161733  1
  O  O13  1  0.298012  0.692349  0.240147  1
  O  O14  1  0.176792  0.807699  0.210720  1
  O  O15  1  0.176777  0.807686  0.112745  1
  O  O16  1  0.170694  0.831027  0.258681  1
  O  O17  1  0.100417  0.669057  0.241628  1
  O  O18  1  0.856770  0.138029  0.161732  1
  O  O19  1  0.822944  0.192386  0.112745  1
  O  O20  1  0.822949  0.192397  0.210718  1
  O  O21  1  0.701710  0.307729  0.240148  1
  O  O22  1  0.856261  0.000000  0.127267  1
  O  O23  1  0.829029  0.169058  0.258678  1
  O  O24  1  0.000000  0.130657  0.195104  1
  O  O25  1  0.899305  0.331035  0.241628  1
  O  O26  1  0.000000  0.130645  0.128359  1
  O  O27  1  0.856272  0.000000  0.196200  1
  O  O28  1  0.641861  0.500058  0.248240  1
  O  O29  1  0.000000  0.500046  0.248083  1
  O  O30  1  0.000000  0.869430  0.128362  1
  O  O31  1  0.856743  0.862081  0.161735  1
  O  O32  1  0.701655  0.692394  0.240146  1
  O  O33  1  0.822913  0.807713  0.112748  1
  O  O34  1  0.822913  0.807727  0.210721  1
  O  O35  1  0.828995  0.831034  0.258682  1
  O  O36  1  0.899246  0.669051  0.241625  1
  O  O37  1  0.000000  0.869437  0.195107  1
  O  O38  1  0.100470  0.331040  0.324561  1
  O  O39  1  0.142998  0.138006  0.404453  1
  O  O40  1  0.176822  0.192371  0.453441  1
  O  O41  1  0.176812  0.192363  0.355466  1
  O  O42  1  0.298061  0.307684  0.326040  1
  O  O43  1  0.298066  0.307669  0.482874  1
  O  O44  1  0.144083  -0.000000  0.283094  1
  O  O45  1  0.170684  0.169037  0.501400  1
  O  O46  1  0.170704  0.169049  0.307506  1
  O  O47  1  0.100477  0.331040  0.484347  1
  O  O48  1  0.143471  0.000000  0.369988  1
  O  O49  1  0.143478  0.000000  0.438920  1
  O  O50  1  0.362393  0.369414  0.283096  1
  O  O51  1  0.362338  0.630625  0.283093  1
  O  O52  1  0.357857  0.500025  0.317951  1
  O  O53  1  0.357860  0.500012  0.490961  1
  O  O54  1  0.499830  0.638025  0.317830  1
  O  O55  1  0.499884  0.362074  0.317834  1
  O  O56  1  0.499835  0.638009  0.491079  1
  O  O57  1  0.499887  0.362060  0.491082  1
  O  O58  1  0.142970  0.862054  0.404456  1
  O  O59  1  0.298002  0.692358  0.326038  1
  O  O60  1  0.298012  0.692349  0.482869  1
  O  O61  1  0.176792  0.807699  0.453443  1
  O  O62  1  0.176777  0.807686  0.355468  1
  O  O63  1  0.170694  0.831027  0.501403  1
  O  O64  1  0.170673  0.831029  0.307508  1
  O  O65  1  0.100406  0.669049  0.324558  1
  O  O66  1  0.100417  0.669057  0.484350  1
  O  O67  1  0.899301  0.331026  0.324558  1
  O  O68  1  0.856770  0.138029  0.404455  1
  O  O69  1  0.822944  0.192386  0.355468  1
  O  O70  1  0.822949  0.192397  0.453441  1
  O  O71  1  0.701710  0.307729  0.482871  1
  O  O72  1  0.701708  0.307740  0.326045  1
  O  O73  1  0.856261  0.000000  0.369989  1
  O  O74  1  0.829005  0.169060  0.307507  1
  O  O75  1  0.829029  0.169058  0.501401  1
  O  O76  1  0.855609  0.000000  0.283093  1
  O  O77  1  0.000000  0.130657  0.437827  1
  O  O78  1  0.899305  0.331035  0.484350  1
  O  O79  1  0.000000  0.130645  0.371081  1
  O  O80  1  0.000000  0.130802  0.283097  1
  O  O81  1  0.856272  0.000000  0.438923  1
  O  O82  1  0.637382  0.369453  0.283097  1
  O  O83  1  0.637328  0.630677  0.283094  1
  O  O84  1  0.641861  0.500058  0.490963  1
  O  O85  1  0.641857  0.500073  0.317951  1
  O  O86  1  -0.000000  0.630803  0.283093  1
  O  O87  1  0.000000  0.500041  0.318102  1
  O  O88  1  0.000000  0.500046  0.490806  1
  O  O89  1  0.000000  0.369284  0.283092  1
  O  O90  1  -0.000000  0.869430  0.371084  1
  O  O91  1  0.899236  0.669047  0.324560  1
  O  O92  1  0.856743  0.862081  0.404457  1
  O  O93  1  0.701655  0.692394  0.482869  1
  O  O94  1  0.701649  0.692415  0.326040  1
  O  O95  1  0.822913  0.807713  0.355471  1
  O  O96  1  0.822913  0.807727  0.453443  1
  O  O97  1  0.000000  0.869284  0.283091  1
  O  O98  1  0.829014  0.831051  0.307511  1
  O  O99  1  0.828995  0.831034  0.501404  1
  O  O100  1  0.899246  0.669051  0.484348  1
  O  O101  1  0.000000  0.869437  0.437830  1
  O  O102  1  0.100470  0.331040  0.567283  1
  O  O103  1  0.142998  0.138006  0.647175  1
  O  O104  1  0.176822  0.192371  0.696163  1
  O  O105  1  0.176812  0.192363  0.598188  1
  O  O106  1  0.298061  0.307684  0.568763  1
  O  O107  1  0.144083  -0.000000  0.525817  1
  O  O108  1  0.170704  0.169049  0.550228  1
  O  O109  1  0.143471  0.000000  0.612710  1
  O  O110  1  0.143478  0.000000  0.681643  1
  O  O111  1  0.362393  0.369414  0.525818  1
  O  O112  1  0.362338  0.630625  0.525815  1
  O  O113  1  0.357857  0.500025  0.560673  1
  O  O114  1  0.499830  0.638025  0.560552  1
  O  O115  1  0.499884  0.362074  0.560556  1
  O  O116  1  0.142970  0.862054  0.647178  1
  O  O117  1  0.298002  0.692358  0.568760  1
  O  O118  1  0.176792  0.807699  0.696165  1
  O  O119  1  0.176777  0.807686  0.598190  1
  O  O120  1  0.170673  0.831029  0.550231  1
  O  O121  1  0.100406  0.669049  0.567281  1
  O  O122  1  0.899301  0.331026  0.567280  1
  O  O123  1  0.856770  0.138029  0.647177  1
  O  O124  1  0.822944  0.192386  0.598190  1
  O  O125  1  0.822949  0.192397  0.696163  1
  O  O126  1  0.701708  0.307740  0.568767  1
  O  O127  1  0.856261  0.000000  0.612712  1
  O  O128  1  0.829005  0.169060  0.550229  1
  O  O129  1  0.855609  0.000000  0.525815  1
  O  O130  1  0.000000  0.130657  0.680549  1
  O  O131  1  -0.000000  0.130645  0.613803  1
  O  O132  1  0.000000  0.130802  0.525819  1
  O  O133  1  0.856272  -0.000000  0.681645  1
  O  O134  1  0.637382  0.369453  0.525819  1
  O  O135  1  0.637328  0.630677  0.525816  1
  O  O136  1  0.641857  0.500073  0.560673  1
  O  O137  1  0.000000  0.630803  0.525815  1
  O  O138  1  -0.000000  0.500041  0.560824  1
  O  O139  1  0.000000  0.369284  0.525815  1
  O  O140  1  -0.000000  0.869430  0.613806  1
  O  O141  1  0.899236  0.669047  0.567283  1
  O  O142  1  0.856743  0.862081  0.647180  1
  O  O143  1  0.701649  0.692415  0.568763  1
  O  O144  1  0.822913  0.807713  0.598193  1
  O  O145  1  0.822913  0.807727  0.696166  1
  O  O146  1  0.000000  0.869284  0.525813  1
  O  O147  1  0.829014  0.831051  0.550233  1
  O  O148  1  0.000000  0.869437  0.680552  1
  Si  Si149  1  0.189723  0.250029  0.237014  1
  Si  Si150  1  0.121624  0.117956  0.191112  1
  Si  Si151  1  0.121617  0.117948  0.132350  1
  Si  Si152  1  0.378834  0.382097  0.253547  1
  Si  Si153  1  0.378789  0.617936  0.253544  1
  Si  Si154  1  0.121600  0.882117  0.191114  1
  Si  Si155  1  0.121594  0.882109  0.132352  1
  Si  Si156  1  0.189690  0.750033  0.237015  1
  Si  Si157  1  0.878139  0.117967  0.132351  1
  Si  Si158  1  0.878145  0.117977  0.191113  1
  Si  Si159  1  0.810036  0.250056  0.237014  1
  Si  Si160  1  -0.000000  0.382112  0.253281  1
  Si  Si161  1  0.620888  0.617975  0.253545  1
  Si  Si162  1  0.620932  0.382135  0.253548  1
  Si  Si163  1  0.000000  0.617980  0.253281  1
  Si  Si164  1  0.878115  0.882129  0.132353  1
  Si  Si165  1  0.878122  0.882137  0.191116  1
  Si  Si166  1  0.809993  0.750053  0.237014  1
  Si  Si167  1  0.122673  0.117972  0.283093  1
  Si  Si168  1  0.189723  0.250029  0.479736  1
  Si  Si169  1  0.121624  0.117956  0.433834  1
  Si  Si170  1  0.121617  0.117948  0.375072  1
  Si  Si171  1  0.189720  0.250033  0.329172  1
  Si  Si172  1  0.378832  0.382109  0.312645  1
  Si  Si173  1  0.378834  0.382097  0.496269  1
  Si  Si174  1  0.378785  0.617947  0.312642  1
  Si  Si175  1  0.378789  0.617936  0.496267  1
  Si  Si176  1  0.122664  0.882105  0.283093  1
  Si  Si177  1  0.121600  0.882117  0.433837  1
  Si  Si178  1  0.121594  0.882109  0.375074  1
  Si  Si179  1  0.189690  0.750033  0.479738  1
  Si  Si180  1  0.189675  0.750029  0.329172  1
  Si  Si181  1  0.877030  0.117981  0.283094  1
  Si  Si182  1  0.878139  0.117967  0.375073  1
  Si  Si183  1  0.878145  0.117977  0.433836  1
  Si  Si184  1  0.810036  0.250056  0.479736  1
  Si  Si185  1  0.810029  0.250052  0.329174  1
  Si  Si186  1  0.000000  0.382112  0.496003  1
  Si  Si187  1  0.620883  0.617988  0.312643  1
  Si  Si188  1  0.620888  0.617975  0.496268  1
  Si  Si189  1  0.620932  0.382135  0.496270  1
  Si  Si190  1  0.000000  0.382108  0.312904  1
  Si  Si191  1  -0.000000  0.617980  0.496003  1
  Si  Si192  1  0.620930  0.382148  0.312645  1
  Si  Si193  1  0.000000  0.617975  0.312904  1
  Si  Si194  1  0.877021  0.882114  0.283094  1
  Si  Si195  1  0.878115  0.882129  0.375076  1
  Si  Si196  1  0.878122  0.882137  0.433838  1
  Si  Si197  1  0.809993  0.750058  0.329175  1
  Si  Si198  1  0.809993  0.750053  0.479736  1
  Si  Si199  1  0.122673  0.117972  0.525816  1
  Si  Si200  1  0.121624  0.117956  0.676557  1
  Si  Si201  1  0.121617  0.117948  0.617795  1
  Si  Si202  1  0.189720  0.250033  0.571895  1
  Si  Si203  1  0.378832  0.382109  0.555367  1
  Si  Si204  1  0.378785  0.617947  0.555364  1
  Si  Si205  1  0.122664  0.882105  0.525816  1
  Si  Si206  1  0.121600  0.882117  0.676559  1
  Si  Si207  1  0.121594  0.882109  0.617797  1
  Si  Si208  1  0.189675  0.750029  0.571894  1
  Si  Si209  1  0.877030  0.117981  0.525816  1
  Si  Si210  1  0.878139  0.117967  0.617796  1
  Si  Si211  1  0.878145  0.117977  0.676558  1
  Si  Si212  1  0.810029  0.250052  0.571896  1
  Si  Si213  1  0.620883  0.617988  0.555365  1
  Si  Si214  1  -0.000000  0.382108  0.555627  1
  Si  Si215  1  0.620930  0.382148  0.555368  1
  Si  Si216  1  0.000000  0.617975  0.555627  1
  Si  Si217  1  0.877021  0.882114  0.525816  1
  Si  Si218  1  0.878115  0.882129  0.617798  1
  Si  Si219  1  0.878122  0.882137  0.676561  1
  Si  Si220  1  0.809993  0.750058  0.571897  1
  H  H221  1  0.176812  0.192363  0.095545  1
  H  H222  1  0.176777  0.807686  0.095547  1
  H  H223  1  0.822944  0.192386  0.095547  1
  H  H224  1  0.822913  0.807713  0.095550  1
  H  H225  1  0.176822  0.192371  0.713361  1
  H  H226  1  0.176792  0.807699  0.713363  1
  H  H227  1  0.822949  0.192397  0.713361  1
  H  H228  1  0.822913  0.807727  0.713364  1
