# generated using pymatgen
data_Si7H2O15
_symmetry_space_group_name_H-M   'P 1'
_cell_length_a   5.05429154
_cell_length_b   17.40165079
_cell_length_c   44.29016778
_cell_angle_alpha   115.09972516
_cell_angle_beta   90.00000000
_cell_angle_gamma   90.00000000
_symmetry_Int_Tables_number   1
_chemical_formula_structural   Si7H2O15
_chemical_formula_sum   'Si28 H8 O60'
_cell_volume   3527.60939269
_cell_formula_units_Z   4
loop_
 _symmetry_equiv_pos_site_id
 _symmetry_equiv_pos_as_xyz
  1  'x, y, z'
loop_
 _atom_site_type_symbol
 _atom_site_label
 _atom_site_symmetry_multiplicity
 _atom_site_fract_x
 _atom_site_fract_y
 _atom_site_fract_z
 _atom_site_occupancy
  Si  Si1  1  0.263225  0.196494  0.331395  1
  Si  Si2  1  0.263360  0.696495  0.331395  1
  Si  Si3  1  0.766818  0.803634  0.432553  1
  Si  Si4  1  0.766678  0.303635  0.432554  1
  Si  Si5  1  0.763360  0.803598  0.335294  1
  Si  Si6  1  0.763225  0.303599  0.335294  1
  Si  Si7  1  0.263225  0.196494  0.498062  1
  Si  Si8  1  0.263360  0.696495  0.498062  1
  Si  Si9  1  0.266678  0.196457  0.400802  1
  Si  Si10  1  0.266818  0.696459  0.400803  1
  Si  Si11  1  0.721101  0.943377  0.407226  1
  Si  Si12  1  0.721098  0.443381  0.407226  1
  Si  Si13  1  0.221099  0.056711  0.426130  1
  Si  Si14  1  0.221101  0.556716  0.426131  1
  O  O15  1  0.531882  0.741487  0.332208  1
  O  O16  1  0.531725  0.241504  0.332217  1
  O  O17  1  0.238320  0.115481  0.297657  1
  O  O18  1  0.238342  0.615485  0.297658  1
  O  O19  1  0.753029  0.823474  0.303893  1
  O  O20  1  0.752847  0.323473  0.303893  1
  O  O21  1  0.535599  0.741721  0.414657  1
  O  O22  1  0.535432  0.241740  0.414654  1
  O  O23  1  0.531882  0.741487  0.498874  1
  O  O24  1  0.531725  0.241504  0.498883  1
  O  O25  1  0.031725  0.258589  0.334473  1
  O  O26  1  0.031881  0.758606  0.334482  1
  O  O27  1  0.035432  0.258352  0.418702  1
  O  O28  1  0.035599  0.758372  0.418699  1
  O  O29  1  0.744262  0.884690  0.425811  1
  O  O30  1  0.744240  0.384694  0.425811  1
  O  O31  1  0.738342  0.884608  0.369032  1
  O  O32  1  0.738319  0.384612  0.369032  1
  O  O33  1  0.238320  0.115481  0.464324  1
  O  O34  1  0.238342  0.615485  0.464324  1
  O  O35  1  0.244240  0.115398  0.407545  1
  O  O36  1  0.244262  0.615403  0.407545  1
  O  O37  1  0.753029  0.823474  0.470560  1
  O  O38  1  0.752847  0.323473  0.470560  1
  O  O39  1  0.252847  0.176620  0.362796  1
  O  O40  1  0.253029  0.676618  0.362796  1
  O  O41  1  0.949693  0.009749  0.417949  1
  O  O42  1  0.949694  0.509753  0.417949  1
  O  O43  1  0.449694  0.990340  0.415407  1
  O  O44  1  0.449692  0.490344  0.415407  1
  H  H45  1  0.238320  0.115481  0.277336  1
  H  H46  1  0.238342  0.615485  0.277337  1
  H  H47  1  0.753029  0.823474  0.283573  1
  H  H48  1  0.752847  0.323473  0.283573  1
  Si  Si49  1  0.766818  0.803634  0.599220  1
  Si  Si50  1  0.766678  0.303635  0.599220  1
  Si  Si51  1  0.763360  0.803598  0.501961  1
  Si  Si52  1  0.763225  0.303599  0.501961  1
  Si  Si53  1  0.263225  0.196494  0.664729  1
  Si  Si54  1  0.263360  0.696495  0.664729  1
  Si  Si55  1  0.266678  0.196457  0.567469  1
  Si  Si56  1  0.266818  0.696459  0.567470  1
  Si  Si57  1  0.721101  0.943377  0.573892  1
  Si  Si58  1  0.721098  0.443381  0.573893  1
  Si  Si59  1  0.221099  0.056711  0.592796  1
  Si  Si60  1  0.221101  0.556716  0.592797  1
  Si  Si61  1  0.763360  0.803598  0.668628  1
  Si  Si62  1  0.763225  0.303599  0.668628  1
  O  O63  1  0.535599  0.741721  0.581323  1
  O  O64  1  0.535432  0.241740  0.581320  1
  O  O65  1  0.531882  0.741487  0.665541  1
  O  O66  1  0.531725  0.241504  0.665550  1
  O  O67  1  0.031725  0.258589  0.501139  1
  O  O68  1  0.031881  0.758606  0.501149  1
  O  O69  1  0.035432  0.258352  0.585369  1
  O  O70  1  0.035599  0.758372  0.585367  1
  O  O71  1  0.744262  0.884690  0.592477  1
  O  O72  1  0.744240  0.384694  0.592479  1
  O  O73  1  0.738342  0.884608  0.535699  1
  O  O74  1  0.738319  0.384612  0.535699  1
  O  O75  1  0.238320  0.115481  0.630991  1
  O  O76  1  0.238342  0.615485  0.630992  1
  O  O77  1  0.244240  0.115398  0.574211  1
  O  O78  1  0.244262  0.615403  0.574212  1
  O  O79  1  0.753029  0.823474  0.637227  1
  O  O80  1  0.752847  0.323473  0.637227  1
  O  O81  1  0.252847  0.176620  0.529463  1
  O  O82  1  0.253029  0.676618  0.529463  1
  O  O83  1  0.949693  0.009749  0.584615  1
  O  O84  1  0.949694  0.509753  0.584616  1
  O  O85  1  0.449694  0.990340  0.582073  1
  O  O86  1  0.449692  0.490344  0.582075  1
  O  O87  1  0.031725  0.258589  0.667806  1
  O  O88  1  0.031881  0.758606  0.667816  1
  O  O89  1  0.738342  0.884608  0.702365  1
  O  O90  1  0.738319  0.384612  0.702366  1
  O  O91  1  0.252847  0.176620  0.696130  1
  O  O92  1  0.253029  0.676618  0.696130  1
  H  H93  1  0.738342  0.884608  0.722686  1
  H  H94  1  0.738319  0.384612  0.722686  1
  H  H95  1  0.252847  0.176620  0.716450  1
  H  H96  1  0.253029  0.676618  0.716450  1
