# generated using pymatgen
data_Si6H2O13
_symmetry_space_group_name_H-M   'P 1'
_cell_length_a   7.52286856
_cell_length_b   18.52622819
_cell_length_c   43.25917898
_cell_angle_alpha   46.50772482
_cell_angle_beta   90.00000000
_cell_angle_gamma   90.00000000
_symmetry_Int_Tables_number   1
_chemical_formula_structural   Si6H2O13
_chemical_formula_sum   'Si24 H8 O52'
_cell_volume   4373.87653682
_cell_formula_units_Z   4
loop_
 _symmetry_equiv_pos_site_id
 _symmetry_equiv_pos_as_xyz
  1  'x, y, z'
loop_
 _atom_site_type_symbol
 _atom_site_label
 _atom_site_symmetry_multiplicity
 _atom_site_fract_x
 _atom_site_fract_y
 _atom_site_fract_z
 _atom_site_occupancy
  O  O1  1  0.148104  0.946405  0.180126  1
  O  O2  1  0.351727  0.446405  0.180126  1
  O  O3  1  0.485696  0.616496  0.435242  1
  O  O4  1  0.014134  0.383307  0.356598  1
  O  O5  1  0.514137  0.116496  0.324759  1
  O  O6  1  0.985694  0.883307  0.246115  1
  O  O7  1  0.514135  0.383307  0.246115  1
  O  O8  1  0.985696  0.616495  0.324759  1
  O  O9  1  0.485694  0.883307  0.356598  1
  O  O10  1  0.014137  0.116495  0.435242  1
  O  O11  1  0.903890  0.577104  0.391806  1
  O  O12  1  0.595941  0.422699  0.289941  1
  O  O13  1  0.095942  0.077104  0.391416  1
  O  O14  1  0.403889  0.922699  0.289551  1
  O  O15  1  0.095941  0.422698  0.289551  1
  O  O16  1  0.403890  0.577104  0.391416  1
  O  O17  1  0.903889  0.922699  0.289940  1
  O  O18  1  0.595941  0.077104  0.391806  1
  O  O19  1  0.156185  0.602520  0.423135  1
  O  O20  1  0.343646  0.397282  0.336253  1
  O  O21  1  0.843647  0.102520  0.345105  1
  O  O22  1  0.656184  0.897283  0.258222  1
  O  O23  1  0.843647  0.397282  0.258223  1
  O  O24  1  0.656186  0.602520  0.345105  1
  O  O25  1  0.156184  0.897283  0.336252  1
  O  O26  1  0.343648  0.102520  0.423135  1
  O  O27  1  0.821497  0.618218  0.435727  1
  O  O28  1  0.678335  0.381585  0.358099  1
  O  O29  1  0.178337  0.118218  0.323259  1
  O  O30  1  0.321495  0.881584  0.245631  1
  O  O31  1  0.178334  0.381585  0.245630  1
  O  O32  1  0.321496  0.618217  0.323259  1
  O  O33  1  0.821494  0.881585  0.358098  1
  O  O34  1  0.678335  0.118217  0.435727  1
  O  O35  1  0.648104  0.553398  0.206477  1
  O  O36  1  0.851727  0.446405  0.385391  1
  O  O37  1  0.351727  0.053398  0.295966  1
  O  O38  1  0.148104  0.946405  0.474880  1
  O  O39  1  0.351727  0.446405  0.474880  1
  O  O40  1  0.148104  0.553398  0.295967  1
  O  O41  1  0.648104  0.946405  0.385390  1
  O  O42  1  0.851727  0.053397  0.206477  1
  O  O43  1  0.964095  0.749901  0.363415  1
  O  O44  1  0.535736  0.249901  0.363415  1
  O  O45  1  0.035736  0.249902  0.317942  1
  O  O46  1  0.464095  0.749901  0.317942  1
  O  O47  1  0.648785  0.749902  0.426780  1
  O  O48  1  0.851046  0.249902  0.426780  1
  O  O49  1  0.351046  0.249902  0.254577  1
  O  O50  1  0.148785  0.749901  0.254577  1
  O  O51  1  0.648104  0.553398  0.501231  1
  O  O52  1  0.851727  0.053397  0.501231  1
  Si  Si53  1  0.962338  0.635209  0.404508  1
  Si  Si54  1  0.537493  0.364593  0.336896  1
  Si  Si55  1  0.037494  0.135209  0.344461  1
  Si  Si56  1  0.462338  0.864594  0.276849  1
  Si  Si57  1  0.037492  0.364594  0.276849  1
  Si  Si58  1  0.462338  0.635209  0.344461  1
  Si  Si59  1  0.962337  0.864594  0.336896  1
  Si  Si60  1  0.537493  0.135209  0.404508  1
  Si  Si61  1  0.348864  0.559497  0.431162  1
  Si  Si62  1  0.150965  0.440307  0.318917  1
  Si  Si63  1  0.650967  0.059496  0.362440  1
  Si  Si64  1  0.848864  0.940306  0.250195  1
  Si  Si65  1  0.650967  0.440307  0.250195  1
  Si  Si66  1  0.848865  0.559496  0.362441  1
  Si  Si67  1  0.348864  0.940307  0.318916  1
  Si  Si68  1  0.150969  0.059495  0.431162  1
  Si  Si69  1  0.651085  0.635929  0.450858  1
  Si  Si70  1  0.848747  0.363874  0.383671  1
  Si  Si71  1  0.348747  0.135929  0.297686  1
  Si  Si72  1  0.151083  0.863875  0.230499  1
  Si  Si73  1  0.348746  0.363875  0.230499  1
  Si  Si74  1  0.151084  0.635927  0.297687  1
  Si  Si75  1  0.651083  0.863874  0.383670  1
  Si  Si76  1  0.848746  0.135928  0.450858  1
  H  H77  1  0.148104  0.946405  0.159321  1
  H  H78  1  0.351727  0.446405  0.159322  1
  H  H79  1  0.648104  0.553398  0.185672  1
  H  H80  1  0.148104  0.946405  0.495685  1
  H  H81  1  0.351727  0.446405  0.495685  1
  H  H82  1  0.851727  0.053397  0.185673  1
  H  H83  1  0.648104  0.553398  0.522036  1
  H  H84  1  0.851727  0.053397  0.522036  1
