# generated using pymatgen
data_Si37(H3O20)4
_symmetry_space_group_name_H-M   'P 1'
_cell_length_a   24.41204530
_cell_length_b   24.41160814
_cell_length_c   69.89179555
_cell_angle_alpha   45.00446172
_cell_angle_beta   90.00000000
_cell_angle_gamma   59.99544042
_symmetry_Int_Tables_number   1
_chemical_formula_structural   Si37(H3O20)4
_chemical_formula_sum   'Si148 H48 O320'
_cell_volume   20825.9361816
_cell_formula_units_Z   4
loop_
 _symmetry_equiv_pos_site_id
 _symmetry_equiv_pos_as_xyz
  1  'x, y, z'
loop_
 _atom_site_type_symbol
 _atom_site_label
 _atom_site_symmetry_multiplicity
 _atom_site_fract_x
 _atom_site_fract_y
 _atom_site_fract_z
 _atom_site_occupancy
  O  O1  1  0.180993  0.258076  0.195695  1
  O  O2  1  0.317325  0.245064  0.198558  1
  O  O3  1  0.438322  0.410054  0.198795  1
  O  O4  1  0.096518  0.216193  0.185425  1
  O  O5  1  0.311074  0.120791  0.215863  1
  O  O6  1  0.022553  0.102032  0.209873  1
  O  O7  1  0.374208  0.178781  0.182535  1
  O  O8  1  0.096572  0.592783  0.215499  1
  O  O9  1  0.151428  0.530936  0.198884  1
  O  O10  1  0.153109  0.665293  0.195870  1
  O  O11  1  0.020430  0.605510  0.182747  1
  O  O12  1  0.445800  0.531974  0.183151  1
  O  O13  1  0.476831  0.646328  0.198983  1
  O  O14  1  0.182043  0.877927  0.213226  1
  O  O15  1  0.093529  0.096075  0.181028  1
  O  O16  1  0.065992  0.836894  0.185477  1
  O  O17  1  0.304566  0.820684  0.209857  1
  O  O18  1  0.056979  0.918011  0.210620  1
  O  O19  1  0.224977  0.968182  0.199292  1
  O  O20  1  0.377827  0.850046  0.183830  1
  O  O21  1  0.560243  0.287700  0.195864  1
  O  O22  1  0.684886  0.373926  0.167417  1
  O  O23  1  0.813821  0.257299  0.181965  1
  O  O24  1  0.568423  0.337985  0.215104  1
  O  O25  1  0.938635  0.213889  0.213823  1
  O  O26  1  0.687853  0.242021  0.185439  1
  O  O27  1  0.804554  0.319257  0.199591  1
  O  O28  1  0.875904  0.069109  0.210836  1
  O  O29  1  0.725548  0.468867  0.136894  1
  O  O30  1  0.876843  0.352209  0.209688  1
  O  O31  1  0.772785  0.531665  0.182578  1
  O  O32  1  0.874767  0.569748  0.198802  1
  O  O33  1  0.848521  0.967370  0.215306  1
  O  O34  1  0.932818  0.968462  0.182869  1
  O  O35  1  0.937916  0.908383  0.165765  1
  O  O36  1  0.772271  0.922243  0.211073  1
  O  O37  1  0.805904  0.070946  0.136779  1
  O  O38  1  0.695240  0.931390  0.182838  1
  O  O39  1  0.874000  0.898245  0.198738  1
  O  O40  1  0.554546  0.968961  0.198568  1
  O  O41  1  0.347967  0.471240  0.367371  1
  O  O42  1  0.061917  0.589529  0.368178  1
  O  O43  1  0.180993  0.258076  0.442652  1
  O  O44  1  0.063540  0.087929  0.278868  1
  O  O45  1  0.430712  0.975730  0.304484  1
  O  O46  1  0.431220  0.472092  0.398411  1
  O  O47  1  0.186689  0.382880  0.398372  1
  O  O48  1  0.402094  0.286412  0.414907  1
  O  O49  1  0.317325  0.245064  0.445515  1
  O  O50  1  0.438322  0.410054  0.445752  1
  O  O51  1  0.151643  0.031715  0.229101  1
  O  O52  1  0.438354  0.911283  0.288530  1
  O  O53  1  0.068963  0.029588  0.260900  1
  O  O54  1  0.069090  0.527875  0.415609  1
  O  O55  1  0.096518  0.216193  0.432382  1
  O  O56  1  0.311074  0.120791  0.462820  1
  O  O57  1  0.272305  0.424664  0.394798  1
  O  O58  1  0.302642  0.573470  0.393811  1
  O  O59  1  0.124782  0.602196  0.395250  1
  O  O60  1  0.304258  0.071569  0.260129  1
  O  O61  1  0.124604  0.105540  0.244541  1
  O  O62  1  0.022553  0.102032  0.456830  1
  O  O63  1  0.123257  0.323213  0.394581  1
  O  O64  1  0.446097  0.034235  0.244228  1
  O  O65  1  0.196494  0.427165  0.419749  1
  O  O66  1  0.375972  0.396023  0.419266  1
  O  O67  1  0.228107  0.076248  0.233549  1
  O  O68  1  0.197701  0.926995  0.306429  1
  O  O69  1  0.376708  0.898180  0.322609  1
  O  O70  1  0.477719  0.398099  0.383660  1
  O  O71  1  0.053103  0.467928  0.384661  1
  O  O72  1  0.374208  0.178781  0.429492  1
  O  O73  1  0.182014  0.755930  0.367765  1
  O  O74  1  0.345657  0.971654  0.337490  1
  O  O75  1  0.347409  0.833101  0.401798  1
  O  O76  1  0.182103  0.378618  0.289396  1
  O  O77  1  0.311421  0.255675  0.306077  1
  O  O78  1  0.096572  0.592783  0.462456  1
  O  O79  1  0.401939  0.786196  0.381224  1
  O  O80  1  0.187428  0.881161  0.350054  1
  O  O81  1  0.151428  0.530936  0.445841  1
  O  O82  1  0.317982  0.744014  0.370663  1
  O  O83  1  0.317621  0.119860  0.353311  1
  O  O84  1  0.153109  0.665293  0.442827  1
  O  O85  1  0.402405  0.908346  0.384956  1
  O  O86  1  0.188512  0.242863  0.309212  1
  O  O87  1  0.311938  0.620022  0.414730  1
  O  O88  1  0.097677  0.714876  0.398612  1
  O  O89  1  0.272777  0.923143  0.333204  1
  O  O90  1  0.272827  0.030374  0.369029  1
  O  O91  1  0.372287  0.072852  0.332552  1
  O  O92  1  0.055998  0.419700  0.272807  1
  O  O93  1  0.020430  0.605510  0.429704  1
  O  O94  1  0.445800  0.531974  0.430108  1
  O  O95  1  0.476831  0.646328  0.445940  1
  O  O96  1  0.127176  0.819467  0.384563  1
  O  O97  1  0.227441  0.576847  0.418802  1
  O  O98  1  0.226554  0.468596  0.260243  1
  O  O99  1  0.445745  0.075996  0.357066  1
  O  O100  1  0.475052  0.899348  0.356360  1
  O  O101  1  0.124553  0.430257  0.244678  1
  O  O102  1  0.372163  0.681453  0.418560  1
  O  O103  1  0.052772  0.967147  0.322500  1
  O  O104  1  0.023332  0.852961  0.394992  1
  O  O105  1  0.182043  0.877927  0.460183  1
  O  O106  1  0.061730  0.282626  0.320048  1
  O  O107  1  0.347711  0.334130  0.370962  1
  O  O108  1  0.061056  0.781968  0.230864  1
  O  O109  1  0.093529  0.096075  0.427985  1
  O  O110  1  0.311876  0.754992  0.257970  1
  O  O111  1  0.067253  0.335272  0.339308  1
  O  O112  1  0.065992  0.836894  0.432434  1
  O  O113  1  0.150589  0.167614  0.412315  1
  O  O114  1  0.438496  0.713239  0.247785  1
  O  O115  1  0.320080  0.616602  0.278688  1
  O  O116  1  0.437797  0.213620  0.337081  1
  O  O117  1  0.190970  0.741168  0.261678  1
  O  O118  1  0.402294  0.409804  0.350351  1
  O  O119  1  0.432443  0.664373  0.227790  1
  O  O120  1  0.430496  0.166494  0.380992  1
  O  O121  1  0.304566  0.820684  0.456814  1
  O  O122  1  0.124682  0.148449  0.383804  1
  O  O123  1  0.271394  0.531784  0.306873  1
  O  O124  1  0.303240  0.319213  0.322665  1
  O  O125  1  0.123326  0.649805  0.232675  1
  O  O126  1  0.056979  0.918011  0.457577  1
  O  O127  1  0.374657  0.571872  0.322145  1
  O  O128  1  0.478362  0.147907  0.418928  1
  O  O129  1  0.224977  0.968182  0.446249  1
  O  O130  1  0.195470  0.181692  0.356702  1
  O  O131  1  0.377827  0.850046  0.430787  1
  O  O132  1  0.194340  0.680138  0.244828  1
  O  O133  1  0.373538  0.352909  0.332954  1
  O  O134  1  0.127039  0.929698  0.232841  1
  O  O135  1  0.448010  0.572615  0.296282  1
  O  O136  1  0.019752  0.354621  0.368169  1
  O  O137  1  0.848524  0.835274  0.277202  1
  O  O138  1  0.560243  0.287700  0.442821  1
  O  O139  1  0.684886  0.373926  0.414374  1
  O  O140  1  0.560634  0.787207  0.352422  1
  O  O141  1  0.813821  0.257299  0.428922  1
  O  O142  1  0.592954  0.597169  0.338610  1
  O  O143  1  0.568423  0.337985  0.462061  1
  O  O144  1  0.568040  0.835186  0.308534  1
  O  O145  1  0.816131  0.125284  0.228742  1
  O  O146  1  0.938147  0.713080  0.371434  1
  O  O147  1  0.650568  0.668080  0.318595  1
  O  O148  1  0.938635  0.213889  0.460780  1
  O  O149  1  0.906969  0.904595  0.262649  1
  O  O150  1  0.687853  0.242021  0.432396  1
  O  O151  1  0.931745  0.664528  0.351383  1
  O  O152  1  0.932392  0.165752  0.258064  1
  O  O153  1  0.774622  0.031917  0.244485  1
  O  O154  1  0.803906  0.819731  0.333299  1
  O  O155  1  0.622984  0.151964  0.260288  1
  O  O156  1  0.804554  0.319257  0.446548  1
  O  O157  1  0.623359  0.648332  0.357087  1
  O  O158  1  0.875904  0.069109  0.457793  1
  O  O159  1  0.554412  0.423993  0.395509  1
  O  O160  1  0.977432  0.647187  0.322466  1
  O  O161  1  0.693792  0.182370  0.232725  1
  O  O162  1  0.875891  0.850689  0.306887  1
  O  O163  1  0.725548  0.468867  0.383851  1
  O  O164  1  0.695837  0.681836  0.366952  1
  O  O165  1  0.876843  0.352209  0.456645  1
  O  O166  1  0.946648  0.075362  0.234799  1
  O  O167  1  0.625317  0.431276  0.368461  1
  O  O168  1  0.521716  0.855613  0.270357  1
  O  O169  1  0.843854  0.474595  0.242973  1
  O  O170  1  0.682439  0.257237  0.319543  1
  O  O171  1  0.683684  0.876615  0.337930  1
  O  O172  1  0.848302  0.331933  0.247655  1
  O  O173  1  0.597905  0.091214  0.306546  1
  O  O174  1  0.813320  0.755503  0.381471  1
  O  O175  1  0.686830  0.382151  0.275239  1
  O  O176  1  0.902785  0.286497  0.290896  1
  O  O177  1  0.816269  0.243310  0.323017  1
  O  O178  1  0.652420  0.027831  0.354205  1
  O  O179  1  0.656464  0.161933  0.290615  1
  O  O180  1  0.817566  0.622218  0.400723  1
  O  O181  1  0.688039  0.742158  0.385117  1
  O  O182  1  0.902293  0.407615  0.227835  1
  O  O183  1  0.597024  0.212657  0.309646  1
  O  O184  1  0.811214  0.118257  0.339455  1
  O  O185  1  0.772869  0.421970  0.271789  1
  O  O186  1  0.772785  0.531665  0.429535  1
  O  O187  1  0.555341  0.921119  0.333520  1
  O  O188  1  0.521742  0.103678  0.332907  1
  O  O189  1  0.874767  0.569748  0.445759  1
  O  O190  1  0.624921  0.319603  0.272188  1
  O  O191  1  0.944686  0.032814  0.368726  1
  O  O192  1  0.979708  0.145596  0.296298  1
  O  O193  1  0.726401  0.078282  0.357154  1
  O  O194  1  0.727391  0.967996  0.322399  1
  O  O195  1  0.625966  0.927783  0.357382  1
  O  O196  1  0.947386  0.572963  0.419736  1
  O  O197  1  0.975787  0.397023  0.261176  1
  O  O198  1  0.553374  0.467067  0.261287  1
  O  O199  1  0.524754  0.347840  0.245403  1
  O  O200  1  0.875350  0.178391  0.306999  1
  O  O201  1  0.682428  0.756497  0.243940  1
  O  O202  1  0.562759  0.588319  0.244848  1
  O  O203  1  0.848521  0.967370  0.462263  1
  O  O204  1  0.559641  0.093534  0.400755  1
  O  O205  1  0.932818  0.968462  0.429826  1
  O  O206  1  0.932933  0.469763  0.276287  1
  O  O207  1  0.906235  0.781288  0.258613  1
  O  O208  1  0.689858  0.877988  0.227861  1
  O  O209  1  0.651602  0.531947  0.322508  1
  O  O210  1  0.937058  0.410523  0.322794  1
  O  O211  1  0.819134  0.742285  0.247449  1
  O  O212  1  0.937916  0.908383  0.412722  1
  O  O213  1  0.568228  0.029540  0.384465  1
  O  O214  1  0.568554  0.528908  0.291896  1
  O  O215  1  0.812578  0.618786  0.291459  1
  O  O216  1  0.596680  0.715769  0.274529  1
  O  O217  1  0.803614  0.573095  0.270494  1
  O  O218  1  0.623638  0.604792  0.270792  1
  O  O219  1  0.772271  0.922243  0.458030  1
  O  O220  1  0.805904  0.070946  0.383736  1
  O  O221  1  0.622111  0.106725  0.367630  1
  O  O222  1  0.522327  0.603420  0.306539  1
  O  O223  1  0.946929  0.532162  0.306130  1
  O  O224  1  0.627173  0.819189  0.260772  1
  O  O225  1  0.726826  0.577586  0.294837  1
  O  O226  1  0.697466  0.426725  0.296665  1
  O  O227  1  0.875191  0.398526  0.294765  1
  O  O228  1  0.695240  0.931390  0.429795  1
  O  O229  1  0.874000  0.898245  0.445695  1
  O  O230  1  0.978199  0.895312  0.234103  1
  O  O231  1  0.874915  0.680260  0.294755  1
  O  O232  1  0.554546  0.968961  0.445525  1
  O  O233  1  0.063540  0.087929  0.525825  1
  O  O234  1  0.430712  0.975730  0.551441  1
  O  O235  1  0.151643  0.031715  0.476058  1
  O  O236  1  0.438354  0.911283  0.535487  1
  O  O237  1  0.068963  0.029588  0.507857  1
  O  O238  1  0.304258  0.071569  0.507086  1
  O  O239  1  0.124604  0.105540  0.491498  1
  O  O240  1  0.446097  0.034235  0.491185  1
  O  O241  1  0.228107  0.076248  0.480506  1
  O  O242  1  0.197701  0.926995  0.553386  1
  O  O243  1  0.376708  0.898180  0.569566  1
  O  O244  1  0.182103  0.378618  0.536353  1
  O  O245  1  0.311421  0.255675  0.553034  1
  O  O246  1  0.188512  0.242863  0.556169  1
  O  O247  1  0.055998  0.419700  0.519764  1
  O  O248  1  0.226554  0.468596  0.507200  1
  O  O249  1  0.124553  0.430257  0.491635  1
  O  O250  1  0.052772  0.967147  0.569457  1
  O  O251  1  0.061730  0.282626  0.567005  1
  O  O252  1  0.061056  0.781968  0.477821  1
  O  O253  1  0.311876  0.754992  0.504927  1
  O  O254  1  0.067253  0.335272  0.586265  1
  O  O255  1  0.438496  0.713239  0.494742  1
  O  O256  1  0.320080  0.616602  0.525645  1
  O  O257  1  0.190970  0.741168  0.508635  1
  O  O258  1  0.432443  0.664373  0.474747  1
  O  O259  1  0.271394  0.531784  0.553830  1
  O  O260  1  0.303240  0.319213  0.569622  1
  O  O261  1  0.123326  0.649805  0.479632  1
  O  O262  1  0.374657  0.571872  0.569102  1
  O  O263  1  0.194340  0.680138  0.491785  1
  O  O264  1  0.127039  0.929698  0.479798  1
  O  O265  1  0.448010  0.572615  0.543239  1
  O  O266  1  0.019752  0.354621  0.615126  1
  O  O267  1  0.848524  0.835274  0.524159  1
  O  O268  1  0.592954  0.597169  0.585567  1
  O  O269  1  0.568040  0.835186  0.555491  1
  O  O270  1  0.816131  0.125284  0.475699  1
  O  O271  1  0.650568  0.668080  0.565552  1
  O  O272  1  0.906969  0.904595  0.509606  1
  O  O273  1  0.932392  0.165752  0.505021  1
  O  O274  1  0.774622  0.031917  0.491442  1
  O  O275  1  0.622984  0.151964  0.507245  1
  O  O276  1  0.977432  0.647187  0.569423  1
  O  O277  1  0.693792  0.182370  0.479682  1
  O  O278  1  0.875891  0.850689  0.553844  1
  O  O279  1  0.946648  0.075362  0.481756  1
  O  O280  1  0.625317  0.431276  0.615418  1
  O  O281  1  0.521716  0.855613  0.517314  1
  O  O282  1  0.843854  0.474595  0.489930  1
  O  O283  1  0.682439  0.257237  0.566500  1
  O  O284  1  0.848302  0.331933  0.494612  1
  O  O285  1  0.597905  0.091214  0.553503  1
  O  O286  1  0.686830  0.382151  0.522196  1
  O  O287  1  0.902785  0.286497  0.537853  1
  O  O288  1  0.816269  0.243310  0.569974  1
  O  O289  1  0.656464  0.161933  0.537572  1
  O  O290  1  0.902293  0.407615  0.474792  1
  O  O291  1  0.597024  0.212657  0.556603  1
  O  O292  1  0.772869  0.421970  0.518746  1
  O  O293  1  0.624921  0.319603  0.519145  1
  O  O294  1  0.979708  0.145596  0.543255  1
  O  O295  1  0.727391  0.967996  0.569356  1
  O  O296  1  0.975787  0.397023  0.508133  1
  O  O297  1  0.553374  0.467067  0.508244  1
  O  O298  1  0.524754  0.347840  0.492360  1
  O  O299  1  0.875350  0.178391  0.553956  1
  O  O300  1  0.682428  0.756497  0.490897  1
  O  O301  1  0.562759  0.588319  0.491805  1
  O  O302  1  0.932933  0.469763  0.523244  1
  O  O303  1  0.906235  0.781288  0.505570  1
  O  O304  1  0.689858  0.877988  0.474818  1
  O  O305  1  0.651602  0.531947  0.569465  1
  O  O306  1  0.937058  0.410523  0.569751  1
  O  O307  1  0.819134  0.742285  0.494406  1
  O  O308  1  0.568554  0.528908  0.538853  1
  O  O309  1  0.812578  0.618786  0.538416  1
  O  O310  1  0.596680  0.715769  0.521486  1
  O  O311  1  0.803614  0.573095  0.517451  1
  O  O312  1  0.623638  0.604792  0.517749  1
  O  O313  1  0.522327  0.603420  0.553496  1
  O  O314  1  0.946929  0.532162  0.553087  1
  O  O315  1  0.627173  0.819189  0.507730  1
  O  O316  1  0.726826  0.577586  0.541794  1
  O  O317  1  0.697466  0.426725  0.543622  1
  O  O318  1  0.875191  0.398526  0.541722  1
  O  O319  1  0.978199  0.895312  0.481060  1
  O  O320  1  0.874915  0.680260  0.541712  1
  Si  Si321  1  0.097139  0.039838  0.212919  1
  Si  Si322  1  0.365513  0.140814  0.210642  1
  Si  Si323  1  0.095979  0.539661  0.210411  1
  Si  Si324  1  0.495504  0.407426  0.210898  1
  Si  Si325  1  0.254514  0.858493  0.218940  1
  Si  Si326  1  0.007218  0.892617  0.214546  1
  Si  Si327  1  0.386052  0.766732  0.216133  1
  Si  Si328  1  0.758772  0.354994  0.171989  1
  Si  Si329  1  0.865376  0.131982  0.213680  1
  Si  Si330  1  0.884632  0.268786  0.218598  1
  Si  Si331  1  0.848057  0.406361  0.216229  1
  Si  Si332  1  0.847972  0.893267  0.220238  1
  Si  Si333  1  0.745736  0.869643  0.216460  1
  Si  Si334  1  0.885723  0.961287  0.170989  1
  Si  Si335  1  0.347814  0.398304  0.398808  1
  Si  Si336  1  0.115891  0.535643  0.399571  1
  Si  Si337  1  0.254220  0.130769  0.226959  1
  Si  Si338  1  0.116989  0.036914  0.272890  1
  Si  Si339  1  0.097139  0.039838  0.459876  1
  Si  Si340  1  0.133612  0.362031  0.403622  1
  Si  Si341  1  0.493027  0.911947  0.276556  1
  Si  Si342  1  0.242982  0.372779  0.414442  1
  Si  Si343  1  0.383132  0.464381  0.414138  1
  Si  Si344  1  0.152531  0.104240  0.224921  1
  Si  Si345  1  0.386152  0.963627  0.294106  1
  Si  Si346  1  0.402503  0.463299  0.355287  1
  Si  Si347  1  0.005855  0.590352  0.356570  1
  Si  Si348  1  0.365513  0.140814  0.457599  1
  Si  Si349  1  0.256700  0.628251  0.399010  1
  Si  Si350  1  0.347524  0.897159  0.342548  1
  Si  Si351  1  0.348337  0.905495  0.397292  1
  Si  Si352  1  0.256003  0.358133  0.294486  1
  Si  Si353  1  0.364303  0.128293  0.337392  1
  Si  Si354  1  0.006777  0.393896  0.281864  1
  Si  Si355  1  0.095979  0.539661  0.457368  1
  Si  Si356  1  0.495504  0.407426  0.457855  1
  Si  Si357  1  0.401351  0.732362  0.412526  1
  Si  Si358  1  0.133856  0.859884  0.355856  1
  Si  Si359  1  0.152154  0.603788  0.414795  1
  Si  Si360  1  0.243957  0.871246  0.338905  1
  Si  Si361  1  0.243119  0.141588  0.348122  1
  Si  Si362  1  0.151987  0.592784  0.226861  1
  Si  Si363  1  0.495085  0.102109  0.353144  1
  Si  Si364  1  0.400804  0.963840  0.353087  1
  Si  Si365  1  0.135967  0.369237  0.278119  1
  Si  Si366  1  0.364362  0.642291  0.409605  1
  Si  Si367  1  0.006741  0.089594  0.290274  1
  Si  Si368  1  0.098626  0.767541  0.403775  1
  Si  Si369  1  0.254514  0.858493  0.465897  1
  Si  Si370  1  0.114611  0.233572  0.350109  1
  Si  Si371  1  0.346801  0.409123  0.339184  1
  Si  Si372  1  0.112627  0.734365  0.224465  1
  Si  Si373  1  0.007218  0.892617  0.461503  1
  Si  Si374  1  0.367501  0.626050  0.290045  1
  Si  Si375  1  0.403169  0.230513  0.410379  1
  Si  Si376  1  0.150471  0.093189  0.417735  1
  Si  Si377  1  0.386052  0.766732  0.463090  1
  Si  Si378  1  0.245484  0.638315  0.273472  1
  Si  Si379  1  0.383642  0.267319  0.341928  1
  Si  Si380  1  0.137687  0.868351  0.229662  1
  Si  Si381  1  0.493808  0.602728  0.286711  1
  Si  Si382  1  0.095116  0.270300  0.400504  1
  Si  Si383  1  0.849831  0.907280  0.272808  1
  Si  Si384  1  0.612792  0.236455  0.226916  1
  Si  Si385  1  0.758772  0.354994  0.418946  1
  Si  Si386  1  0.616223  0.731355  0.348043  1
  Si  Si387  1  0.865376  0.131982  0.460637  1
  Si  Si388  1  0.506299  0.397494  0.403891  1
  Si  Si389  1  0.903244  0.733235  0.288687  1
  Si  Si390  1  0.743015  0.143689  0.223716  1
  Si  Si391  1  0.884650  0.766696  0.339907  1
  Si  Si392  1  0.649383  0.595363  0.350111  1
  Si  Si393  1  0.884632  0.268786  0.465555  1
  Si  Si394  1  0.994446  0.102526  0.229851  1
  Si  Si395  1  0.635558  0.367742  0.402319  1
  Si  Si396  1  0.596941  0.769423  0.279422  1
  Si  Si397  1  0.847317  0.397942  0.274788  1
  Si  Si398  1  0.756449  0.130107  0.350606  1
  Si  Si399  1  0.756966  0.857712  0.342549  1
  Si  Si400  1  0.848057  0.406361  0.463186  1
  Si  Si401  1  0.503731  0.898940  0.336375  1
  Si  Si402  1  0.597468  0.036882  0.337961  1
  Si  Si403  1  0.866340  0.628535  0.412762  1
  Si  Si404  1  0.634109  0.360670  0.280520  1
  Si  Si405  1  0.992634  0.910308  0.400879  1
  Si  Si406  1  0.903709  0.231007  0.286559  1
  Si  Si407  1  0.743207  0.371343  0.291582  1
  Si  Si408  1  0.651476  0.102995  0.348694  1
  Si  Si409  1  0.652842  0.092585  0.294782  1
  Si  Si410  1  0.741901  0.644605  0.394930  1
  Si  Si411  1  0.637060  0.866944  0.353836  1
  Si  Si412  1  0.994669  0.601468  0.410866  1
  Si  Si413  1  0.900829  0.461962  0.232772  1
  Si  Si414  1  0.506230  0.589618  0.233069  1
  Si  Si415  1  0.599034  0.263648  0.278727  1
  Si  Si416  1  0.863912  0.138517  0.335387  1
  Si  Si417  1  0.756340  0.629142  0.275226  1
  Si  Si418  1  0.616729  0.535886  0.276240  1
  Si  Si419  1  0.847972  0.893267  0.467195  1
  Si  Si420  1  0.613641  0.039918  0.395812  1
  Si  Si421  1  0.596771  0.541492  0.334316  1
  Si  Si422  1  0.993686  0.409415  0.334720  1
  Si  Si423  1  0.636039  0.858165  0.232656  1
  Si  Si424  1  0.651404  0.603729  0.290886  1
  Si  Si425  1  0.884294  0.463639  0.291285  1
  Si  Si426  1  0.745736  0.869643  0.463417  1
  Si  Si427  1  0.885723  0.961287  0.417946  1
  Si  Si428  1  0.904091  0.959179  0.230972  1
  Si  Si429  1  0.866064  0.638875  0.286485  1
  Si  Si430  1  0.503780  0.094355  0.412211  1
  Si  Si431  1  0.254220  0.130769  0.473916  1
  Si  Si432  1  0.116989  0.036914  0.519847  1
  Si  Si433  1  0.493027  0.911947  0.523513  1
  Si  Si434  1  0.152531  0.104240  0.471878  1
  Si  Si435  1  0.386152  0.963627  0.541063  1
  Si  Si436  1  0.256003  0.358133  0.541443  1
  Si  Si437  1  0.006777  0.393896  0.528821  1
  Si  Si438  1  0.151987  0.592784  0.473818  1
  Si  Si439  1  0.135967  0.369237  0.525076  1
  Si  Si440  1  0.006741  0.089594  0.537231  1
  Si  Si441  1  0.112627  0.734365  0.471422  1
  Si  Si442  1  0.367501  0.626050  0.537002  1
  Si  Si443  1  0.245484  0.638315  0.520429  1
  Si  Si444  1  0.137687  0.868351  0.476619  1
  Si  Si445  1  0.493808  0.602728  0.533668  1
  Si  Si446  1  0.849831  0.907280  0.519765  1
  Si  Si447  1  0.612792  0.236455  0.473873  1
  Si  Si448  1  0.903244  0.733235  0.535644  1
  Si  Si449  1  0.743015  0.143689  0.470673  1
  Si  Si450  1  0.994446  0.102526  0.476808  1
  Si  Si451  1  0.596941  0.769423  0.526379  1
  Si  Si452  1  0.847317  0.397942  0.521745  1
  Si  Si453  1  0.634109  0.360670  0.527477  1
  Si  Si454  1  0.903709  0.231007  0.533516  1
  Si  Si455  1  0.743207  0.371343  0.538539  1
  Si  Si456  1  0.652842  0.092585  0.541739  1
  Si  Si457  1  0.900829  0.461962  0.479729  1
  Si  Si458  1  0.506230  0.589618  0.480026  1
  Si  Si459  1  0.599034  0.263648  0.525684  1
  Si  Si460  1  0.756340  0.629142  0.522183  1
  Si  Si461  1  0.616729  0.535886  0.523197  1
  Si  Si462  1  0.596771  0.541492  0.581273  1
  Si  Si463  1  0.993686  0.409415  0.581677  1
  Si  Si464  1  0.636039  0.858165  0.479613  1
  Si  Si465  1  0.651404  0.603729  0.537843  1
  Si  Si466  1  0.884294  0.463639  0.538242  1
  Si  Si467  1  0.904091  0.959179  0.477929  1
  Si  Si468  1  0.866064  0.638875  0.533442  1
  H  H469  1  0.180993  0.258076  0.182818  1
  H  H470  1  0.317325  0.245064  0.185681  1
  H  H471  1  0.438322  0.410054  0.185918  1
  H  H472  1  0.096518  0.216193  0.172548  1
  H  H473  1  0.374208  0.178781  0.169658  1
  H  H474  1  0.151428  0.530936  0.186007  1
  H  H475  1  0.153109  0.665293  0.182993  1
  H  H476  1  0.020430  0.605510  0.169870  1
  H  H477  1  0.445800  0.531974  0.170274  1
  H  H478  1  0.476831  0.646328  0.186106  1
  H  H479  1  0.093529  0.096075  0.168151  1
  H  H480  1  0.065992  0.836894  0.172599  1
  H  H481  1  0.224977  0.968182  0.186415  1
  H  H482  1  0.377827  0.850046  0.170953  1
  H  H483  1  0.560243  0.287700  0.182987  1
  H  H484  1  0.684886  0.373926  0.154540  1
  H  H485  1  0.687853  0.242021  0.172561  1
  H  H486  1  0.725548  0.468867  0.124017  1
  H  H487  1  0.772785  0.531665  0.169701  1
  H  H488  1  0.874767  0.569748  0.185925  1
  H  H489  1  0.937916  0.908383  0.152888  1
  H  H490  1  0.805904  0.070946  0.123902  1
  H  H491  1  0.695240  0.931390  0.169961  1
  H  H492  1  0.554546  0.968961  0.185691  1
  H  H493  1  0.430712  0.975730  0.564318  1
  H  H494  1  0.197701  0.926995  0.566263  1
  H  H495  1  0.376708  0.898180  0.582443  1
  H  H496  1  0.311421  0.255675  0.565911  1
  H  H497  1  0.188512  0.242863  0.569046  1
  H  H498  1  0.052772  0.967147  0.582334  1
  H  H499  1  0.061730  0.282626  0.579882  1
  H  H500  1  0.067253  0.335272  0.599142  1
  H  H501  1  0.271394  0.531784  0.566707  1
  H  H502  1  0.303240  0.319213  0.582499  1
  H  H503  1  0.374657  0.571872  0.581979  1
  H  H504  1  0.019752  0.354621  0.628003  1
  H  H505  1  0.592954  0.597169  0.598444  1
  H  H506  1  0.568040  0.835186  0.568369  1
  H  H507  1  0.650568  0.668080  0.578429  1
  H  H508  1  0.977432  0.647187  0.582300  1
  H  H509  1  0.875891  0.850689  0.566721  1
  H  H510  1  0.625317  0.431276  0.628295  1
  H  H511  1  0.682439  0.257237  0.579377  1
  H  H512  1  0.597905  0.091214  0.566381  1
  H  H513  1  0.816269  0.243310  0.582851  1
  H  H514  1  0.597024  0.212657  0.569480  1
  H  H515  1  0.727391  0.967996  0.582233  1
  H  H516  1  0.875350  0.178391  0.566833  1
