# generated using pymatgen
data_Si4H2O9
_symmetry_space_group_name_H-M   'P 1'
_cell_length_a   5.05429154
_cell_length_b   17.40165079
_cell_length_c   34.42844445
_cell_angle_alpha   115.09972516
_cell_angle_beta   90.00000000
_cell_angle_gamma   90.00000000
_symmetry_Int_Tables_number   1
_chemical_formula_structural   Si4H2O9
_chemical_formula_sum   'Si16 H8 O36'
_cell_volume   2742.14594654
_cell_formula_units_Z   4
loop_
 _symmetry_equiv_pos_site_id
 _symmetry_equiv_pos_as_xyz
  1  'x, y, z'
loop_
 _atom_site_type_symbol
 _atom_site_label
 _atom_site_symmetry_multiplicity
 _atom_site_fract_x
 _atom_site_fract_y
 _atom_site_fract_z
 _atom_site_occupancy
  O  O1  1  0.531882  0.741487  0.230961  1
  O  O2  1  0.531725  0.241504  0.230973  1
  O  O3  1  0.238320  0.115481  0.186514  1
  O  O4  1  0.238342  0.615485  0.186515  1
  O  O5  1  0.753029  0.823474  0.194537  1
  O  O6  1  0.752847  0.323473  0.194536  1
  O  O7  1  0.535599  0.741721  0.337027  1
  O  O8  1  0.535432  0.241740  0.337023  1
  O  O9  1  0.531882  0.741487  0.445368  1
  O  O10  1  0.531725  0.241504  0.445380  1
  O  O11  1  0.031725  0.258589  0.233875  1
  O  O12  1  0.031881  0.758606  0.233887  1
  O  O13  1  0.035432  0.258352  0.342231  1
  O  O14  1  0.035599  0.758372  0.342228  1
  O  O15  1  0.744262  0.884690  0.351376  1
  O  O16  1  0.744240  0.384694  0.351377  1
  O  O17  1  0.738342  0.884608  0.278334  1
  O  O18  1  0.738319  0.384612  0.278334  1
  O  O19  1  0.238320  0.115481  0.400921  1
  O  O20  1  0.238342  0.615485  0.400922  1
  O  O21  1  0.244240  0.115398  0.327878  1
  O  O22  1  0.244262  0.615403  0.327879  1
  O  O23  1  0.753029  0.823474  0.408944  1
  O  O24  1  0.752847  0.323473  0.408943  1
  O  O25  1  0.252847  0.176620  0.270311  1
  O  O26  1  0.253029  0.676618  0.270311  1
  O  O27  1  0.949693  0.009749  0.341262  1
  O  O28  1  0.949694  0.509753  0.341263  1
  O  O29  1  0.449694  0.990340  0.337992  1
  O  O30  1  0.449692  0.490344  0.337993  1
  O  O31  1  0.031725  0.258589  0.448282  1
  O  O32  1  0.031881  0.758606  0.448294  1
  O  O33  1  0.738342  0.884608  0.492740  1
  O  O34  1  0.738319  0.384612  0.492741  1
  O  O35  1  0.252847  0.176620  0.484718  1
  O  O36  1  0.253029  0.676618  0.484718  1
  Si  Si37  1  0.263225  0.196494  0.229916  1
  Si  Si38  1  0.263360  0.696495  0.229916  1
  Si  Si39  1  0.766818  0.803634  0.360050  1
  Si  Si40  1  0.766678  0.303635  0.360050  1
  Si  Si41  1  0.763360  0.803598  0.234932  1
  Si  Si42  1  0.763225  0.303599  0.234932  1
  Si  Si43  1  0.263225  0.196494  0.444323  1
  Si  Si44  1  0.263360  0.696495  0.444323  1
  Si  Si45  1  0.266678  0.196457  0.319204  1
  Si  Si46  1  0.266818  0.696459  0.319205  1
  Si  Si47  1  0.721101  0.943377  0.327467  1
  Si  Si48  1  0.721098  0.443381  0.327468  1
  Si  Si49  1  0.221099  0.056711  0.351787  1
  Si  Si50  1  0.221101  0.556716  0.351788  1
  Si  Si51  1  0.763360  0.803598  0.449339  1
  Si  Si52  1  0.763225  0.303599  0.449339  1
  H  H53  1  0.238320  0.115481  0.160373  1
  H  H54  1  0.238342  0.615485  0.160374  1
  H  H55  1  0.753029  0.823474  0.168395  1
  H  H56  1  0.752847  0.323473  0.168395  1
  H  H57  1  0.738342  0.884608  0.518882  1
  H  H58  1  0.738319  0.384612  0.518882  1
  H  H59  1  0.252847  0.176620  0.510860  1
  H  H60  1  0.253029  0.676618  0.510859  1
