# generated using pymatgen
data_Si7H6O17
_symmetry_space_group_name_H-M   'P 1'
_cell_length_a   24.41204530
_cell_length_b   24.41160814
_cell_length_c   50.59906037
_cell_angle_alpha   45.00446172
_cell_angle_beta   90.00000000
_cell_angle_gamma   59.99544042
_symmetry_Int_Tables_number   1
_chemical_formula_structural   Si7H6O17
_chemical_formula_sum   'Si56 H48 O136'
_cell_volume   15077.2031813
_cell_formula_units_Z   8
loop_
 _symmetry_equiv_pos_site_id
 _symmetry_equiv_pos_as_xyz
  1  'x, y, z'
loop_
 _atom_site_type_symbol
 _atom_site_label
 _atom_site_symmetry_multiplicity
 _atom_site_fract_x
 _atom_site_fract_y
 _atom_site_fract_z
 _atom_site_occupancy
  O  O1  1  0.347967  0.471240  0.188930  1
  O  O2  1  0.061917  0.589529  0.190045  1
  O  O3  1  0.180993  0.258076  0.292916  1
  O  O4  1  0.431220  0.472092  0.231806  1
  O  O5  1  0.186689  0.382880  0.231752  1
  O  O6  1  0.402094  0.286412  0.254591  1
  O  O7  1  0.317325  0.245064  0.296870  1
  O  O8  1  0.438322  0.410054  0.297197  1
  O  O9  1  0.069090  0.527875  0.255561  1
  O  O10  1  0.096518  0.216193  0.278729  1
  O  O11  1  0.311074  0.120791  0.320772  1
  O  O12  1  0.272305  0.424664  0.226815  1
  O  O13  1  0.302642  0.573470  0.225452  1
  O  O14  1  0.124782  0.602196  0.227440  1
  O  O15  1  0.022553  0.102032  0.312500  1
  O  O16  1  0.123257  0.323213  0.226516  1
  O  O17  1  0.196494  0.427165  0.261280  1
  O  O18  1  0.375972  0.396023  0.260613  1
  O  O19  1  0.477719  0.398099  0.211430  1
  O  O20  1  0.053103  0.467928  0.212813  1
  O  O21  1  0.374208  0.178781  0.274737  1
  O  O22  1  0.182014  0.755930  0.189475  1
  O  O23  1  0.096572  0.592783  0.320270  1
  O  O24  1  0.151428  0.530936  0.297320  1
  O  O25  1  0.153109  0.665293  0.293157  1
  O  O26  1  0.311938  0.620022  0.254347  1
  O  O27  1  0.097677  0.714876  0.232084  1
  O  O28  1  0.020430  0.605510  0.275030  1
  O  O29  1  0.445800  0.531974  0.275588  1
  O  O30  1  0.476831  0.646328  0.297457  1
  O  O31  1  0.127176  0.819467  0.212677  1
  O  O32  1  0.227441  0.576847  0.259972  1
  O  O33  1  0.023332  0.852961  0.227083  1
  O  O34  1  0.182043  0.877927  0.317130  1
  O  O35  1  0.347711  0.334130  0.193891  1
  O  O36  1  0.093529  0.096075  0.272656  1
  O  O37  1  0.065992  0.836894  0.278800  1
  O  O38  1  0.150589  0.167614  0.251011  1
  O  O39  1  0.304566  0.820684  0.312477  1
  O  O40  1  0.124682  0.148449  0.211629  1
  O  O41  1  0.056979  0.918011  0.313531  1
  O  O42  1  0.478362  0.147907  0.260145  1
  O  O43  1  0.224977  0.968182  0.297883  1
  O  O44  1  0.377827  0.850046  0.276527  1
  O  O45  1  0.019752  0.354621  0.190033  1
  O  O46  1  0.560243  0.287700  0.293149  1
  O  O47  1  0.684886  0.373926  0.253855  1
  O  O48  1  0.813821  0.257299  0.273950  1
  O  O49  1  0.568423  0.337985  0.319725  1
  O  O50  1  0.938635  0.213889  0.317955  1
  O  O51  1  0.687853  0.242021  0.278748  1
  O  O52  1  0.804554  0.319257  0.298296  1
  O  O53  1  0.875904  0.069109  0.313829  1
  O  O54  1  0.554412  0.423993  0.227796  1
  O  O55  1  0.725548  0.468867  0.211694  1
  O  O56  1  0.876843  0.352209  0.312244  1
  O  O57  1  0.625317  0.431276  0.190436  1
  O  O58  1  0.772785  0.531665  0.274797  1
  O  O59  1  0.874767  0.569748  0.297206  1
  O  O60  1  0.944686  0.032814  0.190801  1
  O  O61  1  0.848521  0.967370  0.320003  1
  O  O62  1  0.932818  0.968462  0.275198  1
  O  O63  1  0.937916  0.908383  0.251573  1
  O  O64  1  0.772271  0.922243  0.314157  1
  O  O65  1  0.805904  0.070946  0.211535  1
  O  O66  1  0.695240  0.931390  0.275156  1
  O  O67  1  0.874000  0.898245  0.297119  1
  O  O68  1  0.554546  0.968961  0.296884  1
  O  O69  1  0.063540  0.087929  0.407800  1
  O  O70  1  0.151643  0.031715  0.339059  1
  O  O71  1  0.068963  0.029588  0.382982  1
  O  O72  1  0.304258  0.071569  0.381917  1
  O  O73  1  0.124604  0.105540  0.360385  1
  O  O74  1  0.446097  0.034235  0.359953  1
  O  O75  1  0.228107  0.076248  0.345202  1
  O  O76  1  0.197701  0.926995  0.445871  1
  O  O77  1  0.226554  0.468596  0.382074  1
  O  O78  1  0.124553  0.430257  0.360574  1
  O  O79  1  0.052772  0.967147  0.468070  1
  O  O80  1  0.061056  0.781968  0.341493  1
  O  O81  1  0.311876  0.754992  0.378934  1
  O  O82  1  0.438496  0.713239  0.364866  1
  O  O83  1  0.320080  0.616602  0.407552  1
  O  O84  1  0.190970  0.741168  0.384056  1
  O  O85  1  0.432443  0.664373  0.337248  1
  O  O86  1  0.271394  0.531784  0.446484  1
  O  O87  1  0.123326  0.649805  0.343996  1
  O  O88  1  0.374657  0.571872  0.467578  1
  O  O89  1  0.194340  0.680138  0.360782  1
  O  O90  1  0.127039  0.929698  0.344225  1
  O  O91  1  0.448010  0.572615  0.431854  1
  O  O92  1  0.848524  0.835274  0.405499  1
  O  O93  1  0.816131  0.125284  0.338563  1
  O  O94  1  0.650568  0.668080  0.462675  1
  O  O95  1  0.906969  0.904595  0.385398  1
  O  O96  1  0.932392  0.165752  0.379065  1
  O  O97  1  0.774622  0.031917  0.360309  1
  O  O98  1  0.622984  0.151964  0.382137  1
  O  O99  1  0.977432  0.647187  0.468022  1
  O  O100  1  0.693792  0.182370  0.344065  1
  O  O101  1  0.875891  0.850689  0.446503  1
  O  O102  1  0.946648  0.075362  0.346929  1
  O  O103  1  0.521716  0.855613  0.396044  1
  O  O104  1  0.843854  0.474595  0.358220  1
  O  O105  1  0.848302  0.331933  0.364687  1
  O  O106  1  0.686830  0.382151  0.402788  1
  O  O107  1  0.902785  0.286497  0.424415  1
  O  O108  1  0.816269  0.243310  0.468783  1
  O  O109  1  0.902293  0.407615  0.337309  1
  O  O110  1  0.772869  0.421970  0.398023  1
  O  O111  1  0.979708  0.145596  0.431876  1
  O  O112  1  0.975787  0.397023  0.383363  1
  O  O113  1  0.553374  0.467067  0.383517  1
  O  O114  1  0.524754  0.347840  0.361576  1
  O  O115  1  0.875350  0.178391  0.446658  1
  O  O116  1  0.682428  0.756497  0.359555  1
  O  O117  1  0.562759  0.588319  0.360810  1
  O  O118  1  0.932933  0.469763  0.404236  1
  O  O119  1  0.906235  0.781288  0.379823  1
  O  O120  1  0.689858  0.877988  0.337346  1
  O  O121  1  0.651602  0.531947  0.468081  1
  O  O122  1  0.937058  0.410523  0.468475  1
  O  O123  1  0.819134  0.742285  0.364402  1
  O  O124  1  0.568554  0.528908  0.425796  1
  O  O125  1  0.812578  0.618786  0.425193  1
  O  O126  1  0.596680  0.715769  0.401807  1
  O  O127  1  0.803614  0.573095  0.396234  1
  O  O128  1  0.623638  0.604792  0.396646  1
  O  O129  1  0.522327  0.603420  0.446022  1
  O  O130  1  0.946929  0.532162  0.445458  1
  O  O131  1  0.627173  0.819189  0.382806  1
  O  O132  1  0.726826  0.577586  0.429859  1
  O  O133  1  0.697466  0.426725  0.432384  1
  O  O134  1  0.875191  0.398526  0.429759  1
  O  O135  1  0.978199  0.895312  0.345967  1
  O  O136  1  0.874915  0.680260  0.429745  1
  Si  Si137  1  0.347814  0.398304  0.232353  1
  Si  Si138  1  0.115891  0.535643  0.233407  1
  Si  Si139  1  0.097139  0.039838  0.316706  1
  Si  Si140  1  0.133612  0.362031  0.239004  1
  Si  Si141  1  0.242982  0.372779  0.253949  1
  Si  Si142  1  0.383132  0.464381  0.253530  1
  Si  Si143  1  0.365513  0.140814  0.313561  1
  Si  Si144  1  0.256700  0.628251  0.232633  1
  Si  Si145  1  0.095979  0.539661  0.313242  1
  Si  Si146  1  0.495504  0.407426  0.313915  1
  Si  Si147  1  0.152154  0.603788  0.254436  1
  Si  Si148  1  0.098626  0.767541  0.239215  1
  Si  Si149  1  0.254514  0.858493  0.325024  1
  Si  Si150  1  0.007218  0.892617  0.318953  1
  Si  Si151  1  0.403169  0.230513  0.248337  1
  Si  Si152  1  0.150471  0.093189  0.258498  1
  Si  Si153  1  0.386052  0.766732  0.321146  1
  Si  Si154  1  0.095116  0.270300  0.234697  1
  Si  Si155  1  0.758772  0.354994  0.260171  1
  Si  Si156  1  0.865376  0.131982  0.317757  1
  Si  Si157  1  0.506299  0.397494  0.239376  1
  Si  Si158  1  0.884632  0.268786  0.324551  1
  Si  Si159  1  0.635558  0.367742  0.237204  1
  Si  Si160  1  0.848057  0.406361  0.321279  1
  Si  Si161  1  0.992634  0.910308  0.235214  1
  Si  Si162  1  0.847972  0.893267  0.326816  1
  Si  Si163  1  0.745736  0.869643  0.321598  1
  Si  Si164  1  0.885723  0.961287  0.258788  1
  Si  Si165  1  0.254220  0.130769  0.336100  1
  Si  Si166  1  0.116989  0.036914  0.399543  1
  Si  Si167  1  0.152531  0.104240  0.333285  1
  Si  Si168  1  0.151987  0.592784  0.335964  1
  Si  Si169  1  0.006741  0.089594  0.423556  1
  Si  Si170  1  0.112627  0.734365  0.332654  1
  Si  Si171  1  0.367501  0.626050  0.423239  1
  Si  Si172  1  0.245484  0.638315  0.400347  1
  Si  Si173  1  0.137687  0.868351  0.339833  1
  Si  Si174  1  0.493808  0.602728  0.418635  1
  Si  Si175  1  0.849831  0.907280  0.399430  1
  Si  Si176  1  0.612792  0.236455  0.336040  1
  Si  Si177  1  0.903244  0.733235  0.421363  1
  Si  Si178  1  0.743015  0.143689  0.331620  1
  Si  Si179  1  0.994446  0.102526  0.340094  1
  Si  Si180  1  0.596941  0.769423  0.408567  1
  Si  Si181  1  0.847317  0.397942  0.402165  1
  Si  Si182  1  0.903709  0.231007  0.418424  1
  Si  Si183  1  0.743207  0.371343  0.425363  1
  Si  Si184  1  0.900829  0.461962  0.344128  1
  Si  Si185  1  0.506230  0.589618  0.344540  1
  Si  Si186  1  0.756340  0.629142  0.402770  1
  Si  Si187  1  0.616729  0.535886  0.404171  1
  Si  Si188  1  0.636039  0.858165  0.343969  1
  Si  Si189  1  0.651404  0.603729  0.424401  1
  Si  Si190  1  0.884294  0.463639  0.424952  1
  Si  Si191  1  0.904091  0.959179  0.341643  1
  Si  Si192  1  0.866064  0.638875  0.418322  1
  H  H193  1  0.347967  0.471240  0.171144  1
  H  H194  1  0.061917  0.589529  0.172258  1
  H  H195  1  0.069090  0.527875  0.237774  1
  H  H196  1  0.477719  0.398099  0.193643  1
  H  H197  1  0.053103  0.467928  0.195027  1
  H  H198  1  0.182014  0.755930  0.171688  1
  H  H199  1  0.311938  0.620022  0.236560  1
  H  H200  1  0.020430  0.605510  0.257243  1
  H  H201  1  0.445800  0.531974  0.257801  1
  H  H202  1  0.476831  0.646328  0.279670  1
  H  H203  1  0.127176  0.819467  0.194890  1
  H  H204  1  0.347711  0.334130  0.176104  1
  H  H205  1  0.124682  0.148449  0.193842  1
  H  H206  1  0.478362  0.147907  0.242358  1
  H  H207  1  0.377827  0.850046  0.258740  1
  H  H208  1  0.019752  0.354621  0.172246  1
  H  H209  1  0.725548  0.468867  0.193907  1
  H  H210  1  0.625317  0.431276  0.172650  1
  H  H211  1  0.772785  0.531665  0.257010  1
  H  H212  1  0.874767  0.569748  0.279419  1
  H  H213  1  0.944686  0.032814  0.173015  1
  H  H214  1  0.805904  0.070946  0.193748  1
  H  H215  1  0.695240  0.931390  0.257369  1
  H  H216  1  0.554546  0.968961  0.279097  1
  H  H217  1  0.304258  0.071569  0.399704  1
  H  H218  1  0.446097  0.034235  0.377740  1
  H  H219  1  0.197701  0.926995  0.463658  1
  H  H220  1  0.226554  0.468596  0.399861  1
  H  H221  1  0.124553  0.430257  0.378361  1
  H  H222  1  0.052772  0.967147  0.485857  1
  H  H223  1  0.271394  0.531784  0.464271  1
  H  H224  1  0.374657  0.571872  0.485365  1
  H  H225  1  0.650568  0.668080  0.480462  1
  H  H226  1  0.622984  0.151964  0.399924  1
  H  H227  1  0.977432  0.647187  0.485809  1
  H  H228  1  0.875891  0.850689  0.464290  1
  H  H229  1  0.521716  0.855613  0.413831  1
  H  H230  1  0.686830  0.382151  0.420575  1
  H  H231  1  0.816269  0.243310  0.486569  1
  H  H232  1  0.975787  0.397023  0.401150  1
  H  H233  1  0.553374  0.467067  0.401304  1
  H  H234  1  0.524754  0.347840  0.379363  1
  H  H235  1  0.875350  0.178391  0.464445  1
  H  H236  1  0.932933  0.469763  0.422023  1
  H  H237  1  0.651602  0.531947  0.485867  1
  H  H238  1  0.937058  0.410523  0.486262  1
  H  H239  1  0.522327  0.603420  0.463809  1
  H  H240  1  0.946929  0.532162  0.463244  1
