# generated using pymatgen
data_Si13(H4O15)2
_symmetry_space_group_name_H-M   'P 1'
_cell_length_a   24.41204530
_cell_length_b   24.41160814
_cell_length_c   59.07492279
_cell_angle_alpha   45.00446172
_cell_angle_beta   90.00000000
_cell_angle_gamma   59.99544042
_symmetry_Int_Tables_number   1
_chemical_formula_structural   Si13(H4O15)2
_chemical_formula_sum   'Si78 H48 O180'
_cell_volume   17602.7896025
_cell_formula_units_Z   6
loop_
 _symmetry_equiv_pos_site_id
 _symmetry_equiv_pos_as_xyz
  1  'x, y, z'
loop_
 _atom_site_type_symbol
 _atom_site_label
 _atom_site_symmetry_multiplicity
 _atom_site_fract_x
 _atom_site_fract_y
 _atom_site_fract_z
 _atom_site_occupancy
  O  O1  1  0.347967  0.471240  0.233382  1
  O  O2  1  0.061917  0.589529  0.234336  1
  O  O3  1  0.180993  0.258076  0.322448  1
  O  O4  1  0.431220  0.472092  0.270106  1
  O  O5  1  0.186689  0.382880  0.270060  1
  O  O6  1  0.402094  0.286412  0.289622  1
  O  O7  1  0.317325  0.245064  0.325835  1
  O  O8  1  0.438322  0.410054  0.326115  1
  O  O9  1  0.069090  0.527875  0.290452  1
  O  O10  1  0.096518  0.216193  0.310297  1
  O  O11  1  0.311074  0.120791  0.346308  1
  O  O12  1  0.272305  0.424664  0.265831  1
  O  O13  1  0.302642  0.573470  0.264663  1
  O  O14  1  0.124782  0.602196  0.266366  1
  O  O15  1  0.022553  0.102032  0.339222  1
  O  O16  1  0.123257  0.323213  0.265575  1
  O  O17  1  0.196494  0.427165  0.295351  1
  O  O18  1  0.375972  0.396023  0.294779  1
  O  O19  1  0.477719  0.398099  0.252654  1
  O  O20  1  0.053103  0.467928  0.253838  1
  O  O21  1  0.374208  0.178781  0.306878  1
  O  O22  1  0.182014  0.755930  0.233848  1
  O  O23  1  0.347409  0.833101  0.274113  1
  O  O24  1  0.096572  0.592783  0.345877  1
  O  O25  1  0.401939  0.786196  0.249771  1
  O  O26  1  0.151428  0.530936  0.326220  1
  O  O27  1  0.317982  0.744014  0.237277  1
  O  O28  1  0.153109  0.665293  0.322654  1
  O  O29  1  0.402405  0.908346  0.254187  1
  O  O30  1  0.311938  0.620022  0.289413  1
  O  O31  1  0.097677  0.714876  0.270344  1
  O  O32  1  0.272827  0.030374  0.235343  1
  O  O33  1  0.020430  0.605510  0.307128  1
  O  O34  1  0.445800  0.531974  0.307606  1
  O  O35  1  0.476831  0.646328  0.326337  1
  O  O36  1  0.127176  0.819467  0.253721  1
  O  O37  1  0.227441  0.576847  0.294230  1
  O  O38  1  0.372163  0.681453  0.293944  1
  O  O39  1  0.023332  0.852961  0.266061  1
  O  O40  1  0.182043  0.877927  0.343188  1
  O  O41  1  0.347711  0.334130  0.237631  1
  O  O42  1  0.093529  0.096075  0.305094  1
  O  O43  1  0.065992  0.836894  0.310358  1
  O  O44  1  0.150589  0.167614  0.286556  1
  O  O45  1  0.430496  0.166494  0.249497  1
  O  O46  1  0.304566  0.820684  0.339202  1
  O  O47  1  0.124682  0.148449  0.252824  1
  O  O48  1  0.056979  0.918011  0.340105  1
  O  O49  1  0.478362  0.147907  0.294379  1
  O  O50  1  0.224977  0.968182  0.326703  1
  O  O51  1  0.377827  0.850046  0.308410  1
  O  O52  1  0.019752  0.354621  0.234326  1
  O  O53  1  0.560243  0.287700  0.322647  1
  O  O54  1  0.684886  0.373926  0.288991  1
  O  O55  1  0.813821  0.257299  0.306204  1
  O  O56  1  0.568423  0.337985  0.345411  1
  O  O57  1  0.938147  0.713080  0.238189  1
  O  O58  1  0.938635  0.213889  0.343894  1
  O  O59  1  0.687853  0.242021  0.310313  1
  O  O60  1  0.931745  0.664528  0.214467  1
  O  O61  1  0.803906  0.819731  0.193071  1
  O  O62  1  0.804554  0.319257  0.327056  1
  O  O63  1  0.875904  0.069109  0.340361  1
  O  O64  1  0.554412  0.423993  0.266672  1
  O  O65  1  0.977432  0.647187  0.180255  1
  O  O66  1  0.875891  0.850689  0.161823  1
  O  O67  1  0.725548  0.468867  0.252879  1
  O  O68  1  0.695837  0.681836  0.232886  1
  O  O69  1  0.876843  0.352209  0.339003  1
  O  O70  1  0.625317  0.431276  0.234672  1
  O  O71  1  0.683684  0.876615  0.198550  1
  O  O72  1  0.813320  0.755503  0.250064  1
  O  O73  1  0.817566  0.622218  0.272841  1
  O  O74  1  0.688039  0.742158  0.254377  1
  O  O75  1  0.772785  0.531665  0.306928  1
  O  O76  1  0.874767  0.569748  0.326123  1
  O  O77  1  0.944686  0.032814  0.234984  1
  O  O78  1  0.727391  0.967996  0.180175  1
  O  O79  1  0.947386  0.572963  0.295335  1
  O  O80  1  0.848521  0.967370  0.345649  1
  O  O81  1  0.559641  0.093534  0.272879  1
  O  O82  1  0.932818  0.968462  0.307272  1
  O  O83  1  0.937916  0.908383  0.287037  1
  O  O84  1  0.568228  0.029540  0.253606  1
  O  O85  1  0.772271  0.922243  0.340641  1
  O  O86  1  0.805904  0.070946  0.252743  1
  O  O87  1  0.622111  0.106725  0.233688  1
  O  O88  1  0.695240  0.931390  0.307236  1
  O  O89  1  0.874000  0.898245  0.326048  1
  O  O90  1  0.554546  0.968961  0.325847  1
  O  O91  1  0.063540  0.087929  0.420849  1
  O  O92  1  0.430712  0.975730  0.451156  1
  O  O93  1  0.151643  0.031715  0.361970  1
  O  O94  1  0.438354  0.911283  0.432281  1
  O  O95  1  0.068963  0.029588  0.399592  1
  O  O96  1  0.304258  0.071569  0.398680  1
  O  O97  1  0.124604  0.105540  0.380237  1
  O  O98  1  0.446097  0.034235  0.379867  1
  O  O99  1  0.228107  0.076248  0.367232  1
  O  O100  1  0.197701  0.926995  0.453457  1
  O  O101  1  0.376708  0.898180  0.472600  1
  O  O102  1  0.182103  0.378618  0.433305  1
  O  O103  1  0.311421  0.255675  0.453041  1
  O  O104  1  0.317621  0.119860  0.508924  1
  O  O105  1  0.188512  0.242863  0.456750  1
  O  O106  1  0.272827  0.030374  0.527519  1
  O  O107  1  0.055998  0.419700  0.413679  1
  O  O108  1  0.226554  0.468596  0.398814  1
  O  O109  1  0.124553  0.430257  0.380399  1
  O  O110  1  0.052772  0.967147  0.472471  1
  O  O111  1  0.061730  0.282626  0.469569  1
  O  O112  1  0.061056  0.781968  0.364056  1
  O  O113  1  0.311876  0.754992  0.396124  1
  O  O114  1  0.067253  0.335272  0.492356  1
  O  O115  1  0.438496  0.713239  0.384075  1
  O  O116  1  0.320080  0.616602  0.420637  1
  O  O117  1  0.190970  0.741168  0.400511  1
  O  O118  1  0.432443  0.664373  0.360419  1
  O  O119  1  0.124682  0.148449  0.545000  1
  O  O120  1  0.271394  0.531784  0.453982  1
  O  O121  1  0.303240  0.319213  0.472666  1
  O  O122  1  0.123326  0.649805  0.366199  1
  O  O123  1  0.374657  0.571872  0.472050  1
  O  O124  1  0.195470  0.181692  0.512936  1
  O  O125  1  0.194340  0.680138  0.380577  1
  O  O126  1  0.127039  0.929698  0.366395  1
  O  O127  1  0.448010  0.572615  0.441452  1
  O  O128  1  0.019752  0.354621  0.526502  1
  O  O129  1  0.848524  0.835274  0.418878  1
  O  O130  1  0.568040  0.835186  0.455948  1
  O  O131  1  0.816131  0.125284  0.361545  1
  O  O132  1  0.650568  0.668080  0.467850  1
  O  O133  1  0.906969  0.904595  0.401661  1
  O  O134  1  0.932392  0.165752  0.396236  1
  O  O135  1  0.774622  0.031917  0.380171  1
  O  O136  1  0.622984  0.151964  0.398868  1
  O  O137  1  0.977432  0.647187  0.472431  1
  O  O138  1  0.693792  0.182370  0.366258  1
  O  O139  1  0.875891  0.850689  0.453999  1
  O  O140  1  0.946648  0.075362  0.368711  1
  O  O141  1  0.521716  0.855613  0.410780  1
  O  O142  1  0.843854  0.474595  0.378382  1
  O  O143  1  0.682439  0.257237  0.468972  1
  O  O144  1  0.848302  0.331933  0.383921  1
  O  O145  1  0.597905  0.091214  0.453596  1
  O  O146  1  0.686830  0.382151  0.416556  1
  O  O147  1  0.902785  0.286497  0.435080  1
  O  O148  1  0.816269  0.243310  0.473082  1
  O  O149  1  0.656464  0.161933  0.434747  1
  O  O150  1  0.902293  0.407615  0.360472  1
  O  O151  1  0.597024  0.212657  0.457263  1
  O  O152  1  0.772869  0.421970  0.412474  1
  O  O153  1  0.624921  0.319603  0.412946  1
  O  O154  1  0.979708  0.145596  0.441471  1
  O  O155  1  0.727391  0.967996  0.472351  1
  O  O156  1  0.975787  0.397023  0.399918  1
  O  O157  1  0.553374  0.467067  0.400050  1
  O  O158  1  0.524754  0.347840  0.381257  1
  O  O159  1  0.875350  0.178391  0.454131  1
  O  O160  1  0.682428  0.756497  0.379526  1
  O  O161  1  0.562759  0.588319  0.380601  1
  O  O162  1  0.932933  0.469763  0.417796  1
  O  O163  1  0.906235  0.781288  0.396886  1
  O  O164  1  0.689858  0.877988  0.360503  1
  O  O165  1  0.651602  0.531947  0.472481  1
  O  O166  1  0.937058  0.410523  0.472819  1
  O  O167  1  0.819134  0.742285  0.383677  1
  O  O168  1  0.568554  0.528908  0.436262  1
  O  O169  1  0.812578  0.618786  0.435746  1
  O  O170  1  0.596680  0.715769  0.415716  1
  O  O171  1  0.803614  0.573095  0.410942  1
  O  O172  1  0.623638  0.604792  0.411295  1
  O  O173  1  0.522327  0.603420  0.453587  1
  O  O174  1  0.946929  0.532162  0.453103  1
  O  O175  1  0.627173  0.819189  0.399441  1
  O  O176  1  0.726826  0.577586  0.439743  1
  O  O177  1  0.697466  0.426725  0.441906  1
  O  O178  1  0.875191  0.398526  0.439657  1
  O  O179  1  0.978199  0.895312  0.367888  1
  O  O180  1  0.874915  0.680260  0.439645  1
  Si  Si181  1  0.347814  0.398304  0.270575  1
  Si  Si182  1  0.115891  0.535643  0.271478  1
  Si  Si183  1  0.097139  0.039838  0.342825  1
  Si  Si184  1  0.133612  0.362031  0.276271  1
  Si  Si185  1  0.242982  0.372779  0.289072  1
  Si  Si186  1  0.383132  0.464381  0.288713  1
  Si  Si187  1  0.005855  0.590352  0.220604  1
  Si  Si188  1  0.365513  0.140814  0.340131  1
  Si  Si189  1  0.256700  0.628251  0.270814  1
  Si  Si190  1  0.348337  0.905495  0.268781  1
  Si  Si191  1  0.095979  0.539661  0.339858  1
  Si  Si192  1  0.495504  0.407426  0.340434  1
  Si  Si193  1  0.401351  0.732362  0.286805  1
  Si  Si194  1  0.152154  0.603788  0.289489  1
  Si  Si195  1  0.364362  0.642291  0.283349  1
  Si  Si196  1  0.098626  0.767541  0.276452  1
  Si  Si197  1  0.254514  0.858493  0.349949  1
  Si  Si198  1  0.007218  0.892617  0.344749  1
  Si  Si199  1  0.403169  0.230513  0.284265  1
  Si  Si200  1  0.150471  0.093189  0.292968  1
  Si  Si201  1  0.386052  0.766732  0.346628  1
  Si  Si202  1  0.095116  0.270300  0.272582  1
  Si  Si203  1  0.758772  0.354994  0.294401  1
  Si  Si204  1  0.865376  0.131982  0.343725  1
  Si  Si205  1  0.506299  0.397494  0.276589  1
  Si  Si206  1  0.884650  0.766696  0.200889  1
  Si  Si207  1  0.884632  0.268786  0.349544  1
  Si  Si208  1  0.635558  0.367742  0.274729  1
  Si  Si209  1  0.756966  0.857712  0.204015  1
  Si  Si210  1  0.848057  0.406361  0.346741  1
  Si  Si211  1  0.866340  0.628535  0.287084  1
  Si  Si212  1  0.992634  0.910308  0.273025  1
  Si  Si213  1  0.741901  0.644605  0.265987  1
  Si  Si214  1  0.994669  0.601468  0.284841  1
  Si  Si215  1  0.847972  0.893267  0.351484  1
  Si  Si216  1  0.613641  0.039918  0.267031  1
  Si  Si217  1  0.745736  0.869643  0.347015  1
  Si  Si218  1  0.885723  0.961287  0.293217  1
  Si  Si219  1  0.503780  0.094355  0.286432  1
  Si  Si220  1  0.254220  0.130769  0.359436  1
  Si  Si221  1  0.116989  0.036914  0.413777  1
  Si  Si222  1  0.493027  0.911947  0.418114  1
  Si  Si223  1  0.152531  0.104240  0.357025  1
  Si  Si224  1  0.386152  0.963627  0.438877  1
  Si  Si225  1  0.256003  0.358133  0.439327  1
  Si  Si226  1  0.006777  0.393896  0.424394  1
  Si  Si227  1  0.243119  0.141588  0.502784  1
  Si  Si228  1  0.151987  0.592784  0.359320  1
  Si  Si229  1  0.135967  0.369237  0.419963  1
  Si  Si230  1  0.006741  0.089594  0.434344  1
  Si  Si231  1  0.114611  0.233572  0.505135  1
  Si  Si232  1  0.112627  0.734365  0.356485  1
  Si  Si233  1  0.367501  0.626050  0.434073  1
  Si  Si234  1  0.245484  0.638315  0.414465  1
  Si  Si235  1  0.137687  0.868351  0.362634  1
  Si  Si236  1  0.493808  0.602728  0.430129  1
  Si  Si237  1  0.849831  0.907280  0.413680  1
  Si  Si238  1  0.612792  0.236455  0.359385  1
  Si  Si239  1  0.903244  0.733235  0.432466  1
  Si  Si240  1  0.743015  0.143689  0.355599  1
  Si  Si241  1  0.994446  0.102526  0.362857  1
  Si  Si242  1  0.596941  0.769423  0.421505  1
  Si  Si243  1  0.847317  0.397942  0.416022  1
  Si  Si244  1  0.634109  0.360670  0.422804  1
  Si  Si245  1  0.903709  0.231007  0.429948  1
  Si  Si246  1  0.743207  0.371343  0.435892  1
  Si  Si247  1  0.652842  0.092585  0.439677  1
  Si  Si248  1  0.900829  0.461962  0.366313  1
  Si  Si249  1  0.506230  0.589618  0.366665  1
  Si  Si250  1  0.599034  0.263648  0.420683  1
  Si  Si251  1  0.756340  0.629142  0.416540  1
  Si  Si252  1  0.616729  0.535886  0.417741  1
  Si  Si253  1  0.993686  0.409415  0.486929  1
  Si  Si254  1  0.636039  0.858165  0.366176  1
  Si  Si255  1  0.651404  0.603729  0.435068  1
  Si  Si256  1  0.884294  0.463639  0.435540  1
  Si  Si257  1  0.904091  0.959179  0.364184  1
  Si  Si258  1  0.866064  0.638875  0.429861  1
  H  H259  1  0.347967  0.471240  0.218147  1
  H  H260  1  0.477719  0.398099  0.237419  1
  H  H261  1  0.182014  0.755930  0.218614  1
  H  H262  1  0.401939  0.786196  0.234536  1
  H  H263  1  0.317982  0.744014  0.222042  1
  H  H264  1  0.402405  0.908346  0.238952  1
  H  H265  1  0.272827  0.030374  0.220108  1
  H  H266  1  0.127176  0.819467  0.238487  1
  H  H267  1  0.347711  0.334130  0.222396  1
  H  H268  1  0.430496  0.166494  0.234262  1
  H  H269  1  0.124682  0.148449  0.237589  1
  H  H270  1  0.019752  0.354621  0.219092  1
  H  H271  1  0.977432  0.647187  0.165020  1
  H  H272  1  0.875891  0.850689  0.146588  1
  H  H273  1  0.725548  0.468867  0.237644  1
  H  H274  1  0.695837  0.681836  0.217651  1
  H  H275  1  0.625317  0.431276  0.219437  1
  H  H276  1  0.683684  0.876615  0.183316  1
  H  H277  1  0.688039  0.742158  0.239142  1
  H  H278  1  0.944686  0.032814  0.219750  1
  H  H279  1  0.727391  0.967996  0.164940  1
  H  H280  1  0.568228  0.029540  0.238371  1
  H  H281  1  0.805904  0.070946  0.237508  1
  H  H282  1  0.622111  0.106725  0.218453  1
  H  H283  1  0.430712  0.975730  0.466391  1
  H  H284  1  0.197701  0.926995  0.468692  1
  H  H285  1  0.376708  0.898180  0.487835  1
  H  H286  1  0.311421  0.255675  0.468276  1
  H  H287  1  0.317621  0.119860  0.524159  1
  H  H288  1  0.272827  0.030374  0.542754  1
  H  H289  1  0.052772  0.967147  0.487706  1
  H  H290  1  0.124682  0.148449  0.560235  1
  H  H291  1  0.271394  0.531784  0.469217  1
  H  H292  1  0.303240  0.319213  0.487901  1
  H  H293  1  0.374657  0.571872  0.487285  1
  H  H294  1  0.019752  0.354621  0.541737  1
  H  H295  1  0.568040  0.835186  0.471183  1
  H  H296  1  0.650568  0.668080  0.483085  1
  H  H297  1  0.977432  0.647187  0.487665  1
  H  H298  1  0.875891  0.850689  0.469234  1
  H  H299  1  0.682439  0.257237  0.484207  1
  H  H300  1  0.597905  0.091214  0.468831  1
  H  H301  1  0.816269  0.243310  0.488317  1
  H  H302  1  0.597024  0.212657  0.472497  1
  H  H303  1  0.727391  0.967996  0.487586  1
  H  H304  1  0.875350  0.178391  0.469366  1
  H  H305  1  0.651602  0.531947  0.487715  1
  H  H306  1  0.522327  0.603420  0.468822  1
