# generated using pymatgen
data_Si28H2O57
_symmetry_space_group_name_H-M   'P 1'
_cell_length_a   19.95132824
_cell_length_b   12.61157101
_cell_length_c   76.55802669
_cell_angle_alpha   90.00000000
_cell_angle_beta   90.00000000
_cell_angle_gamma   90.00000000
_symmetry_Int_Tables_number   1
_chemical_formula_structural   Si28H2O57
_chemical_formula_sum   'Si224 H16 O456'
_cell_volume   19263.3463877
_cell_formula_units_Z   8
loop_
 _symmetry_equiv_pos_site_id
 _symmetry_equiv_pos_as_xyz
  1  'x, y, z'
loop_
 _atom_site_type_symbol
 _atom_site_label
 _atom_site_symmetry_multiplicity
 _atom_site_fract_x
 _atom_site_fract_y
 _atom_site_fract_z
 _atom_site_occupancy
  O  O1  1  0.801760  0.419176  0.233836  1
  O  O2  1  0.698203  0.080772  0.233833  1
  O  O3  1  0.876180  0.259784  0.223143  1
  O  O4  1  0.876176  0.259812  0.176853  1
  O  O5  1  0.623771  0.240210  0.176850  1
  O  O6  1  0.623773  0.240155  0.223140  1
  O  O7  1  0.808666  0.359485  0.199997  1
  O  O8  1  0.691279  0.140496  0.199994  1
  O  O9  1  0.749975  0.249983  0.222901  1
  O  O10  1  0.749974  0.250009  0.177092  1
  O  O11  1  0.901539  0.071751  0.233528  1
  O  O12  1  0.598411  0.428165  0.233531  1
  O  O13  1  -0.000000  0.185595  0.222695  1
  O  O14  1  0.000000  0.185605  0.177298  1
  O  O15  1  0.913784  0.130214  0.199996  1
  O  O16  1  0.586149  0.369754  0.199997  1
  O  O17  1  0.803655  0.574856  0.257954  1
  O  O18  1  0.696276  0.925097  0.257952  1
  O  O19  1  0.699356  0.120745  0.266520  1
  O  O20  1  0.800647  0.379212  0.266523  1
  O  O21  1  0.876421  0.734761  0.270062  1
  O  O22  1  0.623535  0.765156  0.270061  1
  O  O23  1  0.749979  0.749983  0.268421  1
  O  O24  1  0.904075  0.921652  0.258275  1
  O  O25  1  0.595909  0.578253  0.258278  1
  O  O26  1  0.595412  0.385469  0.266014  1
  O  O27  1  0.904527  0.114440  0.266011  1
  O  O28  1  0.700217  0.464798  0.253050  1
  O  O29  1  0.799745  0.035050  0.253044  1
  O  O30  1  0.698153  0.919197  0.077369  1
  O  O31  1  0.801758  0.419196  0.166155  1
  O  O32  1  0.698181  0.080832  0.166151  1
  O  O33  1  0.801755  0.580832  0.077373  1
  O  O34  1  0.598407  0.571752  0.077068  1
  O  O35  1  0.901503  0.071796  0.166461  1
  O  O36  1  0.598413  0.428236  0.166465  1
  O  O37  1  0.901533  0.928273  0.077066  1
  O  O38  1  0.696254  0.074898  0.101485  1
  O  O39  1  0.803627  0.574874  0.142037  1
  O  O40  1  0.696306  0.925154  0.142034  1
  O  O41  1  0.803646  0.425131  0.101488  1
  O  O42  1  0.699252  0.120802  0.133463  1
  O  O43  1  0.800629  0.620775  0.110058  1
  O  O44  1  0.699303  0.879251  0.110055  1
  O  O45  1  0.800647  0.379223  0.133467  1
  O  O46  1  0.623512  0.234820  0.113598  1
  O  O47  1  0.876375  0.734805  0.129926  1
  O  O48  1  0.623526  0.765261  0.129925  1
  O  O49  1  0.876413  0.265241  0.113598  1
  O  O50  1  0.749963  0.250006  0.111956  1
  O  O51  1  0.749949  0.750004  0.131565  1
  O  O52  1  0.595888  0.421703  0.101819  1
  O  O53  1  0.903979  0.921715  0.141712  1
  O  O54  1  0.595939  0.578346  0.141717  1
  O  O55  1  0.904022  0.078355  0.101812  1
  O  O56  1  0.595361  0.385556  0.133982  1
  O  O57  1  0.904497  0.885573  0.109548  1
  O  O58  1  0.595397  0.614482  0.109552  1
  O  O59  1  0.904580  0.114500  0.133977  1
  O  O60  1  -0.000000  0.812219  0.128190  1
  O  O61  1  0.799706  0.964904  0.096577  1
  O  O62  1  0.700209  0.464767  0.146939  1
  O  O63  1  0.799716  0.035314  0.146929  1
  O  O64  1  0.700204  0.535169  0.096588  1
  O  O65  1  -0.000000  0.187810  0.115327  1
  O  O66  1  0.198201  0.419115  0.233836  1
  O  O67  1  0.301780  0.080746  0.233838  1
  O  O68  1  0.123776  0.259733  0.223140  1
  O  O69  1  0.123771  0.259720  0.176851  1
  O  O70  1  0.376181  0.240120  0.176848  1
  O  O71  1  0.376182  0.240143  0.223140  1
  O  O72  1  0.191282  0.359411  0.199996  1
  O  O73  1  0.308684  0.140434  0.199996  1
  O  O74  1  0.249978  0.249919  0.222899  1
  O  O75  1  0.249978  0.249912  0.177088  1
  O  O76  1  0.098423  0.071717  0.233528  1
  O  O77  1  0.401528  0.428163  0.233528  1
  O  O78  1  0.499974  0.314343  0.177295  1
  O  O79  1  0.499972  0.314315  0.222693  1
  O  O80  1  0.086145  0.130158  0.199995  1
  O  O81  1  0.413787  0.369713  0.199993  1
  O  O82  1  0.196330  0.574809  0.257952  1
  O  O83  1  0.303664  0.925077  0.257957  1
  O  O84  1  0.300657  0.120723  0.266525  1
  O  O85  1  0.199289  0.379159  0.266524  1
  O  O86  1  0.123562  0.734717  0.270062  1
  O  O87  1  0.376419  0.765161  0.270067  1
  O  O88  1  0.249992  0.749947  0.268425  1
  O  O89  1  0.095946  0.921624  0.258275  1
  O  O90  1  0.404015  0.578252  0.258276  1
  O  O91  1  0.404595  0.385461  0.266011  1
  O  O92  1  0.095401  0.114411  0.266010  1
  O  O93  1  0.299742  0.464673  0.253057  1
  O  O94  1  0.200231  0.035147  0.253050  1
  O  O95  1  0.499970  0.687732  0.271798  1
  O  O96  1  -0.000000  0.812132  0.271796  1
  O  O97  1  0.301760  0.919052  0.077379  1
  O  O98  1  0.198180  0.419098  0.166155  1
  O  O99  1  0.301752  0.080697  0.166160  1
  O  O100  1  0.198160  0.580720  0.077371  1
  O  O101  1  0.401531  0.571671  0.077068  1
  O  O102  1  0.098383  0.071715  0.166461  1
  O  O103  1  0.401514  0.428155  0.166462  1
  O  O104  1  0.098433  0.928176  0.077066  1
  O  O105  1  0.303681  0.074707  0.101497  1
  O  O106  1  0.196198  0.574745  0.142035  1
  O  O107  1  0.303590  0.924972  0.142047  1
  O  O108  1  0.196360  0.425009  0.101486  1
  O  O109  1  0.300654  0.120623  0.133475  1
  O  O110  1  0.199208  0.620664  0.110058  1
  O  O111  1  0.300616  0.879063  0.110067  1
  O  O112  1  0.199359  0.379106  0.133467  1
  O  O113  1  0.376419  0.234655  0.113607  1
  O  O114  1  0.123466  0.734708  0.129927  1
  O  O115  1  0.376366  0.765094  0.129936  1
  O  O116  1  0.123570  0.265156  0.113599  1
  O  O117  1  0.249997  0.249843  0.111960  1
  O  O118  1  0.249912  0.749845  0.131571  1
  O  O119  1  0.403948  0.421592  0.101817  1
  O  O120  1  0.095895  0.921628  0.141713  1
  O  O121  1  0.404064  0.578234  0.141715  1
  O  O122  1  0.095932  0.078266  0.101813  1
  O  O123  1  0.404481  0.385457  0.133981  1
  O  O124  1  0.095372  0.885484  0.109550  1
  O  O125  1  0.404587  0.614386  0.109551  1
  O  O126  1  0.095384  0.114414  0.133977  1
  O  O127  1  0.499972  0.687803  0.128198  1
  O  O128  1  0.200218  0.964717  0.096593  1
  O  O129  1  0.299713  0.464899  0.146947  1
  O  O130  1  0.200193  0.035124  0.146945  1
  O  O131  1  0.299715  0.535284  0.096593  1
  O  O132  1  0.499943  0.312207  0.115339  1
  O  O133  1  0.801760  0.419176  0.546761  1
  O  O134  1  0.698203  0.080772  0.546758  1
  O  O135  1  0.876180  0.259784  0.536067  1
  O  O136  1  0.876176  0.259812  0.489778  1
  O  O137  1  0.623771  0.240210  0.489775  1
  O  O138  1  0.623773  0.240155  0.536065  1
  O  O139  1  0.808666  0.359485  0.512922  1
  O  O140  1  0.691279  0.140496  0.512918  1
  O  O141  1  0.749975  0.249983  0.535826  1
  O  O142  1  0.749974  0.250009  0.490017  1
  O  O143  1  0.901539  0.071751  0.546453  1
  O  O144  1  0.598411  0.428165  0.546456  1
  O  O145  1  0.000000  0.185595  0.535620  1
  O  O146  1  -0.000000  0.185605  0.490223  1
  O  O147  1  0.913784  0.130214  0.512921  1
  O  O148  1  0.586149  0.369754  0.512922  1
  O  O149  1  0.803655  0.574856  0.570879  1
  O  O150  1  0.696276  0.925097  0.570877  1
  O  O151  1  0.699356  0.120745  0.579445  1
  O  O152  1  0.800647  0.379212  0.579448  1
  O  O153  1  0.876421  0.734761  0.582986  1
  O  O154  1  0.623535  0.765156  0.582985  1
  O  O155  1  0.749979  0.749983  0.581345  1
  O  O156  1  0.904075  0.921652  0.571200  1
  O  O157  1  0.595909  0.578253  0.571203  1
  O  O158  1  0.595412  0.385469  0.578939  1
  O  O159  1  0.904527  0.114440  0.578936  1
  O  O160  1  0.700217  0.464798  0.565975  1
  O  O161  1  0.799745  0.035050  0.565969  1
  O  O162  1  0.698153  0.919197  0.390294  1
  O  O163  1  0.801758  0.419196  0.479080  1
  O  O164  1  0.698181  0.080832  0.479076  1
  O  O165  1  0.801755  0.580832  0.390298  1
  O  O166  1  0.598407  0.571752  0.389993  1
  O  O167  1  0.901503  0.071796  0.479386  1
  O  O168  1  0.598413  0.428236  0.479390  1
  O  O169  1  0.901533  0.928273  0.389991  1
  O  O170  1  0.696254  0.074898  0.414410  1
  O  O171  1  0.803627  0.574874  0.454962  1
  O  O172  1  0.696306  0.925154  0.454959  1
  O  O173  1  0.803646  0.425131  0.414413  1
  O  O174  1  0.699252  0.120802  0.446388  1
  O  O175  1  0.800629  0.620775  0.422983  1
  O  O176  1  0.699303  0.879251  0.422980  1
  O  O177  1  0.800647  0.379223  0.446392  1
  O  O178  1  0.623512  0.234820  0.426523  1
  O  O179  1  0.876375  0.734805  0.442851  1
  O  O180  1  0.623526  0.765261  0.442850  1
  O  O181  1  0.876413  0.265241  0.426523  1
  O  O182  1  0.749963  0.250006  0.424881  1
  O  O183  1  0.749949  0.750004  0.444490  1
  O  O184  1  0.595888  0.421703  0.414744  1
  O  O185  1  0.903979  0.921715  0.454637  1
  O  O186  1  0.595939  0.578346  0.454642  1
  O  O187  1  0.904022  0.078355  0.414737  1
  O  O188  1  0.595361  0.385556  0.446907  1
  O  O189  1  0.904497  0.885573  0.422473  1
  O  O190  1  0.595397  0.614482  0.422477  1
  O  O191  1  0.904580  0.114500  0.446902  1
  O  O192  1  -0.000000  0.812219  0.441115  1
  O  O193  1  0.799706  0.964904  0.409501  1
  O  O194  1  0.700209  0.464767  0.459864  1
  O  O195  1  0.799716  0.035314  0.459854  1
  O  O196  1  0.700204  0.535169  0.409512  1
  O  O197  1  -0.000000  0.187810  0.428252  1
  O  O198  1  0.698185  0.919151  0.322616  1
  O  O199  1  0.801768  0.580806  0.322621  1
  O  O200  1  0.623753  0.759765  0.379603  1
  O  O201  1  0.623762  0.759747  0.333310  1
  O  O202  1  0.876174  0.740210  0.333314  1
  O  O203  1  0.876169  0.740251  0.379607  1
  O  O204  1  0.691249  0.859460  0.356456  1
  O  O205  1  0.808685  0.640526  0.356461  1
  O  O206  1  0.749968  0.749982  0.333555  1
  O  O207  1  0.598421  0.571717  0.322924  1
  O  O208  1  0.901542  0.928216  0.322922  1
  O  O209  1  0.000000  0.814383  0.379157  1
  O  O210  1  0.586159  0.630171  0.356457  1
  O  O211  1  0.913791  0.869800  0.356458  1
  O  O212  1  0.696339  0.074828  0.298499  1
  O  O213  1  0.803666  0.425127  0.298502  1
  O  O214  1  0.800659  0.620775  0.289933  1
  O  O215  1  0.699282  0.879179  0.289929  1
  O  O216  1  0.623568  0.234713  0.286389  1
  O  O217  1  0.876425  0.265214  0.286389  1
  O  O218  1  0.749997  0.249981  0.288034  1
  O  O219  1  0.595953  0.421616  0.298178  1
  O  O220  1  0.904008  0.078296  0.298174  1
  O  O221  1  0.904597  0.885508  0.290439  1
  O  O222  1  0.595394  0.614403  0.290441  1
  O  O223  1  0.749961  0.750014  0.379361  1
  O  O224  1  0.799743  0.964687  0.303398  1
  O  O225  1  0.700230  0.535182  0.303404  1
  O  O226  1  0.000000  0.814359  0.333761  1
  O  O227  1  0.000000  0.187745  0.284652  1
  O  O228  1  0.500001  0.312119  0.284660  1
  O  O229  1  0.198201  0.419115  0.546761  1
  O  O230  1  0.301780  0.080746  0.546763  1
  O  O231  1  0.123776  0.259733  0.536065  1
  O  O232  1  0.123771  0.259720  0.489775  1
  O  O233  1  0.376181  0.240120  0.489773  1
  O  O234  1  0.376182  0.240143  0.536065  1
  O  O235  1  0.191282  0.359411  0.512921  1
  O  O236  1  0.308684  0.140434  0.512921  1
  O  O237  1  0.249978  0.249919  0.535824  1
  O  O238  1  0.249978  0.249912  0.490013  1
  O  O239  1  0.098423  0.071717  0.546453  1
  O  O240  1  0.401528  0.428163  0.546453  1
  O  O241  1  0.499974  0.314343  0.490220  1
  O  O242  1  0.499972  0.314315  0.535618  1
  O  O243  1  0.086145  0.130158  0.512920  1
  O  O244  1  0.413787  0.369713  0.512918  1
  O  O245  1  0.196330  0.574809  0.570877  1
  O  O246  1  0.303664  0.925077  0.570882  1
  O  O247  1  0.300657  0.120723  0.579450  1
  O  O248  1  0.199289  0.379159  0.579449  1
  O  O249  1  0.123562  0.734717  0.582986  1
  O  O250  1  0.376419  0.765161  0.582992  1
  O  O251  1  0.249992  0.749947  0.581350  1
  O  O252  1  0.095946  0.921624  0.571200  1
  O  O253  1  0.404015  0.578252  0.571201  1
  O  O254  1  0.404595  0.385461  0.578936  1
  O  O255  1  0.095401  0.114411  0.578935  1
  O  O256  1  0.299742  0.464673  0.565981  1
  O  O257  1  0.200231  0.035147  0.565975  1
  O  O258  1  0.499970  0.687732  0.584723  1
  O  O259  1  -0.000000  0.812132  0.584721  1
  O  O260  1  0.301760  0.919052  0.390304  1
  O  O261  1  0.198180  0.419098  0.479080  1
  O  O262  1  0.301752  0.080697  0.479085  1
  O  O263  1  0.198160  0.580720  0.390295  1
  O  O264  1  0.401531  0.571671  0.389993  1
  O  O265  1  0.098383  0.071715  0.479385  1
  O  O266  1  0.401514  0.428155  0.479387  1
  O  O267  1  0.098433  0.928176  0.389991  1
  O  O268  1  0.303681  0.074707  0.414422  1
  O  O269  1  0.196198  0.574745  0.454959  1
  O  O270  1  0.303590  0.924972  0.454972  1
  O  O271  1  0.196360  0.425009  0.414411  1
  O  O272  1  0.300654  0.120623  0.446400  1
  O  O273  1  0.199208  0.620664  0.422983  1
  O  O274  1  0.300616  0.879063  0.422992  1
  O  O275  1  0.199359  0.379106  0.446392  1
  O  O276  1  0.376419  0.234655  0.426532  1
  O  O277  1  0.123466  0.734708  0.442852  1
  O  O278  1  0.376366  0.765094  0.442861  1
  O  O279  1  0.123570  0.265156  0.426524  1
  O  O280  1  0.249997  0.249843  0.424885  1
  O  O281  1  0.249912  0.749845  0.444496  1
  O  O282  1  0.403948  0.421592  0.414742  1
  O  O283  1  0.095895  0.921628  0.454638  1
  O  O284  1  0.404064  0.578234  0.454640  1
  O  O285  1  0.095932  0.078266  0.414738  1
  O  O286  1  0.404481  0.385457  0.446905  1
  O  O287  1  0.095372  0.885484  0.422474  1
  O  O288  1  0.404587  0.614386  0.422476  1
  O  O289  1  0.095384  0.114414  0.446902  1
  O  O290  1  0.499972  0.687803  0.441123  1
  O  O291  1  0.200218  0.964717  0.409518  1
  O  O292  1  0.299713  0.464899  0.459872  1
  O  O293  1  0.200193  0.035124  0.459870  1
  O  O294  1  0.299715  0.535284  0.409518  1
  O  O295  1  0.499943  0.312207  0.428264  1
  O  O296  1  0.301766  0.919124  0.322623  1
  O  O297  1  0.198175  0.580757  0.322617  1
  O  O298  1  0.376163  0.759672  0.379604  1
  O  O299  1  0.376171  0.759701  0.333312  1
  O  O300  1  0.123763  0.740176  0.333310  1
  O  O301  1  0.123750  0.740144  0.379602  1
  O  O302  1  0.308685  0.859400  0.356460  1
  O  O303  1  0.191248  0.640453  0.356456  1
  O  O304  1  0.249955  0.749901  0.379361  1
  O  O305  1  0.249968  0.749933  0.333554  1
  O  O306  1  0.401543  0.571683  0.322923  1
  O  O307  1  0.098415  0.928198  0.322923  1
  O  O308  1  0.499962  0.685554  0.379154  1
  O  O309  1  0.499971  0.685556  0.333759  1
  O  O310  1  0.413787  0.630114  0.356456  1
  O  O311  1  0.086162  0.869750  0.356458  1
  O  O312  1  0.303666  0.074819  0.298505  1
  O  O313  1  0.196292  0.425067  0.298503  1
  O  O314  1  0.199318  0.620711  0.289931  1
  O  O315  1  0.300657  0.879173  0.289936  1
  O  O316  1  0.376428  0.234710  0.286390  1
  O  O317  1  0.123539  0.265154  0.286392  1
  O  O318  1  0.249985  0.249948  0.288034  1
  O  O319  1  0.404039  0.421597  0.298176  1
  O  O320  1  0.095921  0.078263  0.298174  1
  O  O321  1  0.095421  0.885479  0.290440  1
  O  O322  1  0.404550  0.614379  0.290440  1
  O  O323  1  0.200228  0.964779  0.303406  1
  O  O324  1  0.299735  0.535095  0.303406  1
  O  O325  1  0.698153  0.919197  0.703219  1
  O  O326  1  0.801758  0.419196  0.792005  1
  O  O327  1  0.698181  0.080832  0.792001  1
  O  O328  1  0.801755  0.580832  0.703223  1
  O  O329  1  0.598407  0.571752  0.702918  1
  O  O330  1  0.901503  0.071796  0.792311  1
  O  O331  1  0.598413  0.428236  0.792314  1
  O  O332  1  0.901533  0.928273  0.702916  1
  O  O333  1  0.696254  0.074898  0.727335  1
  O  O334  1  0.803627  0.574874  0.767887  1
  O  O335  1  0.696306  0.925154  0.767884  1
  O  O336  1  0.803646  0.425131  0.727338  1
  O  O337  1  0.699252  0.120802  0.759313  1
  O  O338  1  0.800629  0.620775  0.735908  1
  O  O339  1  0.699303  0.879251  0.735905  1
  O  O340  1  0.800647  0.379223  0.759316  1
  O  O341  1  0.623512  0.234820  0.739448  1
  O  O342  1  0.876375  0.734805  0.755776  1
  O  O343  1  0.623526  0.765261  0.755775  1
  O  O344  1  0.876413  0.265241  0.739448  1
  O  O345  1  0.749963  0.250006  0.737806  1
  O  O346  1  0.749949  0.750004  0.757415  1
  O  O347  1  0.595888  0.421703  0.727668  1
  O  O348  1  0.903979  0.921715  0.767561  1
  O  O349  1  0.595939  0.578346  0.767567  1
  O  O350  1  0.904022  0.078355  0.727662  1
  O  O351  1  0.595361  0.385556  0.759832  1
  O  O352  1  0.904497  0.885573  0.735398  1
  O  O353  1  0.595397  0.614482  0.735402  1
  O  O354  1  0.904580  0.114500  0.759827  1
  O  O355  1  0.000000  0.812219  0.754040  1
  O  O356  1  0.799706  0.964904  0.722426  1
  O  O357  1  0.700209  0.464767  0.772789  1
  O  O358  1  0.799716  0.035314  0.772778  1
  O  O359  1  0.700204  0.535169  0.722437  1
  O  O360  1  -0.000000  0.187810  0.741177  1
  O  O361  1  0.698185  0.919151  0.635541  1
  O  O362  1  0.801768  0.580806  0.635546  1
  O  O363  1  0.623753  0.759765  0.692528  1
  O  O364  1  0.623762  0.759747  0.646235  1
  O  O365  1  0.876174  0.740210  0.646239  1
  O  O366  1  0.876169  0.740251  0.692532  1
  O  O367  1  0.691249  0.859460  0.669381  1
  O  O368  1  0.808685  0.640526  0.669386  1
  O  O369  1  0.749968  0.749982  0.646480  1
  O  O370  1  0.598421  0.571717  0.635849  1
  O  O371  1  0.901542  0.928216  0.635847  1
  O  O372  1  -0.000000  0.814383  0.692082  1
  O  O373  1  0.586159  0.630171  0.669382  1
  O  O374  1  0.913791  0.869800  0.669383  1
  O  O375  1  0.696339  0.074828  0.611424  1
  O  O376  1  0.803666  0.425127  0.611427  1
  O  O377  1  0.800659  0.620775  0.602858  1
  O  O378  1  0.699282  0.879179  0.602854  1
  O  O379  1  0.623568  0.234713  0.599314  1
  O  O380  1  0.876425  0.265214  0.599314  1
  O  O381  1  0.749997  0.249981  0.600959  1
  O  O382  1  0.595953  0.421616  0.611103  1
  O  O383  1  0.904008  0.078296  0.611099  1
  O  O384  1  0.904597  0.885508  0.603364  1
  O  O385  1  0.595394  0.614403  0.603366  1
  O  O386  1  0.749961  0.750014  0.692286  1
  O  O387  1  0.799743  0.964687  0.616323  1
  O  O388  1  0.700230  0.535182  0.616329  1
  O  O389  1  0.000000  0.814359  0.646686  1
  O  O390  1  0.000000  0.187745  0.597577  1
  O  O391  1  0.500001  0.312119  0.597585  1
  O  O392  1  0.301760  0.919052  0.703228  1
  O  O393  1  0.198180  0.419098  0.792005  1
  O  O394  1  0.301752  0.080697  0.792010  1
  O  O395  1  0.198160  0.580720  0.703220  1
  O  O396  1  0.401531  0.571671  0.702918  1
  O  O397  1  0.098383  0.071715  0.792310  1
  O  O398  1  0.401514  0.428155  0.792312  1
  O  O399  1  0.098433  0.928176  0.702916  1
  O  O400  1  0.303681  0.074707  0.727347  1
  O  O401  1  0.196198  0.574745  0.767884  1
  O  O402  1  0.303590  0.924972  0.767897  1
  O  O403  1  0.196360  0.425009  0.727336  1
  O  O404  1  0.300654  0.120623  0.759325  1
  O  O405  1  0.199208  0.620664  0.735907  1
  O  O406  1  0.300616  0.879063  0.735917  1
  O  O407  1  0.199359  0.379106  0.759317  1
  O  O408  1  0.376419  0.234655  0.739457  1
  O  O409  1  0.123466  0.734708  0.755777  1
  O  O410  1  0.376366  0.765094  0.755786  1
  O  O411  1  0.123570  0.265156  0.739449  1
  O  O412  1  0.249997  0.249843  0.737809  1
  O  O413  1  0.249912  0.749845  0.757421  1
  O  O414  1  0.403948  0.421592  0.727667  1
  O  O415  1  0.095895  0.921628  0.767563  1
  O  O416  1  0.404064  0.578234  0.767565  1
  O  O417  1  0.095932  0.078266  0.727663  1
  O  O418  1  0.404481  0.385457  0.759830  1
  O  O419  1  0.095372  0.885484  0.735399  1
  O  O420  1  0.404587  0.614386  0.735401  1
  O  O421  1  0.095384  0.114414  0.759827  1
  O  O422  1  0.499972  0.687803  0.754047  1
  O  O423  1  0.200218  0.964717  0.722443  1
  O  O424  1  0.299713  0.464899  0.772797  1
  O  O425  1  0.200193  0.035124  0.772795  1
  O  O426  1  0.299715  0.535284  0.722443  1
  O  O427  1  0.499943  0.312207  0.741189  1
  O  O428  1  0.301766  0.919124  0.635547  1
  O  O429  1  0.198175  0.580757  0.635542  1
  O  O430  1  0.376163  0.759672  0.692529  1
  O  O431  1  0.376171  0.759701  0.646237  1
  O  O432  1  0.123763  0.740176  0.646235  1
  O  O433  1  0.123750  0.740144  0.692527  1
  O  O434  1  0.308685  0.859400  0.669385  1
  O  O435  1  0.191248  0.640453  0.669381  1
  O  O436  1  0.249955  0.749901  0.692286  1
  O  O437  1  0.249968  0.749933  0.646479  1
  O  O438  1  0.401543  0.571683  0.635848  1
  O  O439  1  0.098415  0.928198  0.635848  1
  O  O440  1  0.499962  0.685554  0.692079  1
  O  O441  1  0.499971  0.685556  0.646684  1
  O  O442  1  0.413787  0.630114  0.669381  1
  O  O443  1  0.086162  0.869750  0.669382  1
  O  O444  1  0.303666  0.074819  0.611430  1
  O  O445  1  0.196292  0.425067  0.611428  1
  O  O446  1  0.199318  0.620711  0.602856  1
  O  O447  1  0.300657  0.879173  0.602861  1
  O  O448  1  0.376428  0.234710  0.599315  1
  O  O449  1  0.123539  0.265154  0.599317  1
  O  O450  1  0.249985  0.249948  0.600959  1
  O  O451  1  0.404039  0.421597  0.611101  1
  O  O452  1  0.095921  0.078263  0.611099  1
  O  O453  1  0.095421  0.885479  0.603364  1
  O  O454  1  0.404550  0.614379  0.603365  1
  O  O455  1  0.200228  0.964779  0.616331  1
  O  O456  1  0.299735  0.535095  0.616331  1
  Si  Si457  1  0.622140  0.466591  0.252136  1
  Si  Si458  1  0.810652  0.327367  0.219981  1
  Si  Si459  1  0.810649  0.327395  0.180012  1
  Si  Si460  1  0.689296  0.172625  0.180010  1
  Si  Si461  1  0.689306  0.172589  0.219979  1
  Si  Si462  1  0.922946  0.160416  0.220009  1
  Si  Si463  1  0.922931  0.160429  0.179984  1
  Si  Si464  1  0.576999  0.339569  0.179984  1
  Si  Si465  1  0.577002  0.339518  0.220009  1
  Si  Si466  1  0.809209  0.670095  0.271240  1
  Si  Si467  1  0.690737  0.829852  0.271237  1
  Si  Si468  1  0.922671  0.834816  0.272323  1
  Si  Si469  1  0.577303  0.665083  0.272325  1
  Si  Si470  1  0.778433  0.461596  0.252256  1
  Si  Si471  1  0.721529  0.038337  0.252251  1
  Si  Si472  1  0.877821  0.033300  0.252132  1
  Si  Si473  1  0.622133  0.466660  0.147858  1
  Si  Si474  1  0.877784  0.966703  0.095668  1
  Si  Si475  1  0.690718  0.170137  0.114772  1
  Si  Si476  1  0.809175  0.670107  0.128750  1
  Si  Si477  1  0.690739  0.829927  0.128746  1
  Si  Si478  1  0.809195  0.329895  0.114775  1
  Si  Si479  1  0.577272  0.334879  0.115866  1
  Si  Si480  1  0.922595  0.834893  0.127663  1
  Si  Si481  1  0.577308  0.665162  0.127669  1
  Si  Si482  1  0.922654  0.165175  0.115859  1
  Si  Si483  1  0.721490  0.961645  0.095786  1
  Si  Si484  1  0.778426  0.461601  0.147735  1
  Si  Si485  1  0.721499  0.038434  0.147730  1
  Si  Si486  1  0.778422  0.538391  0.095790  1
  Si  Si487  1  0.622128  0.533354  0.095675  1
  Si  Si488  1  0.877791  0.033405  0.147852  1
  Si  Si489  1  0.377818  0.466567  0.252136  1
  Si  Si490  1  0.189305  0.327310  0.219980  1
  Si  Si491  1  0.189301  0.327292  0.180011  1
  Si  Si492  1  0.310656  0.172533  0.180011  1
  Si  Si493  1  0.310661  0.172546  0.219980  1
  Si  Si494  1  0.077004  0.160372  0.220008  1
  Si  Si495  1  0.076989  0.160373  0.179983  1
  Si  Si496  1  0.422939  0.339499  0.179981  1
  Si  Si497  1  0.422943  0.339514  0.220006  1
  Si  Si498  1  0.190770  0.670040  0.271240  1
  Si  Si499  1  0.309214  0.829846  0.271244  1
  Si  Si500  1  0.077334  0.834797  0.272323  1
  Si  Si501  1  0.422639  0.665069  0.272325  1
  Si  Si502  1  0.221525  0.461528  0.252256  1
  Si  Si503  1  0.278448  0.038338  0.252257  1
  Si  Si504  1  0.122154  0.033298  0.252133  1
  Si  Si505  1  0.122143  0.966588  0.095673  1
  Si  Si506  1  0.309221  0.169948  0.114783  1
  Si  Si507  1  0.190662  0.669994  0.128750  1
  Si  Si508  1  0.309145  0.829738  0.128760  1
  Si  Si509  1  0.190796  0.329789  0.114775  1
  Si  Si510  1  0.422603  0.334792  0.115865  1
  Si  Si511  1  0.077262  0.834815  0.127665  1
  Si  Si512  1  0.422646  0.665080  0.127668  1
  Si  Si513  1  0.077318  0.165102  0.115860  1
  Si  Si514  1  0.278434  0.961462  0.095799  1
  Si  Si515  1  0.221496  0.461532  0.147736  1
  Si  Si516  1  0.278410  0.038260  0.147743  1
  Si  Si517  1  0.221497  0.538320  0.095791  1
  Si  Si518  1  0.377790  0.533298  0.095675  1
  Si  Si519  1  0.122116  0.033294  0.147856  1
  Si  Si520  1  0.377789  0.466603  0.147859  1
  Si  Si521  1  0.622140  0.466591  0.565061  1
  Si  Si522  1  0.810652  0.327367  0.532906  1
  Si  Si523  1  0.810649  0.327395  0.492937  1
  Si  Si524  1  0.689296  0.172625  0.492935  1
  Si  Si525  1  0.689306  0.172589  0.532903  1
  Si  Si526  1  0.922946  0.160416  0.532934  1
  Si  Si527  1  0.922931  0.160429  0.492909  1
  Si  Si528  1  0.576999  0.339569  0.492908  1
  Si  Si529  1  0.577002  0.339518  0.532934  1
  Si  Si530  1  0.809209  0.670095  0.584165  1
  Si  Si531  1  0.690737  0.829852  0.584162  1
  Si  Si532  1  0.922671  0.834816  0.585248  1
  Si  Si533  1  0.577303  0.665083  0.585250  1
  Si  Si534  1  0.778433  0.461596  0.565181  1
  Si  Si535  1  0.721529  0.038337  0.565176  1
  Si  Si536  1  0.877821  0.033300  0.565057  1
  Si  Si537  1  0.622133  0.466660  0.460783  1
  Si  Si538  1  0.877784  0.966703  0.408593  1
  Si  Si539  1  0.690718  0.170137  0.427697  1
  Si  Si540  1  0.809175  0.670107  0.441675  1
  Si  Si541  1  0.690739  0.829927  0.441671  1
  Si  Si542  1  0.809195  0.329895  0.427700  1
  Si  Si543  1  0.577272  0.334879  0.428791  1
  Si  Si544  1  0.922595  0.834893  0.440588  1
  Si  Si545  1  0.577308  0.665162  0.440594  1
  Si  Si546  1  0.922654  0.165175  0.428784  1
  Si  Si547  1  0.721490  0.961645  0.408711  1
  Si  Si548  1  0.778426  0.461601  0.460660  1
  Si  Si549  1  0.721499  0.038434  0.460655  1
  Si  Si550  1  0.778422  0.538391  0.408715  1
  Si  Si551  1  0.622128  0.533354  0.408600  1
  Si  Si552  1  0.877791  0.033405  0.460777  1
  Si  Si553  1  0.877819  0.966608  0.304315  1
  Si  Si554  1  0.689271  0.827368  0.376441  1
  Si  Si555  1  0.689280  0.827348  0.336472  1
  Si  Si556  1  0.810653  0.672620  0.336476  1
  Si  Si557  1  0.810651  0.672652  0.376445  1
  Si  Si558  1  0.576996  0.660387  0.376469  1
  Si  Si559  1  0.577003  0.660372  0.336444  1
  Si  Si560  1  0.922944  0.839572  0.336446  1
  Si  Si561  1  0.922942  0.839606  0.376472  1
  Si  Si562  1  0.690787  0.170060  0.285212  1
  Si  Si563  1  0.809215  0.329893  0.285215  1
  Si  Si564  1  0.577332  0.334787  0.284131  1
  Si  Si565  1  0.922637  0.165114  0.284126  1
  Si  Si566  1  0.721526  0.961549  0.304196  1
  Si  Si567  1  0.778445  0.538388  0.304200  1
  Si  Si568  1  0.622153  0.533299  0.304319  1
  Si  Si569  1  0.377818  0.466567  0.565061  1
  Si  Si570  1  0.189305  0.327310  0.532905  1
  Si  Si571  1  0.189301  0.327292  0.492936  1
  Si  Si572  1  0.310656  0.172533  0.492936  1
  Si  Si573  1  0.310661  0.172546  0.532905  1
  Si  Si574  1  0.077004  0.160372  0.532933  1
  Si  Si575  1  0.076989  0.160373  0.492908  1
  Si  Si576  1  0.422939  0.339499  0.492906  1
  Si  Si577  1  0.422943  0.339514  0.532931  1
  Si  Si578  1  0.190770  0.670040  0.584165  1
  Si  Si579  1  0.309214  0.829846  0.584169  1
  Si  Si580  1  0.077334  0.834797  0.585248  1
  Si  Si581  1  0.422639  0.665069  0.585250  1
  Si  Si582  1  0.221525  0.461528  0.565181  1
  Si  Si583  1  0.278448  0.038338  0.565182  1
  Si  Si584  1  0.122154  0.033298  0.565058  1
  Si  Si585  1  0.122143  0.966588  0.408598  1
  Si  Si586  1  0.309221  0.169948  0.427708  1
  Si  Si587  1  0.190662  0.669994  0.441675  1
  Si  Si588  1  0.309145  0.829738  0.441685  1
  Si  Si589  1  0.190796  0.329789  0.427700  1
  Si  Si590  1  0.422603  0.334792  0.428790  1
  Si  Si591  1  0.077262  0.834815  0.440590  1
  Si  Si592  1  0.422646  0.665080  0.440593  1
  Si  Si593  1  0.077318  0.165102  0.428785  1
  Si  Si594  1  0.278434  0.961462  0.408724  1
  Si  Si595  1  0.221496  0.461532  0.460661  1
  Si  Si596  1  0.278410  0.038260  0.460668  1
  Si  Si597  1  0.221497  0.538320  0.408716  1
  Si  Si598  1  0.377790  0.533298  0.408600  1
  Si  Si599  1  0.122116  0.033294  0.460780  1
  Si  Si600  1  0.377789  0.466603  0.460784  1
  Si  Si601  1  0.122151  0.966605  0.304317  1
  Si  Si602  1  0.310642  0.827265  0.376444  1
  Si  Si603  1  0.310653  0.827297  0.336475  1
  Si  Si604  1  0.189279  0.672570  0.336472  1
  Si  Si605  1  0.189268  0.672538  0.376441  1
  Si  Si606  1  0.422936  0.660318  0.376469  1
  Si  Si607  1  0.422943  0.660341  0.336444  1
  Si  Si608  1  0.077003  0.839550  0.336445  1
  Si  Si609  1  0.077003  0.839536  0.376470  1
  Si  Si610  1  0.309212  0.170050  0.285216  1
  Si  Si611  1  0.190749  0.329828  0.285216  1
  Si  Si612  1  0.422668  0.334776  0.284128  1
  Si  Si613  1  0.077304  0.165086  0.284126  1
  Si  Si614  1  0.278444  0.961559  0.304204  1
  Si  Si615  1  0.221518  0.538326  0.304200  1
  Si  Si616  1  0.377812  0.533259  0.304318  1
  Si  Si617  1  0.622133  0.466660  0.773708  1
  Si  Si618  1  0.877784  0.966703  0.721518  1
  Si  Si619  1  0.690718  0.170137  0.740621  1
  Si  Si620  1  0.809175  0.670107  0.754599  1
  Si  Si621  1  0.690739  0.829927  0.754596  1
  Si  Si622  1  0.809195  0.329895  0.740625  1
  Si  Si623  1  0.577272  0.334879  0.741716  1
  Si  Si624  1  0.922595  0.834893  0.753513  1
  Si  Si625  1  0.577308  0.665162  0.753519  1
  Si  Si626  1  0.922654  0.165175  0.741709  1
  Si  Si627  1  0.721490  0.961645  0.721636  1
  Si  Si628  1  0.778426  0.461601  0.773585  1
  Si  Si629  1  0.721499  0.038434  0.773580  1
  Si  Si630  1  0.778422  0.538391  0.721640  1
  Si  Si631  1  0.622128  0.533354  0.721525  1
  Si  Si632  1  0.877791  0.033405  0.773702  1
  Si  Si633  1  0.877819  0.966608  0.617240  1
  Si  Si634  1  0.689271  0.827368  0.689366  1
  Si  Si635  1  0.689280  0.827348  0.649397  1
  Si  Si636  1  0.810653  0.672620  0.649401  1
  Si  Si637  1  0.810651  0.672652  0.689370  1
  Si  Si638  1  0.576996  0.660387  0.689394  1
  Si  Si639  1  0.577003  0.660372  0.649369  1
  Si  Si640  1  0.922944  0.839572  0.649371  1
  Si  Si641  1  0.922942  0.839606  0.689397  1
  Si  Si642  1  0.690787  0.170060  0.598137  1
  Si  Si643  1  0.809215  0.329893  0.598140  1
  Si  Si644  1  0.577332  0.334787  0.597056  1
  Si  Si645  1  0.922637  0.165114  0.597051  1
  Si  Si646  1  0.721526  0.961549  0.617121  1
  Si  Si647  1  0.778445  0.538388  0.617125  1
  Si  Si648  1  0.622153  0.533299  0.617244  1
  Si  Si649  1  0.122143  0.966588  0.721523  1
  Si  Si650  1  0.309221  0.169948  0.740633  1
  Si  Si651  1  0.190662  0.669994  0.754599  1
  Si  Si652  1  0.309145  0.829738  0.754609  1
  Si  Si653  1  0.190796  0.329789  0.740625  1
  Si  Si654  1  0.422603  0.334792  0.741715  1
  Si  Si655  1  0.077262  0.834815  0.753515  1
  Si  Si656  1  0.422646  0.665080  0.753518  1
  Si  Si657  1  0.077318  0.165102  0.741709  1
  Si  Si658  1  0.278434  0.961462  0.721648  1
  Si  Si659  1  0.221496  0.461532  0.773586  1
  Si  Si660  1  0.278410  0.038260  0.773592  1
  Si  Si661  1  0.221497  0.538320  0.721641  1
  Si  Si662  1  0.377790  0.533298  0.721525  1
  Si  Si663  1  0.122116  0.033294  0.773705  1
  Si  Si664  1  0.377789  0.466603  0.773709  1
  Si  Si665  1  0.122151  0.966605  0.617242  1
  Si  Si666  1  0.310642  0.827265  0.689369  1
  Si  Si667  1  0.310653  0.827297  0.649400  1
  Si  Si668  1  0.189279  0.672570  0.649397  1
  Si  Si669  1  0.189268  0.672538  0.689366  1
  Si  Si670  1  0.422936  0.660318  0.689394  1
  Si  Si671  1  0.422943  0.660341  0.649369  1
  Si  Si672  1  0.077003  0.839550  0.649370  1
  Si  Si673  1  0.077003  0.839536  0.689395  1
  Si  Si674  1  0.309212  0.170050  0.598141  1
  Si  Si675  1  0.190749  0.329828  0.598141  1
  Si  Si676  1  0.422668  0.334776  0.597053  1
  Si  Si677  1  0.077304  0.165086  0.597051  1
  Si  Si678  1  0.278444  0.961559  0.617128  1
  Si  Si679  1  0.221518  0.538326  0.617125  1
  Si  Si680  1  0.377812  0.533259  0.617243  1
  H  H681  1  0.698153  0.919197  0.065613  1
  H  H682  1  0.801755  0.580832  0.065618  1
  H  H683  1  0.598407  0.571752  0.065312  1
  H  H684  1  0.901533  0.928273  0.065310  1
  H  H685  1  0.301760  0.919052  0.065623  1
  H  H686  1  0.198160  0.580720  0.065615  1
  H  H687  1  0.401531  0.571671  0.065312  1
  H  H688  1  0.098433  0.928176  0.065311  1
  H  H689  1  0.801758  0.419196  0.803760  1
  H  H690  1  0.698181  0.080832  0.803757  1
  H  H691  1  0.901503  0.071796  0.804066  1
  H  H692  1  0.598413  0.428236  0.804070  1
  H  H693  1  0.198180  0.419098  0.803761  1
  H  H694  1  0.301752  0.080697  0.803766  1
  H  H695  1  0.098383  0.071715  0.804066  1
  H  H696  1  0.401514  0.428155  0.804068  1
