# generated using pymatgen
data_Si115(HO58)4
_symmetry_space_group_name_H-M   'P 1'
_cell_length_a   14.05413494
_cell_length_b   13.77403359
_cell_length_c   112.79891538
_cell_angle_alpha   90.00000000
_cell_angle_beta   90.00000000
_cell_angle_gamma   90.00000000
_symmetry_Int_Tables_number   1
_chemical_formula_structural   Si115(HO58)4
_chemical_formula_sum   'Si230 H8 O464'
_cell_volume   21835.8539328
_cell_formula_units_Z   2
loop_
 _symmetry_equiv_pos_site_id
 _symmetry_equiv_pos_as_xyz
  1  'x, y, z'
loop_
 _atom_site_type_symbol
 _atom_site_label
 _atom_site_symmetry_multiplicity
 _atom_site_fract_x
 _atom_site_fract_y
 _atom_site_fract_z
 _atom_site_occupancy
  O  O1  1  -0.000000  0.337983  0.208392  1
  O  O2  1  0.500420  0.663924  0.228256  1
  O  O3  1  0.584192  0.750958  0.210579  1
  O  O4  1  0.910927  0.249755  0.225560  1
  O  O5  1  0.730466  0.249767  0.256921  1
  O  O6  1  0.667406  0.413527  0.249695  1
  O  O7  1  0.668114  0.085831  0.249622  1
  O  O8  1  0.791425  0.414494  0.264534  1
  O  O9  1  0.791052  0.085041  0.264624  1
  O  O10  1  0.659416  0.837265  0.192029  1
  O  O11  1  0.836769  0.337500  0.244080  1
  O  O12  1  0.836810  0.161770  0.244112  1
  O  O13  1  0.660806  0.661766  0.192090  1
  O  O14  1  0.868741  0.749419  0.282048  1
  O  O15  1  0.828219  0.912760  0.272231  1
  O  O16  1  0.827781  0.586705  0.272104  1
  O  O17  1  0.870449  0.912128  0.293045  1
  O  O18  1  0.870608  0.584695  0.292858  1
  O  O19  1  0.587942  0.583702  0.246352  1
  O  O20  1  0.589217  0.916246  0.246083  1
  O  O21  1  0.750178  0.024700  0.285841  1
  O  O22  1  0.752834  0.473971  0.285891  1
  O  O23  1  0.660114  0.972810  0.266028  1
  O  O24  1  0.659277  0.525584  0.266188  1
  O  O25  1  0.500310  0.842061  0.227915  1
  O  O26  1  0.998835  0.162135  0.208303  1
  O  O27  1  -0.000000  0.871767  0.278414  1
  O  O28  1  -0.000000  0.626820  0.278140  1
  O  O29  1  0.503337  0.750945  0.246491  1
  O  O30  1  0.000000  0.249194  0.243828  1
  O  O31  1  0.770513  0.749946  0.179731  1
  O  O32  1  0.770470  0.250832  0.098510  1
  O  O33  1  0.829032  0.914994  0.187109  1
  O  O34  1  0.832366  0.086927  0.091048  1
  O  O35  1  0.830682  0.584649  0.186878  1
  O  O36  1  0.831034  0.416356  0.091369  1
  O  O37  1  0.709906  0.914168  0.171751  1
  O  O38  1  0.710922  0.085251  0.106129  1
  O  O39  1  0.709790  0.586778  0.171658  1
  O  O40  1  0.706698  0.413068  0.106478  1
  O  O41  1  0.630174  0.249804  0.154255  1
  O  O42  1  0.630326  0.749765  0.123787  1
  O  O43  1  0.671965  0.414948  0.163825  1
  O  O44  1  0.671146  0.585065  0.114088  1
  O  O45  1  0.671934  0.085834  0.163937  1
  O  O46  1  0.672412  0.913822  0.114064  1
  O  O47  1  0.628417  0.412151  0.143302  1
  O  O48  1  0.629970  0.585606  0.134709  1
  O  O49  1  0.629239  0.085297  0.143397  1
  O  O50  1  0.628159  0.912026  0.134810  1
  O  O51  1  0.998225  0.750427  0.088261  1
  O  O52  1  0.913711  0.916672  0.088036  1
  O  O53  1  0.912983  0.084872  0.189802  1
  O  O54  1  0.911628  0.585918  0.087964  1
  O  O55  1  0.912247  0.414974  0.190116  1
  O  O56  1  0.750767  0.525499  0.150511  1
  O  O57  1  0.747857  0.473158  0.127578  1
  O  O58  1  0.748008  0.973670  0.150446  1
  O  O59  1  0.748166  0.023969  0.127420  1
  O  O60  1  0.840135  0.473639  0.170292  1
  O  O61  1  0.839563  0.526067  0.107792  1
  O  O62  1  0.840325  0.026568  0.169965  1
  O  O63  1  0.841079  0.972391  0.107920  1
  O  O64  1  0.998025  0.962384  0.179275  1
  O  O65  1  0.000000  0.037478  0.099219  1
  O  O66  1  0.500054  0.872264  0.120016  1
  O  O67  1  0.914479  0.750666  0.052305  1
  O  O68  1  0.588961  0.250573  0.067322  1
  O  O69  1  0.663032  0.162724  0.085784  1
  O  O70  1  0.661558  0.338646  0.085959  1
  O  O71  1  0.499517  0.037127  0.257364  1
  O  O72  1  0.499843  0.458981  0.257783  1
  O  O73  1  0.414700  0.751135  0.210673  1
  O  O74  1  0.087413  0.249027  0.225586  1
  O  O75  1  0.268990  0.249118  0.256896  1
  O  O76  1  0.331243  0.085842  0.249451  1
  O  O77  1  0.330942  0.414692  0.249947  1
  O  O78  1  0.208451  0.084992  0.264732  1
  O  O79  1  0.207025  0.412373  0.264625  1
  O  O80  1  0.338328  0.659864  0.192435  1
  O  O81  1  0.161806  0.161047  0.244150  1
  O  O82  1  0.161615  0.336988  0.244128  1
  O  O83  1  0.337603  0.837804  0.192023  1
  O  O84  1  0.129846  0.749016  0.282038  1
  O  O85  1  0.173166  0.584491  0.272242  1
  O  O86  1  0.171439  0.913581  0.272550  1
  O  O87  1  0.127450  0.586408  0.292917  1
  O  O88  1  0.129490  0.913508  0.292903  1
  O  O89  1  0.414917  0.916848  0.246486  1
  O  O90  1  0.416927  0.584008  0.246824  1
  O  O91  1  0.247519  0.473677  0.285691  1
  O  O92  1  0.249196  0.027442  0.285995  1
  O  O93  1  0.343228  0.525818  0.266521  1
  O  O94  1  0.339258  0.974987  0.266330  1
  O  O95  1  0.231655  0.249932  0.098287  1
  O  O96  1  0.229893  0.751075  0.179691  1
  O  O97  1  0.169502  0.415529  0.091336  1
  O  O98  1  0.169256  0.585683  0.186913  1
  O  O99  1  0.168876  0.084472  0.091383  1
  O  O100  1  0.167223  0.915130  0.187217  1
  O  O101  1  0.290952  0.414772  0.106156  1
  O  O102  1  0.292213  0.585631  0.171937  1
  O  O103  1  0.290778  0.085079  0.106150  1
  O  O104  1  0.291414  0.914204  0.171630  1
  O  O105  1  0.369739  0.750418  0.123851  1
  O  O106  1  0.368954  0.250329  0.154283  1
  O  O107  1  0.327332  0.913651  0.114043  1
  O  O108  1  0.327837  0.085622  0.163925  1
  O  O109  1  0.327657  0.586329  0.114113  1
  O  O110  1  0.328856  0.413155  0.164312  1
  O  O111  1  0.370756  0.915317  0.134562  1
  O  O112  1  0.371180  0.088498  0.143154  1
  O  O113  1  0.371410  0.588260  0.134869  1
  O  O114  1  0.370232  0.415295  0.143506  1
  O  O115  1  0.499877  0.372311  0.158039  1
  O  O116  1  0.000000  0.535843  0.179229  1
  O  O117  1  0.088143  0.415774  0.190202  1
  O  O118  1  0.085563  0.585306  0.088270  1
  O  O119  1  0.087415  0.085227  0.190247  1
  O  O120  1  0.085957  0.914760  0.088339  1
  O  O121  1  0.498788  0.748092  0.191690  1
  O  O122  1  0.251672  0.026540  0.127490  1
  O  O123  1  0.251689  0.975891  0.150538  1
  O  O124  1  0.251800  0.475915  0.127449  1
  O  O125  1  0.252826  0.525765  0.150602  1
  O  O126  1  0.158154  0.972523  0.108151  1
  O  O127  1  0.159545  0.025051  0.170495  1
  O  O128  1  0.158846  0.528262  0.108039  1
  O  O129  1  0.161033  0.473573  0.170389  1
  O  O130  1  -0.000000  0.464332  0.099093  1
  O  O131  1  0.499668  0.127862  0.157928  1
  O  O132  1  -0.000000  0.250619  0.189793  1
  O  O133  1  0.499842  0.627709  0.120156  1
  O  O134  1  0.088580  0.749813  0.052438  1
  O  O135  1  0.414823  0.249566  0.067436  1
  O  O136  1  0.337809  0.339575  0.085633  1
  O  O137  1  0.337603  0.159959  0.085640  1
  O  O138  1  0.499181  0.249767  0.085780  1
  O  O139  1  0.001593  0.838105  0.069767  1
  O  O140  1  -0.000000  0.662542  0.069765  1
  O  O141  1  0.000000  0.337983  0.525119  1
  O  O142  1  0.500420  0.663924  0.544984  1
  O  O143  1  0.584192  0.750958  0.527306  1
  O  O144  1  0.910927  0.249755  0.542287  1
  O  O145  1  0.730466  0.249767  0.573648  1
  O  O146  1  0.667406  0.413527  0.566422  1
  O  O147  1  0.668114  0.085831  0.566349  1
  O  O148  1  0.791425  0.414494  0.581261  1
  O  O149  1  0.791052  0.085041  0.581352  1
  O  O150  1  0.659416  0.837265  0.508757  1
  O  O151  1  0.836769  0.337500  0.560807  1
  O  O152  1  0.836810  0.161770  0.560839  1
  O  O153  1  0.660806  0.661766  0.508818  1
  O  O154  1  0.868741  0.749419  0.598775  1
  O  O155  1  0.828219  0.912760  0.588959  1
  O  O156  1  0.827781  0.586705  0.588831  1
  O  O157  1  0.870449  0.912128  0.609773  1
  O  O158  1  0.870608  0.584695  0.609585  1
  O  O159  1  0.587942  0.583702  0.563079  1
  O  O160  1  0.589217  0.916246  0.562811  1
  O  O161  1  0.750178  0.024700  0.602568  1
  O  O162  1  0.752834  0.473971  0.602619  1
  O  O163  1  0.660114  0.972810  0.582756  1
  O  O164  1  0.659277  0.525584  0.582916  1
  O  O165  1  0.500310  0.842061  0.544642  1
  O  O166  1  0.998835  0.162135  0.525031  1
  O  O167  1  0.000000  0.871767  0.595141  1
  O  O168  1  0.000000  0.626820  0.594868  1
  O  O169  1  0.503337  0.750945  0.563219  1
  O  O170  1  0.000000  0.249194  0.560556  1
  O  O171  1  0.770513  0.749946  0.496459  1
  O  O172  1  0.770470  0.250832  0.415237  1
  O  O173  1  0.829032  0.914994  0.503836  1
  O  O174  1  0.832366  0.086927  0.407776  1
  O  O175  1  0.830682  0.584649  0.503605  1
  O  O176  1  0.831034  0.416356  0.408097  1
  O  O177  1  0.709906  0.914168  0.488479  1
  O  O178  1  0.710922  0.085251  0.422857  1
  O  O179  1  0.709790  0.586778  0.488385  1
  O  O180  1  0.706698  0.413068  0.423205  1
  O  O181  1  0.630174  0.249804  0.470983  1
  O  O182  1  0.630326  0.749765  0.440515  1
  O  O183  1  0.671965  0.414948  0.480553  1
  O  O184  1  0.671146  0.585065  0.430815  1
  O  O185  1  0.671934  0.085834  0.480665  1
  O  O186  1  0.672412  0.913822  0.430792  1
  O  O187  1  0.628417  0.412151  0.460030  1
  O  O188  1  0.629970  0.585606  0.451436  1
  O  O189  1  0.629239  0.085297  0.460124  1
  O  O190  1  0.628159  0.912026  0.451538  1
  O  O191  1  0.998225  0.750427  0.404989  1
  O  O192  1  0.913711  0.916672  0.404764  1
  O  O193  1  0.912983  0.084872  0.506529  1
  O  O194  1  0.911628  0.585918  0.404692  1
  O  O195  1  0.912247  0.414974  0.506843  1
  O  O196  1  0.750767  0.525499  0.467239  1
  O  O197  1  0.747857  0.473158  0.444305  1
  O  O198  1  0.748008  0.973670  0.467173  1
  O  O199  1  0.748166  0.023969  0.444148  1
  O  O200  1  0.840135  0.473639  0.487020  1
  O  O201  1  0.839563  0.526067  0.424520  1
  O  O202  1  0.840325  0.026568  0.486693  1
  O  O203  1  0.841079  0.972391  0.424647  1
  O  O204  1  0.998025  0.962384  0.496002  1
  O  O205  1  0.000000  0.037478  0.415946  1
  O  O206  1  0.500054  0.872264  0.436744  1
  O  O207  1  0.501656  0.337576  0.366747  1
  O  O208  1  0.502160  0.161867  0.366751  1
  O  O209  1  0.914479  0.750666  0.369033  1
  O  O210  1  0.588961  0.250573  0.384050  1
  O  O211  1  0.731915  0.750005  0.338046  1
  O  O212  1  0.668747  0.585357  0.345286  1
  O  O213  1  0.668401  0.914658  0.345169  1
  O  O214  1  0.791884  0.584628  0.330309  1
  O  O215  1  0.791936  0.915306  0.330233  1
  O  O216  1  0.837334  0.660572  0.350808  1
  O  O217  1  0.663032  0.162724  0.402511  1
  O  O218  1  0.661558  0.338646  0.402686  1
  O  O219  1  0.837104  0.840039  0.350771  1
  O  O220  1  0.869231  0.250228  0.312679  1
  O  O221  1  0.828428  0.087432  0.322584  1
  O  O222  1  0.828336  0.412739  0.322682  1
  O  O223  1  0.870197  0.085374  0.301770  1
  O  O224  1  0.871694  0.412423  0.301670  1
  O  O225  1  0.501917  0.249658  0.348223  1
  O  O226  1  0.588671  0.414895  0.348572  1
  O  O227  1  0.588538  0.084730  0.348479  1
  O  O228  1  0.998803  0.750554  0.350689  1
  O  O229  1  0.752479  0.974956  0.308855  1
  O  O230  1  0.753042  0.523168  0.309032  1
  O  O231  1  0.660185  0.026763  0.328652  1
  O  O232  1  0.660227  0.473053  0.328800  1
  O  O233  1  0.000000  0.373062  0.316517  1
  O  O234  1  0.000000  0.127640  0.316451  1
  O  O235  1  0.499517  0.037127  0.574092  1
  O  O236  1  0.499843  0.458981  0.574511  1
  O  O237  1  0.414700  0.751135  0.527401  1
  O  O238  1  0.087413  0.249027  0.542314  1
  O  O239  1  0.268990  0.249118  0.573623  1
  O  O240  1  0.331243  0.085842  0.566178  1
  O  O241  1  0.330942  0.414692  0.566674  1
  O  O242  1  0.208451  0.084992  0.581460  1
  O  O243  1  0.207025  0.412373  0.581353  1
  O  O244  1  0.338328  0.659864  0.509162  1
  O  O245  1  0.161806  0.161047  0.560877  1
  O  O246  1  0.161615  0.336988  0.560856  1
  O  O247  1  0.337603  0.837804  0.508750  1
  O  O248  1  0.129846  0.749016  0.598766  1
  O  O249  1  0.173166  0.584491  0.588969  1
  O  O250  1  0.171439  0.913581  0.589278  1
  O  O251  1  0.127450  0.586408  0.609645  1
  O  O252  1  0.129490  0.913508  0.609631  1
  O  O253  1  0.414917  0.916848  0.563214  1
  O  O254  1  0.416927  0.584008  0.563552  1
  O  O255  1  0.247519  0.473677  0.602418  1
  O  O256  1  0.249196  0.027442  0.602723  1
  O  O257  1  0.343228  0.525818  0.583248  1
  O  O258  1  0.339258  0.974987  0.583057  1
  O  O259  1  0.231655  0.249932  0.415015  1
  O  O260  1  0.229893  0.751075  0.496419  1
  O  O261  1  0.169502  0.415529  0.408063  1
  O  O262  1  0.169256  0.585683  0.503640  1
  O  O263  1  0.168876  0.084472  0.408110  1
  O  O264  1  0.167223  0.915130  0.503944  1
  O  O265  1  0.290952  0.414772  0.422884  1
  O  O266  1  0.292213  0.585631  0.488664  1
  O  O267  1  0.290778  0.085079  0.422878  1
  O  O268  1  0.291414  0.914204  0.488357  1
  O  O269  1  0.369739  0.750418  0.440578  1
  O  O270  1  0.368954  0.250329  0.471011  1
  O  O271  1  0.327332  0.913651  0.430771  1
  O  O272  1  0.327837  0.085622  0.480653  1
  O  O273  1  0.327657  0.586329  0.430840  1
  O  O274  1  0.328856  0.413155  0.481039  1
  O  O275  1  0.370756  0.915317  0.451290  1
  O  O276  1  0.371180  0.088498  0.459882  1
  O  O277  1  0.371410  0.588260  0.451597  1
  O  O278  1  0.370232  0.415295  0.460233  1
  O  O279  1  0.499877  0.372311  0.474766  1
  O  O280  1  0.000000  0.535843  0.495956  1
  O  O281  1  0.088143  0.415774  0.506929  1
  O  O282  1  0.085563  0.585306  0.404997  1
  O  O283  1  0.087415  0.085227  0.506975  1
  O  O284  1  0.085957  0.914760  0.405066  1
  O  O285  1  0.498788  0.748092  0.508417  1
  O  O286  1  0.251672  0.026540  0.444217  1
  O  O287  1  0.251689  0.975891  0.467265  1
  O  O288  1  0.251800  0.475915  0.444177  1
  O  O289  1  0.252826  0.525765  0.467330  1
  O  O290  1  0.158154  0.972523  0.424878  1
  O  O291  1  0.159545  0.025051  0.487222  1
  O  O292  1  0.158846  0.528262  0.424767  1
  O  O293  1  0.161033  0.473573  0.487117  1
  O  O294  1  0.000000  0.464332  0.415821  1
  O  O295  1  0.499668  0.127862  0.474656  1
  O  O296  1  0.000000  0.250619  0.506520  1
  O  O297  1  0.499842  0.627709  0.436884  1
  O  O298  1  0.499364  0.963004  0.337411  1
  O  O299  1  0.088580  0.749813  0.369166  1
  O  O300  1  0.414823  0.249566  0.384163  1
  O  O301  1  0.269691  0.749120  0.337857  1
  O  O302  1  0.331936  0.913135  0.345382  1
  O  O303  1  0.330837  0.585265  0.345423  1
  O  O304  1  0.208526  0.915204  0.330182  1
  O  O305  1  0.204470  0.586154  0.330061  1
  O  O306  1  0.162573  0.837829  0.350631  1
  O  O307  1  0.337809  0.339575  0.402361  1
  O  O308  1  0.337603  0.159959  0.402368  1
  O  O309  1  0.161551  0.661779  0.350542  1
  O  O310  1  0.130428  0.250682  0.312857  1
  O  O311  1  0.170128  0.413365  0.322828  1
  O  O312  1  0.170824  0.087563  0.322644  1
  O  O313  1  0.129065  0.414178  0.301906  1
  O  O314  1  0.129673  0.086899  0.301824  1
  O  O315  1  0.499181  0.249767  0.402508  1
  O  O316  1  0.414797  0.083209  0.348445  1
  O  O317  1  0.414900  0.415917  0.348432  1
  O  O318  1  0.245259  0.525585  0.308863  1
  O  O319  1  0.247070  0.975789  0.308834  1
  O  O320  1  0.337795  0.476013  0.328795  1
  O  O321  1  0.338502  0.025930  0.328677  1
  O  O322  1  0.001593  0.838105  0.386494  1
  O  O323  1  0.000000  0.662542  0.386492  1
  O  O324  1  0.499655  0.537124  0.337572  1
  O  O325  1  0.000000  0.337983  0.841847  1
  O  O326  1  0.584192  0.750958  0.844034  1
  O  O327  1  0.910927  0.249755  0.859015  1
  O  O328  1  0.659416  0.837265  0.825485  1
  O  O329  1  0.660806  0.661766  0.825545  1
  O  O330  1  0.998835  0.162135  0.841758  1
  O  O331  1  0.770513  0.749946  0.813186  1
  O  O332  1  0.770470  0.250832  0.731965  1
  O  O333  1  0.829032  0.914994  0.820564  1
  O  O334  1  0.832366  0.086927  0.724503  1
  O  O335  1  0.830682  0.584649  0.820333  1
  O  O336  1  0.831034  0.416356  0.724824  1
  O  O337  1  0.709906  0.914168  0.805206  1
  O  O338  1  0.710922  0.085251  0.739584  1
  O  O339  1  0.709790  0.586778  0.805113  1
  O  O340  1  0.706698  0.413068  0.739933  1
  O  O341  1  0.630174  0.249804  0.787710  1
  O  O342  1  0.630326  0.749765  0.757242  1
  O  O343  1  0.671965  0.414948  0.797280  1
  O  O344  1  0.671146  0.585065  0.747543  1
  O  O345  1  0.671934  0.085834  0.797392  1
  O  O346  1  0.672412  0.913822  0.747520  1
  O  O347  1  0.628417  0.412151  0.776757  1
  O  O348  1  0.629970  0.585606  0.768164  1
  O  O349  1  0.629239  0.085297  0.776852  1
  O  O350  1  0.628159  0.912026  0.768265  1
  O  O351  1  0.998225  0.750427  0.721716  1
  O  O352  1  0.913711  0.916672  0.721491  1
  O  O353  1  0.912983  0.084872  0.823257  1
  O  O354  1  0.911628  0.585918  0.721419  1
  O  O355  1  0.912247  0.414974  0.823571  1
  O  O356  1  0.750767  0.525499  0.783966  1
  O  O357  1  0.747857  0.473158  0.761033  1
  O  O358  1  0.748008  0.973670  0.783901  1
  O  O359  1  0.748166  0.023969  0.760875  1
  O  O360  1  0.840135  0.473639  0.803748  1
  O  O361  1  0.839563  0.526067  0.741247  1
  O  O362  1  0.840325  0.026568  0.803420  1
  O  O363  1  0.841079  0.972391  0.741375  1
  O  O364  1  0.998025  0.962384  0.812730  1
  O  O365  1  -0.000000  0.037478  0.732674  1
  O  O366  1  0.500054  0.872264  0.753471  1
  O  O367  1  0.501656  0.337576  0.683474  1
  O  O368  1  0.502160  0.161867  0.683478  1
  O  O369  1  0.914479  0.750666  0.685761  1
  O  O370  1  0.588961  0.250573  0.700778  1
  O  O371  1  0.731915  0.750005  0.654773  1
  O  O372  1  0.668747  0.585357  0.662014  1
  O  O373  1  0.668401  0.914658  0.661896  1
  O  O374  1  0.791884  0.584628  0.647036  1
  O  O375  1  0.791936  0.915306  0.646961  1
  O  O376  1  0.837334  0.660572  0.667535  1
  O  O377  1  0.663032  0.162724  0.719239  1
  O  O378  1  0.661558  0.338646  0.719414  1
  O  O379  1  0.837104  0.840039  0.667499  1
  O  O380  1  0.869231  0.250228  0.629406  1
  O  O381  1  0.828428  0.087432  0.639311  1
  O  O382  1  0.828336  0.412739  0.639410  1
  O  O383  1  0.870197  0.085374  0.618498  1
  O  O384  1  0.871694  0.412423  0.618397  1
  O  O385  1  0.501917  0.249658  0.664950  1
  O  O386  1  0.588671  0.414895  0.665300  1
  O  O387  1  0.588538  0.084730  0.665206  1
  O  O388  1  0.998803  0.750554  0.667417  1
  O  O389  1  0.752479  0.974956  0.625583  1
  O  O390  1  0.753042  0.523168  0.625760  1
  O  O391  1  0.660185  0.026763  0.645379  1
  O  O392  1  0.660227  0.473053  0.645527  1
  O  O393  1  0.000000  0.373062  0.633245  1
  O  O394  1  -0.000000  0.127640  0.633179  1
  O  O395  1  0.414700  0.751135  0.844128  1
  O  O396  1  0.087413  0.249027  0.859041  1
  O  O397  1  0.338328  0.659864  0.825890  1
  O  O398  1  0.337603  0.837804  0.825478  1
  O  O399  1  0.231655  0.249932  0.731742  1
  O  O400  1  0.229893  0.751075  0.813146  1
  O  O401  1  0.169502  0.415529  0.724791  1
  O  O402  1  0.169256  0.585683  0.820368  1
  O  O403  1  0.168876  0.084472  0.724838  1
  O  O404  1  0.167223  0.915130  0.820672  1
  O  O405  1  0.290952  0.414772  0.739611  1
  O  O406  1  0.292213  0.585631  0.805392  1
  O  O407  1  0.290778  0.085079  0.739605  1
  O  O408  1  0.291414  0.914204  0.805085  1
  O  O409  1  0.369739  0.750418  0.757306  1
  O  O410  1  0.368954  0.250329  0.787738  1
  O  O411  1  0.327332  0.913651  0.747498  1
  O  O412  1  0.327837  0.085622  0.797380  1
  O  O413  1  0.327657  0.586329  0.747568  1
  O  O414  1  0.328856  0.413155  0.797767  1
  O  O415  1  0.370756  0.915317  0.768018  1
  O  O416  1  0.371180  0.088498  0.776609  1
  O  O417  1  0.371410  0.588260  0.768324  1
  O  O418  1  0.370232  0.415295  0.776961  1
  O  O419  1  0.499877  0.372311  0.791494  1
  O  O420  1  -0.000000  0.535843  0.812684  1
  O  O421  1  0.088143  0.415774  0.823657  1
  O  O422  1  0.085563  0.585306  0.721725  1
  O  O423  1  0.087415  0.085227  0.823702  1
  O  O424  1  0.085957  0.914760  0.721794  1
  O  O425  1  0.498788  0.748092  0.825145  1
  O  O426  1  0.251672  0.026540  0.760945  1
  O  O427  1  0.251689  0.975891  0.783993  1
  O  O428  1  0.251800  0.475915  0.760904  1
  O  O429  1  0.252826  0.525765  0.784058  1
  O  O430  1  0.158154  0.972523  0.741606  1
  O  O431  1  0.159545  0.025051  0.803950  1
  O  O432  1  0.158846  0.528262  0.741494  1
  O  O433  1  0.161033  0.473573  0.803844  1
  O  O434  1  0.000000  0.464332  0.732548  1
  O  O435  1  0.499668  0.127862  0.791383  1
  O  O436  1  0.000000  0.250619  0.823248  1
  O  O437  1  0.499842  0.627709  0.753611  1
  O  O438  1  0.499364  0.963004  0.654138  1
  O  O439  1  0.088580  0.749813  0.685893  1
  O  O440  1  0.414823  0.249566  0.700891  1
  O  O441  1  0.269691  0.749120  0.654585  1
  O  O442  1  0.331936  0.913135  0.662110  1
  O  O443  1  0.330837  0.585265  0.662150  1
  O  O444  1  0.208526  0.915204  0.646909  1
  O  O445  1  0.204470  0.586154  0.646788  1
  O  O446  1  0.162573  0.837829  0.667359  1
  O  O447  1  0.337809  0.339575  0.719088  1
  O  O448  1  0.337603  0.159959  0.719095  1
  O  O449  1  0.161551  0.661779  0.667270  1
  O  O450  1  0.130428  0.250682  0.629585  1
  O  O451  1  0.170128  0.413365  0.639555  1
  O  O452  1  0.170824  0.087563  0.639371  1
  O  O453  1  0.129065  0.414178  0.618634  1
  O  O454  1  0.129673  0.086899  0.618552  1
  O  O455  1  0.499181  0.249767  0.719235  1
  O  O456  1  0.414797  0.083209  0.665173  1
  O  O457  1  0.414900  0.415917  0.665160  1
  O  O458  1  0.245259  0.525585  0.625590  1
  O  O459  1  0.247070  0.975789  0.625561  1
  O  O460  1  0.337795  0.476013  0.645523  1
  O  O461  1  0.338502  0.025930  0.645405  1
  O  O462  1  0.001593  0.838105  0.703222  1
  O  O463  1  0.000000  0.662542  0.703220  1
  O  O464  1  0.499655  0.537124  0.654300  1
  Si  Si465  1  0.502621  0.857968  0.241485  1
  Si  Si466  1  0.757821  0.355464  0.253516  1
  Si  Si467  1  0.757768  0.144025  0.253540  1
  Si  Si468  1  0.891777  0.859628  0.281267  1
  Si  Si469  1  0.892746  0.639930  0.281030  1
  Si  Si470  1  0.756584  0.997454  0.272562  1
  Si  Si471  1  0.756546  0.501271  0.272396  1
  Si  Si472  1  0.600455  0.495937  0.254749  1
  Si  Si473  1  0.603266  0.002713  0.254553  1
  Si  Si474  1  0.600130  0.749085  0.196858  1
  Si  Si475  1  0.894735  0.249572  0.239045  1
  Si  Si476  1  0.502857  0.643634  0.241861  1
  Si  Si477  1  -0.000000  0.249576  0.217363  1
  Si  Si478  1  0.808110  0.998174  0.297022  1
  Si  Si479  1  0.893687  0.005146  0.096554  1
  Si  Si480  1  0.690734  0.997765  0.138876  1
  Si  Si481  1  0.692051  0.497851  0.139389  1
  Si  Si482  1  0.896714  0.498707  0.096334  1
  Si  Si483  1  0.895897  0.502260  0.181829  1
  Si  Si484  1  0.741709  0.856278  0.182961  1
  Si  Si485  1  0.743851  0.144190  0.095057  1
  Si  Si486  1  0.741803  0.643908  0.182895  1
  Si  Si487  1  0.741345  0.357676  0.095399  1
  Si  Si488  1  0.606364  0.359158  0.155008  1
  Si  Si489  1  0.606286  0.640867  0.122951  1
  Si  Si490  1  0.606113  0.140941  0.155111  1
  Si  Si491  1  0.606685  0.859283  0.123036  1
  Si  Si492  1  0.745027  0.500167  0.163823  1
  Si  Si493  1  0.743654  0.498834  0.113982  1
  Si  Si494  1  0.745379  0.000000  0.163960  1
  Si  Si495  1  0.746199  0.998645  0.113882  1
  Si  Si496  1  0.891512  0.995528  0.181510  1
  Si  Si497  1  0.000000  0.856156  0.083392  1
  Si  Si498  1  0.998379  0.643890  0.083465  1
  Si  Si499  1  0.603765  0.250485  0.080874  1
  Si  Si500  1  -0.000000  0.358330  0.194587  1
  Si  Si501  1  0.103709  0.248934  0.239076  1
  Si  Si502  1  0.396960  0.748261  0.196868  1
  Si  Si503  1  0.398108  0.495273  0.255272  1
  Si  Si504  1  0.242048  0.142392  0.253528  1
  Si  Si505  1  0.240532  0.355598  0.253649  1
  Si  Si506  1  0.106361  0.639591  0.281131  1
  Si  Si507  1  0.105650  0.857816  0.281264  1
  Si  Si508  1  0.246628  0.497843  0.271991  1
  Si  Si509  1  0.243663  -0.000000  0.272747  1
  Si  Si510  1  0.394408  0.005347  0.254859  1
  Si  Si511  1  0.191722  -0.000000  0.297185  1
  Si  Si512  1  0.189940  0.500867  0.297125  1
  Si  Si513  1  -0.000000  0.143580  0.194581  1
  Si  Si514  1  0.499940  0.752935  0.219676  1
  Si  Si515  1  0.259557  0.355994  0.094974  1
  Si  Si516  1  0.259438  0.644876  0.183096  1
  Si  Si517  1  0.259210  0.143777  0.094971  1
  Si  Si518  1  0.255840  0.859581  0.182747  1
  Si  Si519  1  0.393647  0.859222  0.122877  1
  Si  Si520  1  0.392990  0.140799  0.154949  1
  Si  Si521  1  0.393174  0.640925  0.123098  1
  Si  Si522  1  0.392798  0.359704  0.155293  1
  Si  Si523  1  0.253918  -0.000000  0.113969  1
  Si  Si524  1  0.255153  -0.000000  0.164102  1
  Si  Si525  1  0.254177  0.501144  0.113901  1
  Si  Si526  1  0.257442  0.498390  0.164097  1
  Si  Si527  1  0.105524  0.497454  0.096685  1
  Si  Si528  1  0.104489  0.502790  0.181862  1
  Si  Si529  1  0.104661  0.002833  0.096775  1
  Si  Si530  1  0.103242  0.996400  0.182081  1
  Si  Si531  1  0.308876  0.002585  0.139073  1
  Si  Si532  1  0.308817  0.502482  0.138917  1
  Si  Si533  1  0.393243  0.249690  0.081127  1
  Si  Si534  1  0.002165  0.750407  0.060923  1
  Si  Si535  1  0.502621  0.857968  0.558213  1
  Si  Si536  1  0.757821  0.355464  0.570244  1
  Si  Si537  1  0.757768  0.144025  0.570267  1
  Si  Si538  1  0.891777  0.859628  0.597995  1
  Si  Si539  1  0.892746  0.639930  0.597757  1
  Si  Si540  1  0.756584  0.997454  0.589290  1
  Si  Si541  1  0.756546  0.501271  0.589123  1
  Si  Si542  1  0.600455  0.495937  0.571476  1
  Si  Si543  1  0.603266  0.002713  0.571281  1
  Si  Si544  1  0.600130  0.749085  0.513586  1
  Si  Si545  1  0.894735  0.249572  0.555773  1
  Si  Si546  1  0.502857  0.643634  0.558588  1
  Si  Si547  1  0.000000  0.249576  0.534090  1
  Si  Si548  1  0.808110  0.998174  0.613750  1
  Si  Si549  1  0.893687  0.005146  0.413281  1
  Si  Si550  1  0.690734  0.997765  0.455603  1
  Si  Si551  1  0.692051  0.497851  0.456117  1
  Si  Si552  1  0.896714  0.498707  0.413062  1
  Si  Si553  1  0.895897  0.502260  0.498557  1
  Si  Si554  1  0.741709  0.856278  0.499688  1
  Si  Si555  1  0.743851  0.144190  0.411785  1
  Si  Si556  1  0.741803  0.643908  0.499623  1
  Si  Si557  1  0.741345  0.357676  0.412126  1
  Si  Si558  1  0.606364  0.359158  0.471735  1
  Si  Si559  1  0.606286  0.640867  0.439678  1
  Si  Si560  1  0.606113  0.140941  0.471838  1
  Si  Si561  1  0.606685  0.859283  0.439764  1
  Si  Si562  1  0.745027  0.500167  0.480551  1
  Si  Si563  1  0.743654  0.498834  0.430709  1
  Si  Si564  1  0.745379  -0.000000  0.480688  1
  Si  Si565  1  0.746199  0.998645  0.430610  1
  Si  Si566  1  0.891512  0.995528  0.498237  1
  Si  Si567  1  0.000000  0.856156  0.400120  1
  Si  Si568  1  0.998379  0.643890  0.400193  1
  Si  Si569  1  0.502103  0.142885  0.353058  1
  Si  Si570  1  0.759185  0.643840  0.341442  1
  Si  Si571  1  0.759051  0.856342  0.341380  1
  Si  Si572  1  0.893061  0.140727  0.313617  1
  Si  Si573  1  0.892324  0.360460  0.313549  1
  Si  Si574  1  0.756809  0.002260  0.322387  1
  Si  Si575  1  0.756757  0.497384  0.322533  1
  Si  Si576  1  0.603638  0.502542  0.340263  1
  Si  Si577  1  0.603422  0.997400  0.340109  1
  Si  Si578  1  0.892823  0.750446  0.355331  1
  Si  Si579  1  0.603765  0.250485  0.397601  1
  Si  Si580  1  0.502174  0.356418  0.353057  1
  Si  Si581  1  0.502563  0.249771  0.375576  1
  Si  Si582  1  0.809392  0.497695  0.297499  1
  Si  Si583  1  0.000000  0.358330  0.511315  1
  Si  Si584  1  0.103709  0.248934  0.555803  1
  Si  Si585  1  0.396960  0.748261  0.513595  1
  Si  Si586  1  0.398108  0.495273  0.572000  1
  Si  Si587  1  0.242048  0.142392  0.570256  1
  Si  Si588  1  0.240532  0.355598  0.570377  1
  Si  Si589  1  0.106361  0.639591  0.597858  1
  Si  Si590  1  0.105650  0.857816  0.597992  1
  Si  Si591  1  0.246628  0.497843  0.588719  1
  Si  Si592  1  0.243663  -0.000000  0.589475  1
  Si  Si593  1  0.394408  0.005347  0.571586  1
  Si  Si594  1  0.191722  -0.000000  0.613913  1
  Si  Si595  1  0.189940  0.500867  0.613853  1
  Si  Si596  1  0.000000  0.143580  0.511309  1
  Si  Si597  1  0.499940  0.752935  0.536403  1
  Si  Si598  1  0.259557  0.355994  0.411702  1
  Si  Si599  1  0.259438  0.644876  0.499823  1
  Si  Si600  1  0.259210  0.143777  0.411698  1
  Si  Si601  1  0.255840  0.859581  0.499474  1
  Si  Si602  1  0.393647  0.859222  0.439605  1
  Si  Si603  1  0.392990  0.140799  0.471677  1
  Si  Si604  1  0.393174  0.640925  0.439825  1
  Si  Si605  1  0.392798  0.359704  0.472020  1
  Si  Si606  1  0.253918  -0.000000  0.430697  1
  Si  Si607  1  0.255153  0.000000  0.480830  1
  Si  Si608  1  0.254177  0.501144  0.430629  1
  Si  Si609  1  0.257442  0.498390  0.480825  1
  Si  Si610  1  0.105524  0.497454  0.413413  1
  Si  Si611  1  0.104489  0.502790  0.498590  1
  Si  Si612  1  0.104661  0.002833  0.413502  1
  Si  Si613  1  0.103242  0.996400  0.498809  1
  Si  Si614  1  0.308876  0.002585  0.455800  1
  Si  Si615  1  0.308817  0.502482  0.455644  1
  Si  Si616  1  0.393243  0.249690  0.397855  1
  Si  Si617  1  0.242904  0.856368  0.341270  1
  Si  Si618  1  0.241782  0.641050  0.341047  1
  Si  Si619  1  0.106929  0.360081  0.313794  1
  Si  Si620  1  0.106803  0.141210  0.313672  1
  Si  Si621  1  0.240240  0.499845  0.322538  1
  Si  Si622  1  0.242215  0.002478  0.322314  1
  Si  Si623  1  0.394453  0.994819  0.340096  1
  Si  Si624  1  0.394970  0.504983  0.340221  1
  Si  Si625  1  0.103425  0.750226  0.355607  1
  Si  Si626  1  0.002165  0.750407  0.377651  1
  Si  Si627  1  0.600130  0.749085  0.830313  1
  Si  Si628  1  -0.000000  0.249576  0.850818  1
  Si  Si629  1  0.893687  0.005146  0.730009  1
  Si  Si630  1  0.690734  0.997765  0.772331  1
  Si  Si631  1  0.692051  0.497851  0.772844  1
  Si  Si632  1  0.896714  0.498707  0.729789  1
  Si  Si633  1  0.895897  0.502260  0.815284  1
  Si  Si634  1  0.741709  0.856278  0.816416  1
  Si  Si635  1  0.743851  0.144190  0.728512  1
  Si  Si636  1  0.741803  0.643908  0.816350  1
  Si  Si637  1  0.741345  0.357676  0.728854  1
  Si  Si638  1  0.606364  0.359158  0.788463  1
  Si  Si639  1  0.606286  0.640867  0.756406  1
  Si  Si640  1  0.606113  0.140941  0.788566  1
  Si  Si641  1  0.606685  0.859283  0.756491  1
  Si  Si642  1  0.745027  0.500167  0.797278  1
  Si  Si643  1  0.743654  0.498834  0.747437  1
  Si  Si644  1  0.745379  -0.000000  0.797416  1
  Si  Si645  1  0.746199  0.998645  0.747337  1
  Si  Si646  1  0.891512  0.995528  0.814965  1
  Si  Si647  1  -0.000000  0.856156  0.716847  1
  Si  Si648  1  0.998379  0.643890  0.716920  1
  Si  Si649  1  0.502103  0.142885  0.669785  1
  Si  Si650  1  0.759185  0.643840  0.658169  1
  Si  Si651  1  0.759051  0.856342  0.658107  1
  Si  Si652  1  0.893061  0.140727  0.630344  1
  Si  Si653  1  0.892324  0.360460  0.630277  1
  Si  Si654  1  0.756809  0.002260  0.639114  1
  Si  Si655  1  0.756757  0.497384  0.639260  1
  Si  Si656  1  0.603638  0.502542  0.656991  1
  Si  Si657  1  0.603422  0.997400  0.656836  1
  Si  Si658  1  0.892823  0.750446  0.672058  1
  Si  Si659  1  0.603765  0.250485  0.714329  1
  Si  Si660  1  0.502174  0.356418  0.669785  1
  Si  Si661  1  0.502563  0.249771  0.692304  1
  Si  Si662  1  0.809392  0.497695  0.614227  1
  Si  Si663  1  0.000000  0.358330  0.828042  1
  Si  Si664  1  0.396960  0.748261  0.830323  1
  Si  Si665  1  0.000000  0.143580  0.828036  1
  Si  Si666  1  0.259557  0.355994  0.728429  1
  Si  Si667  1  0.259438  0.644876  0.816551  1
  Si  Si668  1  0.259210  0.143777  0.728426  1
  Si  Si669  1  0.255840  0.859581  0.816202  1
  Si  Si670  1  0.393647  0.859222  0.756332  1
  Si  Si671  1  0.392990  0.140799  0.788404  1
  Si  Si672  1  0.393174  0.640925  0.756553  1
  Si  Si673  1  0.392798  0.359704  0.788748  1
  Si  Si674  1  0.253918  -0.000000  0.747424  1
  Si  Si675  1  0.255153  -0.000000  0.797557  1
  Si  Si676  1  0.254177  0.501144  0.747356  1
  Si  Si677  1  0.257442  0.498390  0.797552  1
  Si  Si678  1  0.105524  0.497454  0.730140  1
  Si  Si679  1  0.104489  0.502790  0.815317  1
  Si  Si680  1  0.104661  0.002833  0.730230  1
  Si  Si681  1  0.103242  0.996400  0.815536  1
  Si  Si682  1  0.308876  0.002585  0.772528  1
  Si  Si683  1  0.308817  0.502482  0.772372  1
  Si  Si684  1  0.393243  0.249690  0.714582  1
  Si  Si685  1  0.242904  0.856368  0.657997  1
  Si  Si686  1  0.241782  0.641050  0.657774  1
  Si  Si687  1  0.106929  0.360081  0.630521  1
  Si  Si688  1  0.106803  0.141210  0.630400  1
  Si  Si689  1  0.240240  0.499845  0.639265  1
  Si  Si690  1  0.242215  0.002478  0.639041  1
  Si  Si691  1  0.394453  0.994819  0.656824  1
  Si  Si692  1  0.394970  0.504983  0.656948  1
  Si  Si693  1  0.103425  0.750226  0.672334  1
  Si  Si694  1  0.002165  0.750407  0.694378  1
  H  H695  1  0.914479  0.750666  0.044327  1
  H  H696  1  0.588961  0.250573  0.059344  1
  H  H697  1  0.088580  0.749813  0.044459  1
  H  H698  1  0.414823  0.249566  0.059457  1
  H  H699  1  0.584192  0.750958  0.852012  1
  H  H700  1  0.910927  0.249755  0.866994  1
  H  H701  1  0.414700  0.751135  0.852107  1
  H  H702  1  0.087413  0.249027  0.867020  1
