# generated using pymatgen
data_Si69(HO35)4
_symmetry_space_group_name_H-M   'P 1'
_cell_length_a   14.05413494
_cell_length_b   13.77403359
_cell_length_c   77.07239402
_cell_angle_alpha   90.00000000
_cell_angle_beta   90.00000000
_cell_angle_gamma   90.00000000
_symmetry_Int_Tables_number   1
_chemical_formula_structural   Si69(HO35)4
_chemical_formula_sum   'Si138 H8 O280'
_cell_volume   14919.8379468
_cell_formula_units_Z   2
loop_
 _symmetry_equiv_pos_site_id
 _symmetry_equiv_pos_as_xyz
  1  'x, y, z'
loop_
 _atom_site_type_symbol
 _atom_site_label
 _atom_site_symmetry_multiplicity
 _atom_site_fract_x
 _atom_site_fract_y
 _atom_site_fract_z
 _atom_site_occupancy
  O  O1  1  -0.000000  0.337983  0.304991  1
  O  O2  1  0.500420  0.663924  0.334064  1
  O  O3  1  0.584192  0.750958  0.308191  1
  O  O4  1  0.910927  0.249755  0.330117  1
  O  O5  1  0.730466  0.249767  0.376015  1
  O  O6  1  0.667406  0.413527  0.365440  1
  O  O7  1  0.668114  0.085831  0.365333  1
  O  O8  1  0.791425  0.414494  0.387157  1
  O  O9  1  0.791052  0.085041  0.387290  1
  O  O10  1  0.659416  0.837265  0.281044  1
  O  O11  1  0.836769  0.337500  0.357222  1
  O  O12  1  0.836810  0.161770  0.357268  1
  O  O13  1  0.660806  0.661766  0.281133  1
  O  O14  1  0.868741  0.749419  0.412790  1
  O  O15  1  0.828219  0.912760  0.398423  1
  O  O16  1  0.827781  0.586705  0.398236  1
  O  O17  1  0.870449  0.912128  0.428885  1
  O  O18  1  0.870608  0.584695  0.428611  1
  O  O19  1  0.587942  0.583702  0.360547  1
  O  O20  1  0.589217  0.916246  0.360154  1
  O  O21  1  0.750178  0.024700  0.418341  1
  O  O22  1  0.752834  0.473971  0.418414  1
  O  O23  1  0.660114  0.972810  0.389345  1
  O  O24  1  0.659277  0.525584  0.389578  1
  O  O25  1  0.500310  0.842061  0.333563  1
  O  O26  1  0.998835  0.162135  0.304861  1
  O  O27  1  0.000000  0.871767  0.407471  1
  O  O28  1  0.000000  0.626820  0.407071  1
  O  O29  1  0.503337  0.750945  0.360751  1
  O  O30  1  -0.000000  0.249194  0.356854  1
  O  O31  1  0.770513  0.749946  0.263045  1
  O  O32  1  0.770470  0.250832  0.144173  1
  O  O33  1  0.829032  0.914994  0.273842  1
  O  O34  1  0.832366  0.086927  0.133253  1
  O  O35  1  0.830682  0.584649  0.273504  1
  O  O36  1  0.831034  0.416356  0.133723  1
  O  O37  1  0.709906  0.914168  0.251366  1
  O  O38  1  0.710922  0.085251  0.155325  1
  O  O39  1  0.709790  0.586778  0.251229  1
  O  O40  1  0.706698  0.413068  0.155835  1
  O  O41  1  0.630174  0.249804  0.225759  1
  O  O42  1  0.630326  0.749765  0.181168  1
  O  O43  1  0.671965  0.414948  0.239766  1
  O  O44  1  0.671146  0.585065  0.166972  1
  O  O45  1  0.671934  0.085834  0.239929  1
  O  O46  1  0.672412  0.913822  0.166939  1
  O  O47  1  0.628417  0.412151  0.209729  1
  O  O48  1  0.629970  0.585606  0.197152  1
  O  O49  1  0.629239  0.085297  0.209868  1
  O  O50  1  0.628159  0.912026  0.197301  1
  O  O51  1  0.998225  0.750427  0.129174  1
  O  O52  1  0.913711  0.916672  0.128845  1
  O  O53  1  0.912983  0.084872  0.277783  1
  O  O54  1  0.911628  0.585918  0.128740  1
  O  O55  1  0.912247  0.414974  0.278243  1
  O  O56  1  0.750767  0.525499  0.220280  1
  O  O57  1  0.747857  0.473158  0.186716  1
  O  O58  1  0.748008  0.973670  0.220184  1
  O  O59  1  0.748166  0.023969  0.186485  1
  O  O60  1  0.840135  0.473639  0.249231  1
  O  O61  1  0.839563  0.526067  0.157759  1
  O  O62  1  0.840325  0.026568  0.248751  1
  O  O63  1  0.841079  0.972391  0.157945  1
  O  O64  1  0.998025  0.962384  0.262377  1
  O  O65  1  0.000000  0.037478  0.145211  1
  O  O66  1  0.500054  0.872264  0.175649  1
  O  O67  1  0.914479  0.750666  0.076551  1
  O  O68  1  0.588961  0.250573  0.098529  1
  O  O69  1  0.663032  0.162724  0.125548  1
  O  O70  1  0.661558  0.338646  0.125804  1
  O  O71  1  0.499517  0.037127  0.376664  1
  O  O72  1  0.499843  0.458981  0.377277  1
  O  O73  1  0.414700  0.751135  0.308329  1
  O  O74  1  0.087413  0.249027  0.330155  1
  O  O75  1  0.268990  0.249118  0.375978  1
  O  O76  1  0.331243  0.085842  0.365083  1
  O  O77  1  0.330942  0.414692  0.365809  1
  O  O78  1  0.208451  0.084992  0.387448  1
  O  O79  1  0.207025  0.412373  0.387291  1
  O  O80  1  0.338328  0.659864  0.281637  1
  O  O81  1  0.161806  0.161047  0.357324  1
  O  O82  1  0.161615  0.336988  0.357293  1
  O  O83  1  0.337603  0.837804  0.281034  1
  O  O84  1  0.129846  0.749016  0.412775  1
  O  O85  1  0.173166  0.584491  0.398438  1
  O  O86  1  0.171439  0.913581  0.398889  1
  O  O87  1  0.127450  0.586408  0.428698  1
  O  O88  1  0.129490  0.913508  0.428677  1
  O  O89  1  0.414917  0.916848  0.360743  1
  O  O90  1  0.416927  0.584008  0.361238  1
  O  O91  1  0.247519  0.473677  0.418121  1
  O  O92  1  0.249196  0.027442  0.418567  1
  O  O93  1  0.343228  0.525818  0.390065  1
  O  O94  1  0.339258  0.974987  0.389785  1
  O  O95  1  0.231655  0.249932  0.143847  1
  O  O96  1  0.229893  0.751075  0.262986  1
  O  O97  1  0.169502  0.415529  0.133674  1
  O  O98  1  0.169256  0.585683  0.273555  1
  O  O99  1  0.168876  0.084472  0.133743  1
  O  O100  1  0.167223  0.915130  0.274000  1
  O  O101  1  0.290952  0.414772  0.155364  1
  O  O102  1  0.292213  0.585631  0.251637  1
  O  O103  1  0.290778  0.085079  0.155356  1
  O  O104  1  0.291414  0.914204  0.251188  1
  O  O105  1  0.369739  0.750418  0.181261  1
  O  O106  1  0.368954  0.250329  0.225800  1
  O  O107  1  0.327332  0.913651  0.166907  1
  O  O108  1  0.327837  0.085622  0.239912  1
  O  O109  1  0.327657  0.586329  0.167009  1
  O  O110  1  0.328856  0.413155  0.240478  1
  O  O111  1  0.370756  0.915317  0.196938  1
  O  O112  1  0.371180  0.088498  0.209513  1
  O  O113  1  0.371410  0.588260  0.197387  1
  O  O114  1  0.370232  0.415295  0.210027  1
  O  O115  1  0.499877  0.372311  0.231297  1
  O  O116  1  -0.000000  0.535843  0.262309  1
  O  O117  1  0.088143  0.415774  0.278369  1
  O  O118  1  0.085563  0.585306  0.129186  1
  O  O119  1  0.087415  0.085227  0.278435  1
  O  O120  1  0.085957  0.914760  0.129288  1
  O  O121  1  0.498788  0.748092  0.280546  1
  O  O122  1  0.251672  0.026540  0.186587  1
  O  O123  1  0.251689  0.975891  0.220319  1
  O  O124  1  0.251800  0.475915  0.186527  1
  O  O125  1  0.252826  0.525765  0.220414  1
  O  O126  1  0.158154  0.972523  0.158284  1
  O  O127  1  0.159545  0.025051  0.249526  1
  O  O128  1  0.158846  0.528262  0.158120  1
  O  O129  1  0.161033  0.473573  0.249372  1
  O  O130  1  0.000000  0.464332  0.145028  1
  O  O131  1  0.499668  0.127862  0.231135  1
  O  O132  1  -0.000000  0.250619  0.277770  1
  O  O133  1  0.499842  0.627709  0.175854  1
  O  O134  1  0.088580  0.749813  0.076746  1
  O  O135  1  0.414823  0.249566  0.098695  1
  O  O136  1  0.337809  0.339575  0.125328  1
  O  O137  1  0.337603  0.159959  0.125339  1
  O  O138  1  0.499181  0.249767  0.125543  1
  O  O139  1  0.001593  0.838105  0.102107  1
  O  O140  1  -0.000000  0.662542  0.102104  1
  O  O141  1  0.000000  0.337983  0.768536  1
  O  O142  1  0.584192  0.750958  0.771736  1
  O  O143  1  0.910927  0.249755  0.793662  1
  O  O144  1  0.659416  0.837265  0.744589  1
  O  O145  1  0.660806  0.661766  0.744678  1
  O  O146  1  0.998835  0.162135  0.768406  1
  O  O147  1  0.770513  0.749946  0.726590  1
  O  O148  1  0.770470  0.250832  0.607718  1
  O  O149  1  0.829032  0.914994  0.737387  1
  O  O150  1  0.832366  0.086927  0.596798  1
  O  O151  1  0.830682  0.584649  0.737049  1
  O  O152  1  0.831034  0.416356  0.597268  1
  O  O153  1  0.709906  0.914168  0.714911  1
  O  O154  1  0.710922  0.085251  0.618870  1
  O  O155  1  0.709790  0.586778  0.714774  1
  O  O156  1  0.706698  0.413068  0.619380  1
  O  O157  1  0.630174  0.249804  0.689304  1
  O  O158  1  0.630326  0.749765  0.644713  1
  O  O159  1  0.671965  0.414948  0.703311  1
  O  O160  1  0.671146  0.585065  0.630517  1
  O  O161  1  0.671934  0.085834  0.703474  1
  O  O162  1  0.672412  0.913822  0.630483  1
  O  O163  1  0.628417  0.412151  0.673274  1
  O  O164  1  0.629970  0.585606  0.660697  1
  O  O165  1  0.629239  0.085297  0.673413  1
  O  O166  1  0.628159  0.912026  0.660846  1
  O  O167  1  0.998225  0.750427  0.592719  1
  O  O168  1  0.913711  0.916672  0.592390  1
  O  O169  1  0.912983  0.084872  0.741328  1
  O  O170  1  0.911628  0.585918  0.592285  1
  O  O171  1  0.912247  0.414974  0.741788  1
  O  O172  1  0.750767  0.525499  0.683825  1
  O  O173  1  0.747857  0.473158  0.650261  1
  O  O174  1  0.748008  0.973670  0.683729  1
  O  O175  1  0.748166  0.023969  0.650030  1
  O  O176  1  0.840135  0.473639  0.712776  1
  O  O177  1  0.839563  0.526067  0.621304  1
  O  O178  1  0.840325  0.026568  0.712296  1
  O  O179  1  0.841079  0.972391  0.621490  1
  O  O180  1  0.998025  0.962384  0.725922  1
  O  O181  1  -0.000000  0.037478  0.608756  1
  O  O182  1  0.500054  0.872264  0.639194  1
  O  O183  1  0.501656  0.337576  0.536750  1
  O  O184  1  0.502160  0.161867  0.536756  1
  O  O185  1  0.914479  0.750666  0.540096  1
  O  O186  1  0.588961  0.250573  0.562074  1
  O  O187  1  0.731915  0.750005  0.494745  1
  O  O188  1  0.668747  0.585357  0.505342  1
  O  O189  1  0.668401  0.914658  0.505170  1
  O  O190  1  0.791884  0.584628  0.483422  1
  O  O191  1  0.791936  0.915306  0.483311  1
  O  O192  1  0.837334  0.660572  0.513423  1
  O  O193  1  0.663032  0.162724  0.589093  1
  O  O194  1  0.661558  0.338646  0.589349  1
  O  O195  1  0.837104  0.840039  0.513369  1
  O  O196  1  0.869231  0.250228  0.457619  1
  O  O197  1  0.828428  0.087432  0.472116  1
  O  O198  1  0.828336  0.412739  0.472260  1
  O  O199  1  0.870197  0.085374  0.441654  1
  O  O200  1  0.871694  0.412423  0.441507  1
  O  O201  1  0.501917  0.249658  0.509640  1
  O  O202  1  0.588671  0.414895  0.510151  1
  O  O203  1  0.588538  0.084730  0.510015  1
  O  O204  1  0.998803  0.750554  0.513250  1
  O  O205  1  0.752479  0.974956  0.452024  1
  O  O206  1  0.753042  0.523168  0.452283  1
  O  O207  1  0.660185  0.026763  0.480996  1
  O  O208  1  0.660227  0.473053  0.481213  1
  O  O209  1  -0.000000  0.373062  0.463237  1
  O  O210  1  0.000000  0.127640  0.463141  1
  O  O211  1  0.414700  0.751135  0.771874  1
  O  O212  1  0.087413  0.249027  0.793700  1
  O  O213  1  0.338328  0.659864  0.745182  1
  O  O214  1  0.337603  0.837804  0.744579  1
  O  O215  1  0.231655  0.249932  0.607392  1
  O  O216  1  0.229893  0.751075  0.726531  1
  O  O217  1  0.169502  0.415529  0.597219  1
  O  O218  1  0.169256  0.585683  0.737100  1
  O  O219  1  0.168876  0.084472  0.597288  1
  O  O220  1  0.167223  0.915130  0.737545  1
  O  O221  1  0.290952  0.414772  0.618909  1
  O  O222  1  0.292213  0.585631  0.715182  1
  O  O223  1  0.290778  0.085079  0.618901  1
  O  O224  1  0.291414  0.914204  0.714733  1
  O  O225  1  0.369739  0.750418  0.644806  1
  O  O226  1  0.368954  0.250329  0.689345  1
  O  O227  1  0.327332  0.913651  0.630452  1
  O  O228  1  0.327837  0.085622  0.703457  1
  O  O229  1  0.327657  0.586329  0.630554  1
  O  O230  1  0.328856  0.413155  0.704023  1
  O  O231  1  0.370756  0.915317  0.660483  1
  O  O232  1  0.371180  0.088498  0.673058  1
  O  O233  1  0.371410  0.588260  0.660932  1
  O  O234  1  0.370232  0.415295  0.673572  1
  O  O235  1  0.499877  0.372311  0.694842  1
  O  O236  1  -0.000000  0.535843  0.725854  1
  O  O237  1  0.088143  0.415774  0.741914  1
  O  O238  1  0.085563  0.585306  0.592731  1
  O  O239  1  0.087415  0.085227  0.741980  1
  O  O240  1  0.085957  0.914760  0.592833  1
  O  O241  1  0.498788  0.748092  0.744091  1
  O  O242  1  0.251672  0.026540  0.650132  1
  O  O243  1  0.251689  0.975891  0.683864  1
  O  O244  1  0.251800  0.475915  0.650072  1
  O  O245  1  0.252826  0.525765  0.683958  1
  O  O246  1  0.158154  0.972523  0.621829  1
  O  O247  1  0.159545  0.025051  0.713071  1
  O  O248  1  0.158846  0.528262  0.621665  1
  O  O249  1  0.161033  0.473573  0.712917  1
  O  O250  1  -0.000000  0.464332  0.608573  1
  O  O251  1  0.499668  0.127862  0.694680  1
  O  O252  1  0.000000  0.250619  0.741315  1
  O  O253  1  0.499842  0.627709  0.639399  1
  O  O254  1  0.499364  0.963004  0.493816  1
  O  O255  1  0.088580  0.749813  0.540291  1
  O  O256  1  0.414823  0.249566  0.562240  1
  O  O257  1  0.269691  0.749120  0.494469  1
  O  O258  1  0.331936  0.913135  0.505483  1
  O  O259  1  0.330837  0.585265  0.505542  1
  O  O260  1  0.208526  0.915204  0.483236  1
  O  O261  1  0.204470  0.586154  0.483059  1
  O  O262  1  0.162573  0.837829  0.513165  1
  O  O263  1  0.337809  0.339575  0.588873  1
  O  O264  1  0.337603  0.159959  0.588884  1
  O  O265  1  0.161551  0.661779  0.513034  1
  O  O266  1  0.130428  0.250682  0.457881  1
  O  O267  1  0.170128  0.413365  0.472473  1
  O  O268  1  0.170824  0.087563  0.472204  1
  O  O269  1  0.129065  0.414178  0.441854  1
  O  O270  1  0.129673  0.086899  0.441734  1
  O  O271  1  0.499181  0.249767  0.589088  1
  O  O272  1  0.414797  0.083209  0.509965  1
  O  O273  1  0.414900  0.415917  0.509946  1
  O  O274  1  0.245259  0.525585  0.452034  1
  O  O275  1  0.247070  0.975789  0.451992  1
  O  O276  1  0.337795  0.476013  0.481207  1
  O  O277  1  0.338502  0.025930  0.481034  1
  O  O278  1  0.001593  0.838105  0.565652  1
  O  O279  1  0.000000  0.662542  0.565649  1
  O  O280  1  0.499655  0.537124  0.494052  1
  Si  Si281  1  0.502621  0.857968  0.353425  1
  Si  Si282  1  0.757821  0.355464  0.371033  1
  Si  Si283  1  0.757768  0.144025  0.371067  1
  Si  Si284  1  0.891777  0.859628  0.411647  1
  Si  Si285  1  0.892746  0.639930  0.411299  1
  Si  Si286  1  0.756584  0.997454  0.398907  1
  Si  Si287  1  0.756546  0.501271  0.398663  1
  Si  Si288  1  0.600455  0.495937  0.372836  1
  Si  Si289  1  0.603266  0.002713  0.372550  1
  Si  Si290  1  0.600130  0.749085  0.288111  1
  Si  Si291  1  0.894735  0.249572  0.349854  1
  Si  Si292  1  0.502857  0.643634  0.353974  1
  Si  Si293  1  -0.000000  0.249576  0.318120  1
  Si  Si294  1  0.808110  0.998174  0.434705  1
  Si  Si295  1  0.893687  0.005146  0.141311  1
  Si  Si296  1  0.690734  0.997765  0.203251  1
  Si  Si297  1  0.692051  0.497851  0.204002  1
  Si  Si298  1  0.896714  0.498707  0.140989  1
  Si  Si299  1  0.895897  0.502260  0.266115  1
  Si  Si300  1  0.741709  0.856278  0.267771  1
  Si  Si301  1  0.743851  0.144190  0.139121  1
  Si  Si302  1  0.741803  0.643908  0.267675  1
  Si  Si303  1  0.741345  0.357676  0.139620  1
  Si  Si304  1  0.606364  0.359158  0.226860  1
  Si  Si305  1  0.606286  0.640867  0.179944  1
  Si  Si306  1  0.606113  0.140941  0.227012  1
  Si  Si307  1  0.606685  0.859283  0.180069  1
  Si  Si308  1  0.745027  0.500167  0.239763  1
  Si  Si309  1  0.743654  0.498834  0.166818  1
  Si  Si310  1  0.745379  0.000000  0.239964  1
  Si  Si311  1  0.746199  0.998645  0.166672  1
  Si  Si312  1  0.891512  0.995528  0.265648  1
  Si  Si313  1  -0.000000  0.856156  0.122048  1
  Si  Si314  1  0.998379  0.643890  0.122155  1
  Si  Si315  1  0.603765  0.250485  0.118362  1
  Si  Si316  1  -0.000000  0.358330  0.284787  1
  Si  Si317  1  0.103709  0.248934  0.349898  1
  Si  Si318  1  0.396960  0.748261  0.288124  1
  Si  Si319  1  0.398108  0.495273  0.373603  1
  Si  Si320  1  0.242048  0.142392  0.371050  1
  Si  Si321  1  0.240532  0.355598  0.371227  1
  Si  Si322  1  0.106361  0.639591  0.411448  1
  Si  Si323  1  0.105650  0.857816  0.411643  1
  Si  Si324  1  0.246628  0.497843  0.398072  1
  Si  Si325  1  0.243663  0.000000  0.399178  1
  Si  Si326  1  0.394408  0.005347  0.372997  1
  Si  Si327  1  0.191722  0.000000  0.434944  1
  Si  Si328  1  0.189940  0.500867  0.434856  1
  Si  Si329  1  -0.000000  0.143580  0.284778  1
  Si  Si330  1  0.499940  0.752935  0.321505  1
  Si  Si331  1  0.259557  0.355994  0.138999  1
  Si  Si332  1  0.259438  0.644876  0.267969  1
  Si  Si333  1  0.259210  0.143777  0.138994  1
  Si  Si334  1  0.255840  0.859581  0.267458  1
  Si  Si335  1  0.393647  0.859222  0.179836  1
  Si  Si336  1  0.392990  0.140799  0.226775  1
  Si  Si337  1  0.393174  0.640925  0.180159  1
  Si  Si338  1  0.392798  0.359704  0.227278  1
  Si  Si339  1  0.253918  0.000000  0.166799  1
  Si  Si340  1  0.255153  0.000000  0.240171  1
  Si  Si341  1  0.254177  0.501144  0.166699  1
  Si  Si342  1  0.257442  0.498390  0.240163  1
  Si  Si343  1  0.105524  0.497454  0.141503  1
  Si  Si344  1  0.104489  0.502790  0.266164  1
  Si  Si345  1  0.104661  0.002833  0.141635  1
  Si  Si346  1  0.103242  0.996400  0.266484  1
  Si  Si347  1  0.308876  0.002585  0.203539  1
  Si  Si348  1  0.308817  0.502482  0.203311  1
  Si  Si349  1  0.393243  0.249690  0.118734  1
  Si  Si350  1  0.002165  0.750407  0.089164  1
  Si  Si351  1  0.600130  0.749085  0.751656  1
  Si  Si352  1  -0.000000  0.249576  0.781665  1
  Si  Si353  1  0.893687  0.005146  0.604856  1
  Si  Si354  1  0.690734  0.997765  0.666796  1
  Si  Si355  1  0.692051  0.497851  0.667547  1
  Si  Si356  1  0.896714  0.498707  0.604534  1
  Si  Si357  1  0.895897  0.502260  0.729660  1
  Si  Si358  1  0.741709  0.856278  0.731316  1
  Si  Si359  1  0.743851  0.144190  0.602666  1
  Si  Si360  1  0.741803  0.643908  0.731220  1
  Si  Si361  1  0.741345  0.357676  0.603165  1
  Si  Si362  1  0.606364  0.359158  0.690405  1
  Si  Si363  1  0.606286  0.640867  0.643489  1
  Si  Si364  1  0.606113  0.140941  0.690557  1
  Si  Si365  1  0.606685  0.859283  0.643614  1
  Si  Si366  1  0.745027  0.500167  0.703308  1
  Si  Si367  1  0.743654  0.498834  0.630362  1
  Si  Si368  1  0.745379  -0.000000  0.703509  1
  Si  Si369  1  0.746199  0.998645  0.630216  1
  Si  Si370  1  0.891512  0.995528  0.729193  1
  Si  Si371  1  0.000000  0.856156  0.585593  1
  Si  Si372  1  0.998379  0.643890  0.585700  1
  Si  Si373  1  0.502103  0.142885  0.516716  1
  Si  Si374  1  0.759185  0.643840  0.499716  1
  Si  Si375  1  0.759051  0.856342  0.499625  1
  Si  Si376  1  0.893061  0.140727  0.458992  1
  Si  Si377  1  0.892324  0.360460  0.458894  1
  Si  Si378  1  0.756809  0.002260  0.471828  1
  Si  Si379  1  0.756757  0.497384  0.472041  1
  Si  Si380  1  0.603638  0.502542  0.497990  1
  Si  Si381  1  0.603422  0.997400  0.497765  1
  Si  Si382  1  0.892823  0.750446  0.520043  1
  Si  Si383  1  0.603765  0.250485  0.581907  1
  Si  Si384  1  0.502174  0.356418  0.516715  1
  Si  Si385  1  0.502563  0.249771  0.549673  1
  Si  Si386  1  0.809392  0.497695  0.435404  1
  Si  Si387  1  0.000000  0.358330  0.748332  1
  Si  Si388  1  0.396960  0.748261  0.751669  1
  Si  Si389  1  0.000000  0.143580  0.748323  1
  Si  Si390  1  0.259557  0.355994  0.602544  1
  Si  Si391  1  0.259438  0.644876  0.731514  1
  Si  Si392  1  0.259210  0.143777  0.602539  1
  Si  Si393  1  0.255840  0.859581  0.731003  1
  Si  Si394  1  0.393647  0.859222  0.643381  1
  Si  Si395  1  0.392990  0.140799  0.690320  1
  Si  Si396  1  0.393174  0.640925  0.643704  1
  Si  Si397  1  0.392798  0.359704  0.690823  1
  Si  Si398  1  0.253918  0.000000  0.630344  1
  Si  Si399  1  0.255153  0.000000  0.703716  1
  Si  Si400  1  0.254177  0.501144  0.630244  1
  Si  Si401  1  0.257442  0.498390  0.703708  1
  Si  Si402  1  0.105524  0.497454  0.605048  1
  Si  Si403  1  0.104489  0.502790  0.729709  1
  Si  Si404  1  0.104661  0.002833  0.605179  1
  Si  Si405  1  0.103242  0.996400  0.730029  1
  Si  Si406  1  0.308876  0.002585  0.667084  1
  Si  Si407  1  0.308817  0.502482  0.666856  1
  Si  Si408  1  0.393243  0.249690  0.582279  1
  Si  Si409  1  0.242904  0.856368  0.499463  1
  Si  Si410  1  0.241782  0.641050  0.499138  1
  Si  Si411  1  0.106929  0.360081  0.459251  1
  Si  Si412  1  0.106803  0.141210  0.459073  1
  Si  Si413  1  0.240240  0.499845  0.472048  1
  Si  Si414  1  0.242215  0.002478  0.471721  1
  Si  Si415  1  0.394453  0.994819  0.497746  1
  Si  Si416  1  0.394970  0.504983  0.497929  1
  Si  Si417  1  0.103425  0.750226  0.520446  1
  Si  Si418  1  0.002165  0.750407  0.552709  1
  H  H419  1  0.914479  0.750666  0.064874  1
  H  H420  1  0.588961  0.250573  0.086852  1
  H  H421  1  0.088580  0.749813  0.065068  1
  H  H422  1  0.414823  0.249566  0.087018  1
  H  H423  1  0.584192  0.750958  0.783414  1
  H  H424  1  0.910927  0.249755  0.805339  1
  H  H425  1  0.414700  0.751135  0.783552  1
  H  H426  1  0.087413  0.249027  0.805378  1
