# generated using pymatgen
data_Si9H2O19
_symmetry_space_group_name_H-M   'P 1'
_cell_length_a   24.41204530
_cell_length_b   24.41160814
_cell_length_c   76.55370721
_cell_angle_alpha   45.00446172
_cell_angle_beta   90.00000000
_cell_angle_gamma   59.99544042
_symmetry_Int_Tables_number   1
_chemical_formula_structural   Si9H2O19
_chemical_formula_sum   'Si216 H48 O456'
_cell_volume   22811.0124851
_cell_formula_units_Z   24
loop_
 _symmetry_equiv_pos_site_id
 _symmetry_equiv_pos_as_xyz
  1  'x, y, z'
loop_
 _atom_site_type_symbol
 _atom_site_label
 _atom_site_symmetry_multiplicity
 _atom_site_fract_x
 _atom_site_fract_y
 _atom_site_fract_z
 _atom_site_occupancy
  O  O1  1  0.347967  0.471240  0.238448  1
  O  O2  1  0.061917  0.589529  0.239184  1
  O  O3  1  0.180993  0.258076  0.307178  1
  O  O4  1  0.063540  0.087929  0.157646  1
  O  O5  1  0.430712  0.975730  0.181033  1
  O  O6  1  0.431220  0.472092  0.266787  1
  O  O7  1  0.186689  0.382880  0.266751  1
  O  O8  1  0.402094  0.286412  0.281847  1
  O  O9  1  0.317325  0.245064  0.309792  1
  O  O10  1  0.438322  0.410054  0.310008  1
  O  O11  1  0.438354  0.911283  0.166468  1
  O  O12  1  0.068963  0.029588  0.141243  1
  O  O13  1  0.069090  0.527875  0.282488  1
  O  O14  1  0.096518  0.216193  0.297802  1
  O  O15  1  0.311074  0.120791  0.325590  1
  O  O16  1  0.272305  0.424664  0.263488  1
  O  O17  1  0.302642  0.573470  0.262587  1
  O  O18  1  0.124782  0.602196  0.263901  1
  O  O19  1  0.304258  0.071569  0.140539  1
  O  O20  1  0.124604  0.105540  0.126307  1
  O  O21  1  0.022553  0.102032  0.320122  1
  O  O22  1  0.123257  0.323213  0.263291  1
  O  O23  1  0.446097  0.034235  0.126021  1
  O  O24  1  0.196494  0.427165  0.286268  1
  O  O25  1  0.375972  0.396023  0.285827  1
  O  O26  1  0.197701  0.926995  0.182809  1
  O  O27  1  0.376708  0.898180  0.197582  1
  O  O28  1  0.477719  0.398099  0.253320  1
  O  O29  1  0.053103  0.467928  0.254234  1
  O  O30  1  0.374208  0.178781  0.295163  1
  O  O31  1  0.182014  0.755930  0.238808  1
  O  O32  1  0.345657  0.971654  0.211168  1
  O  O33  1  0.347409  0.833101  0.269879  1
  O  O34  1  0.182103  0.378618  0.167258  1
  O  O35  1  0.311421  0.255675  0.182488  1
  O  O36  1  0.096572  0.592783  0.325258  1
  O  O37  1  0.401939  0.786196  0.251095  1
  O  O38  1  0.187428  0.881161  0.222638  1
  O  O39  1  0.151428  0.530936  0.310089  1
  O  O40  1  0.317982  0.744014  0.241454  1
  O  O41  1  0.317621  0.119860  0.225612  1
  O  O42  1  0.153109  0.665293  0.307338  1
  O  O43  1  0.402405  0.908346  0.254503  1
  O  O44  1  0.188512  0.242863  0.185350  1
  O  O45  1  0.311938  0.620022  0.281686  1
  O  O46  1  0.097677  0.714876  0.266971  1
  O  O47  1  0.272777  0.923143  0.207254  1
  O  O48  1  0.272827  0.030374  0.239962  1
  O  O49  1  0.372287  0.072852  0.206659  1
  O  O50  1  0.055998  0.419700  0.152113  1
  O  O51  1  0.020430  0.605510  0.295356  1
  O  O52  1  0.445800  0.531974  0.295725  1
  O  O53  1  0.476831  0.646328  0.310180  1
  O  O54  1  0.127176  0.819467  0.254144  1
  O  O55  1  0.227441  0.576847  0.285404  1
  O  O56  1  0.226554  0.468596  0.140643  1
  O  O57  1  0.445745  0.075996  0.229040  1
  O  O58  1  0.475052  0.899348  0.228395  1
  O  O59  1  0.124553  0.430257  0.126432  1
  O  O60  1  0.372163  0.681453  0.285182  1
  O  O61  1  0.052772  0.967147  0.197482  1
  O  O62  1  0.023332  0.852961  0.263666  1
  O  O63  1  0.182043  0.877927  0.323183  1
  O  O64  1  0.061730  0.282626  0.195243  1
  O  O65  1  0.347711  0.334130  0.241727  1
  O  O66  1  0.093529  0.096075  0.293787  1
  O  O67  1  0.311876  0.754992  0.138567  1
  O  O68  1  0.067253  0.335272  0.212827  1
  O  O69  1  0.065992  0.836894  0.297849  1
  O  O70  1  0.150589  0.167614  0.279481  1
  O  O71  1  0.438496  0.713239  0.129268  1
  O  O72  1  0.320080  0.616602  0.157483  1
  O  O73  1  0.437797  0.213620  0.210794  1
  O  O74  1  0.190970  0.741168  0.141952  1
  O  O75  1  0.402294  0.409804  0.222909  1
  O  O76  1  0.430496  0.166494  0.250883  1
  O  O77  1  0.304566  0.820684  0.320107  1
  O  O78  1  0.124682  0.148449  0.253451  1
  O  O79  1  0.271394  0.531784  0.183215  1
  O  O80  1  0.303240  0.319213  0.197632  1
  O  O81  1  0.056979  0.918011  0.320804  1
  O  O82  1  0.374657  0.571872  0.197157  1
  O  O83  1  0.478362  0.147907  0.285518  1
  O  O84  1  0.224977  0.968182  0.310462  1
  O  O85  1  0.195470  0.181692  0.228708  1
  O  O86  1  0.377827  0.850046  0.296346  1
  O  O87  1  0.194340  0.680138  0.126569  1
  O  O88  1  0.373538  0.352909  0.207026  1
  O  O89  1  0.448010  0.572615  0.173545  1
  O  O90  1  0.019752  0.354621  0.239177  1
  O  O91  1  0.848524  0.835274  0.156126  1
  O  O92  1  0.560243  0.287700  0.307332  1
  O  O93  1  0.684886  0.373926  0.281361  1
  O  O94  1  0.560634  0.787207  0.224800  1
  O  O95  1  0.813821  0.257299  0.294643  1
  O  O96  1  0.592954  0.597169  0.212190  1
  O  O97  1  0.568423  0.337985  0.324898  1
  O  O98  1  0.568040  0.835186  0.184732  1
  O  O99  1  0.938147  0.713080  0.242158  1
  O  O100  1  0.650568  0.668080  0.193916  1
  O  O101  1  0.938635  0.213889  0.323728  1
  O  O102  1  0.906969  0.904595  0.142840  1
  O  O103  1  0.687853  0.242021  0.297814  1
  O  O104  1  0.931745  0.664528  0.223852  1
  O  O105  1  0.932392  0.165752  0.138653  1
  O  O106  1  0.774622  0.031917  0.126256  1
  O  O107  1  0.803906  0.819731  0.207341  1
  O  O108  1  0.622984  0.151964  0.140684  1
  O  O109  1  0.804554  0.319257  0.310734  1
  O  O110  1  0.623359  0.648332  0.229059  1
  O  O111  1  0.875904  0.069109  0.321001  1
  O  O112  1  0.554412  0.423993  0.264137  1
  O  O113  1  0.977432  0.647187  0.197451  1
  O  O114  1  0.875891  0.850689  0.183228  1
  O  O115  1  0.725548  0.468867  0.253494  1
  O  O116  1  0.695837  0.681836  0.238066  1
  O  O117  1  0.876843  0.352209  0.319954  1
  O  O118  1  0.625317  0.431276  0.239443  1
  O  O119  1  0.521716  0.855613  0.149876  1
  O  O120  1  0.843854  0.474595  0.124876  1
  O  O121  1  0.682439  0.257237  0.194782  1
  O  O122  1  0.683684  0.876615  0.211569  1
  O  O123  1  0.848302  0.331933  0.129150  1
  O  O124  1  0.597905  0.091214  0.182917  1
  O  O125  1  0.813320  0.755503  0.251321  1
  O  O126  1  0.686830  0.382151  0.154333  1
  O  O127  1  0.902785  0.286497  0.168628  1
  O  O128  1  0.816269  0.243310  0.197953  1
  O  O129  1  0.652420  0.027831  0.226428  1
  O  O130  1  0.656464  0.161933  0.168371  1
  O  O131  1  0.817566  0.622218  0.268897  1
  O  O132  1  0.688039  0.742158  0.254650  1
  O  O133  1  0.597024  0.212657  0.185746  1
  O  O134  1  0.811214  0.118257  0.212961  1
  O  O135  1  0.772869  0.421970  0.151184  1
  O  O136  1  0.772785  0.531665  0.295202  1
  O  O137  1  0.555341  0.921119  0.207543  1
  O  O138  1  0.521742  0.103678  0.206983  1
  O  O139  1  0.874767  0.569748  0.310014  1
  O  O140  1  0.624921  0.319603  0.151548  1
  O  O141  1  0.944686  0.032814  0.239685  1
  O  O142  1  0.979708  0.145596  0.173560  1
  O  O143  1  0.726401  0.078282  0.229120  1
  O  O144  1  0.727391  0.967996  0.197389  1
  O  O145  1  0.625966  0.927783  0.229329  1
  O  O146  1  0.947386  0.572963  0.286256  1
  O  O147  1  0.975787  0.397023  0.141495  1
  O  O148  1  0.553374  0.467067  0.141596  1
  O  O149  1  0.524754  0.347840  0.127094  1
  O  O150  1  0.875350  0.178391  0.183330  1
  O  O151  1  0.682428  0.756497  0.125758  1
  O  O152  1  0.562759  0.588319  0.126587  1
  O  O153  1  0.848521  0.967370  0.325082  1
  O  O154  1  0.559641  0.093534  0.268927  1
  O  O155  1  0.932818  0.968462  0.295468  1
  O  O156  1  0.932933  0.469763  0.155290  1
  O  O157  1  0.906235  0.781288  0.139155  1
  O  O158  1  0.651602  0.531947  0.197489  1
  O  O159  1  0.937058  0.410523  0.197750  1
  O  O160  1  0.819134  0.742285  0.128962  1
  O  O161  1  0.937916  0.908383  0.279853  1
  O  O162  1  0.568228  0.029540  0.254055  1
  O  O163  1  0.568554  0.528908  0.169541  1
  O  O164  1  0.812578  0.618786  0.169142  1
  O  O165  1  0.596680  0.715769  0.153685  1
  O  O166  1  0.803614  0.573095  0.150002  1
  O  O167  1  0.623638  0.604792  0.150274  1
  O  O168  1  0.772271  0.922243  0.321218  1
  O  O169  1  0.805904  0.070946  0.253389  1
  O  O170  1  0.622111  0.106725  0.238684  1
  O  O171  1  0.522327  0.603420  0.182909  1
  O  O172  1  0.946929  0.532162  0.182536  1
  O  O173  1  0.627173  0.819189  0.141126  1
  O  O174  1  0.726826  0.577586  0.172226  1
  O  O175  1  0.697466  0.426725  0.173895  1
  O  O176  1  0.875191  0.398526  0.172160  1
  O  O177  1  0.695240  0.931390  0.295440  1
  O  O178  1  0.874000  0.898245  0.309956  1
  O  O179  1  0.874915  0.680260  0.172151  1
  O  O180  1  0.554546  0.968961  0.309801  1
  O  O181  1  0.347967  0.471240  0.463914  1
  O  O182  1  0.061917  0.589529  0.464651  1
  O  O183  1  0.180993  0.258076  0.532644  1
  O  O184  1  0.063540  0.087929  0.383112  1
  O  O185  1  0.430712  0.975730  0.406500  1
  O  O186  1  0.431220  0.472092  0.492253  1
  O  O187  1  0.186689  0.382880  0.492218  1
  O  O188  1  0.402094  0.286412  0.507313  1
  O  O189  1  0.317325  0.245064  0.535258  1
  O  O190  1  0.438322  0.410054  0.535474  1
  O  O191  1  0.151643  0.031715  0.337677  1
  O  O192  1  0.438354  0.911283  0.391934  1
  O  O193  1  0.068963  0.029588  0.366709  1
  O  O194  1  0.069090  0.527875  0.507954  1
  O  O195  1  0.096518  0.216193  0.523268  1
  O  O196  1  0.311074  0.120791  0.551057  1
  O  O197  1  0.272305  0.424664  0.488954  1
  O  O198  1  0.302642  0.573470  0.488053  1
  O  O199  1  0.124782  0.602196  0.489367  1
  O  O200  1  0.304258  0.071569  0.366005  1
  O  O201  1  0.124604  0.105540  0.351773  1
  O  O202  1  0.022553  0.102032  0.545589  1
  O  O203  1  0.123257  0.323213  0.488757  1
  O  O204  1  0.446097  0.034235  0.351487  1
  O  O205  1  0.196494  0.427165  0.511734  1
  O  O206  1  0.375972  0.396023  0.511293  1
  O  O207  1  0.228107  0.076248  0.341738  1
  O  O208  1  0.197701  0.926995  0.408276  1
  O  O209  1  0.376708  0.898180  0.423048  1
  O  O210  1  0.477719  0.398099  0.478786  1
  O  O211  1  0.053103  0.467928  0.479700  1
  O  O212  1  0.374208  0.178781  0.520629  1
  O  O213  1  0.182014  0.755930  0.464274  1
  O  O214  1  0.345657  0.971654  0.436634  1
  O  O215  1  0.347409  0.833101  0.495345  1
  O  O216  1  0.182103  0.378618  0.392725  1
  O  O217  1  0.311421  0.255675  0.407954  1
  O  O218  1  0.096572  0.592783  0.550724  1
  O  O219  1  0.401939  0.786196  0.476561  1
  O  O220  1  0.187428  0.881161  0.448104  1
  O  O221  1  0.151428  0.530936  0.535555  1
  O  O222  1  0.317982  0.744014  0.466920  1
  O  O223  1  0.317621  0.119860  0.451078  1
  O  O224  1  0.153109  0.665293  0.532804  1
  O  O225  1  0.402405  0.908346  0.479969  1
  O  O226  1  0.188512  0.242863  0.410816  1
  O  O227  1  0.311938  0.620022  0.507152  1
  O  O228  1  0.097677  0.714876  0.492437  1
  O  O229  1  0.272777  0.923143  0.432720  1
  O  O230  1  0.272827  0.030374  0.465428  1
  O  O231  1  0.372287  0.072852  0.432125  1
  O  O232  1  0.055998  0.419700  0.377579  1
  O  O233  1  0.020430  0.605510  0.520822  1
  O  O234  1  0.445800  0.531974  0.521192  1
  O  O235  1  0.476831  0.646328  0.535646  1
  O  O236  1  0.127176  0.819467  0.479610  1
  O  O237  1  0.227441  0.576847  0.510870  1
  O  O238  1  0.226554  0.468596  0.366109  1
  O  O239  1  0.445745  0.075996  0.454506  1
  O  O240  1  0.475052  0.899348  0.453861  1
  O  O241  1  0.124553  0.430257  0.351898  1
  O  O242  1  0.372163  0.681453  0.510649  1
  O  O243  1  0.052772  0.967147  0.422948  1
  O  O244  1  0.023332  0.852961  0.489132  1
  O  O245  1  0.182043  0.877927  0.548649  1
  O  O246  1  0.061730  0.282626  0.420709  1
  O  O247  1  0.347711  0.334130  0.467193  1
  O  O248  1  0.061056  0.781968  0.339286  1
  O  O249  1  0.093529  0.096075  0.519253  1
  O  O250  1  0.311876  0.754992  0.364033  1
  O  O251  1  0.067253  0.335272  0.438293  1
  O  O252  1  0.065992  0.836894  0.523315  1
  O  O253  1  0.150589  0.167614  0.504947  1
  O  O254  1  0.438496  0.713239  0.354734  1
  O  O255  1  0.320080  0.616602  0.382949  1
  O  O256  1  0.437797  0.213620  0.436260  1
  O  O257  1  0.190970  0.741168  0.367418  1
  O  O258  1  0.402294  0.409804  0.448375  1
  O  O259  1  0.432443  0.664373  0.336480  1
  O  O260  1  0.430496  0.166494  0.476350  1
  O  O261  1  0.304566  0.820684  0.545573  1
  O  O262  1  0.124682  0.148449  0.478917  1
  O  O263  1  0.271394  0.531784  0.408681  1
  O  O264  1  0.303240  0.319213  0.423098  1
  O  O265  1  0.123326  0.649805  0.340940  1
  O  O266  1  0.056979  0.918011  0.546270  1
  O  O267  1  0.374657  0.571872  0.422624  1
  O  O268  1  0.478362  0.147907  0.510984  1
  O  O269  1  0.224977  0.968182  0.535928  1
  O  O270  1  0.195470  0.181692  0.454174  1
  O  O271  1  0.377827  0.850046  0.521812  1
  O  O272  1  0.194340  0.680138  0.352035  1
  O  O273  1  0.373538  0.352909  0.432492  1
  O  O274  1  0.127039  0.929698  0.341092  1
  O  O275  1  0.448010  0.572615  0.399011  1
  O  O276  1  0.019752  0.354621  0.464643  1
  O  O277  1  0.848524  0.835274  0.381592  1
  O  O278  1  0.560243  0.287700  0.532798  1
  O  O279  1  0.684886  0.373926  0.506827  1
  O  O280  1  0.560634  0.787207  0.450266  1
  O  O281  1  0.813821  0.257299  0.520109  1
  O  O282  1  0.592954  0.597169  0.437656  1
  O  O283  1  0.568423  0.337985  0.550364  1
  O  O284  1  0.568040  0.835186  0.410198  1
  O  O285  1  0.816131  0.125284  0.337349  1
  O  O286  1  0.938147  0.713080  0.467624  1
  O  O287  1  0.650568  0.668080  0.419383  1
  O  O288  1  0.938635  0.213889  0.549194  1
  O  O289  1  0.906969  0.904595  0.368306  1
  O  O290  1  0.687853  0.242021  0.523280  1
  O  O291  1  0.931745  0.664528  0.449318  1
  O  O292  1  0.932392  0.165752  0.364119  1
  O  O293  1  0.774622  0.031917  0.351722  1
  O  O294  1  0.803906  0.819731  0.432807  1
  O  O295  1  0.622984  0.151964  0.366150  1
  O  O296  1  0.804554  0.319257  0.536201  1
  O  O297  1  0.623359  0.648332  0.454526  1
  O  O298  1  0.875904  0.069109  0.546467  1
  O  O299  1  0.554412  0.423993  0.489603  1
  O  O300  1  0.977432  0.647187  0.422917  1
  O  O301  1  0.693792  0.182370  0.340986  1
  O  O302  1  0.875891  0.850689  0.408694  1
  O  O303  1  0.725548  0.468867  0.478960  1
  O  O304  1  0.695837  0.681836  0.463532  1
  O  O305  1  0.876843  0.352209  0.545420  1
  O  O306  1  0.946648  0.075362  0.342879  1
  O  O307  1  0.625317  0.431276  0.464910  1
  O  O308  1  0.521716  0.855613  0.375342  1
  O  O309  1  0.843854  0.474595  0.350342  1
  O  O310  1  0.682439  0.257237  0.420248  1
  O  O311  1  0.683684  0.876615  0.437035  1
  O  O312  1  0.848302  0.331933  0.354616  1
  O  O313  1  0.597905  0.091214  0.408383  1
  O  O314  1  0.813320  0.755503  0.476787  1
  O  O315  1  0.686830  0.382151  0.379799  1
  O  O316  1  0.902785  0.286497  0.394094  1
  O  O317  1  0.816269  0.243310  0.423420  1
  O  O318  1  0.652420  0.027831  0.451894  1
  O  O319  1  0.656464  0.161933  0.393837  1
  O  O320  1  0.817566  0.622218  0.494364  1
  O  O321  1  0.688039  0.742158  0.480116  1
  O  O322  1  0.902293  0.407615  0.336521  1
  O  O323  1  0.597024  0.212657  0.411212  1
  O  O324  1  0.811214  0.118257  0.438427  1
  O  O325  1  0.772869  0.421970  0.376650  1
  O  O326  1  0.772785  0.531665  0.520668  1
  O  O327  1  0.555341  0.921119  0.433009  1
  O  O328  1  0.521742  0.103678  0.432449  1
  O  O329  1  0.874767  0.569748  0.535480  1
  O  O330  1  0.624921  0.319603  0.377014  1
  O  O331  1  0.944686  0.032814  0.465151  1
  O  O332  1  0.979708  0.145596  0.399026  1
  O  O333  1  0.726401  0.078282  0.454586  1
  O  O334  1  0.727391  0.967996  0.422855  1
  O  O335  1  0.625966  0.927783  0.454795  1
  O  O336  1  0.947386  0.572963  0.511722  1
  O  O337  1  0.975787  0.397023  0.366961  1
  O  O338  1  0.553374  0.467067  0.367062  1
  O  O339  1  0.524754  0.347840  0.352560  1
  O  O340  1  0.875350  0.178391  0.408796  1
  O  O341  1  0.682428  0.756497  0.351224  1
  O  O342  1  0.562759  0.588319  0.352054  1
  O  O343  1  0.848521  0.967370  0.550548  1
  O  O344  1  0.559641  0.093534  0.494393  1
  O  O345  1  0.932818  0.968462  0.520934  1
  O  O346  1  0.932933  0.469763  0.380757  1
  O  O347  1  0.906235  0.781288  0.364621  1
  O  O348  1  0.689858  0.877988  0.336545  1
  O  O349  1  0.651602  0.531947  0.422956  1
  O  O350  1  0.937058  0.410523  0.423216  1
  O  O351  1  0.819134  0.742285  0.354428  1
  O  O352  1  0.937916  0.908383  0.505319  1
  O  O353  1  0.568228  0.029540  0.479521  1
  O  O354  1  0.568554  0.528908  0.395007  1
  O  O355  1  0.812578  0.618786  0.394609  1
  O  O356  1  0.596680  0.715769  0.379151  1
  O  O357  1  0.803614  0.573095  0.375468  1
  O  O358  1  0.623638  0.604792  0.375740  1
  O  O359  1  0.772271  0.922243  0.546684  1
  O  O360  1  0.805904  0.070946  0.478855  1
  O  O361  1  0.622111  0.106725  0.464150  1
  O  O362  1  0.522327  0.603420  0.408376  1
  O  O363  1  0.946929  0.532162  0.408003  1
  O  O364  1  0.627173  0.819189  0.366592  1
  O  O365  1  0.726826  0.577586  0.397692  1
  O  O366  1  0.697466  0.426725  0.399362  1
  O  O367  1  0.875191  0.398526  0.397626  1
  O  O368  1  0.695240  0.931390  0.520906  1
  O  O369  1  0.874000  0.898245  0.535423  1
  O  O370  1  0.978199  0.895312  0.342243  1
  O  O371  1  0.874915  0.680260  0.397617  1
  O  O372  1  0.554546  0.968961  0.535267  1
  O  O373  1  0.063540  0.087929  0.608579  1
  O  O374  1  0.430712  0.975730  0.631966  1
  O  O375  1  0.151643  0.031715  0.563143  1
  O  O376  1  0.438354  0.911283  0.617400  1
  O  O377  1  0.068963  0.029588  0.592175  1
  O  O378  1  0.304258  0.071569  0.591471  1
  O  O379  1  0.124604  0.105540  0.577239  1
  O  O380  1  0.446097  0.034235  0.576953  1
  O  O381  1  0.228107  0.076248  0.567204  1
  O  O382  1  0.197701  0.926995  0.633742  1
  O  O383  1  0.376708  0.898180  0.648514  1
  O  O384  1  0.182103  0.378618  0.618191  1
  O  O385  1  0.311421  0.255675  0.633420  1
  O  O386  1  0.188512  0.242863  0.636283  1
  O  O387  1  0.055998  0.419700  0.603045  1
  O  O388  1  0.226554  0.468596  0.591575  1
  O  O389  1  0.124553  0.430257  0.577364  1
  O  O390  1  0.052772  0.967147  0.648414  1
  O  O391  1  0.061730  0.282626  0.646175  1
  O  O392  1  0.061056  0.781968  0.564752  1
  O  O393  1  0.311876  0.754992  0.589499  1
  O  O394  1  0.438496  0.713239  0.580201  1
  O  O395  1  0.320080  0.616602  0.608415  1
  O  O396  1  0.190970  0.741168  0.592885  1
  O  O397  1  0.432443  0.664373  0.561946  1
  O  O398  1  0.271394  0.531784  0.634147  1
  O  O399  1  0.303240  0.319213  0.648565  1
  O  O400  1  0.123326  0.649805  0.566406  1
  O  O401  1  0.374657  0.571872  0.648090  1
  O  O402  1  0.194340  0.680138  0.577502  1
  O  O403  1  0.127039  0.929698  0.566558  1
  O  O404  1  0.448010  0.572615  0.624478  1
  O  O405  1  0.848524  0.835274  0.607058  1
  O  O406  1  0.568040  0.835186  0.635664  1
  O  O407  1  0.816131  0.125284  0.562815  1
  O  O408  1  0.650568  0.668080  0.644849  1
  O  O409  1  0.906969  0.904595  0.593772  1
  O  O410  1  0.932392  0.165752  0.589586  1
  O  O411  1  0.774622  0.031917  0.577189  1
  O  O412  1  0.622984  0.151964  0.591616  1
  O  O413  1  0.977432  0.647187  0.648383  1
  O  O414  1  0.693792  0.182370  0.566452  1
  O  O415  1  0.875891  0.850689  0.634160  1
  O  O416  1  0.946648  0.075362  0.568345  1
  O  O417  1  0.521716  0.855613  0.600808  1
  O  O418  1  0.843854  0.474595  0.575808  1
  O  O419  1  0.682439  0.257237  0.645714  1
  O  O420  1  0.848302  0.331933  0.580082  1
  O  O421  1  0.597905  0.091214  0.633849  1
  O  O422  1  0.686830  0.382151  0.605266  1
  O  O423  1  0.902785  0.286497  0.619561  1
  O  O424  1  0.816269  0.243310  0.648886  1
  O  O425  1  0.656464  0.161933  0.619304  1
  O  O426  1  0.902293  0.407615  0.561987  1
  O  O427  1  0.597024  0.212657  0.636678  1
  O  O428  1  0.772869  0.421970  0.602116  1
  O  O429  1  0.624921  0.319603  0.602480  1
  O  O430  1  0.979708  0.145596  0.624492  1
  O  O431  1  0.727391  0.967996  0.648322  1
  O  O432  1  0.975787  0.397023  0.592427  1
  O  O433  1  0.553374  0.467067  0.592528  1
  O  O434  1  0.524754  0.347840  0.578026  1
  O  O435  1  0.875350  0.178391  0.634262  1
  O  O436  1  0.682428  0.756497  0.576690  1
  O  O437  1  0.562759  0.588319  0.577520  1
  O  O438  1  0.932933  0.469763  0.606223  1
  O  O439  1  0.906235  0.781288  0.590087  1
  O  O440  1  0.689858  0.877988  0.562011  1
  O  O441  1  0.651602  0.531947  0.648422  1
  O  O442  1  0.937058  0.410523  0.648683  1
  O  O443  1  0.819134  0.742285  0.579894  1
  O  O444  1  0.568554  0.528908  0.620473  1
  O  O445  1  0.812578  0.618786  0.620075  1
  O  O446  1  0.596680  0.715769  0.604617  1
  O  O447  1  0.803614  0.573095  0.600934  1
  O  O448  1  0.623638  0.604792  0.601206  1
  O  O449  1  0.522327  0.603420  0.633842  1
  O  O450  1  0.946929  0.532162  0.633469  1
  O  O451  1  0.627173  0.819189  0.592058  1
  O  O452  1  0.726826  0.577586  0.623159  1
  O  O453  1  0.697466  0.426725  0.624828  1
  O  O454  1  0.875191  0.398526  0.623093  1
  O  O455  1  0.978199  0.895312  0.567710  1
  O  O456  1  0.874915  0.680260  0.623083  1
  Si  Si457  1  0.347814  0.398304  0.267149  1
  Si  Si458  1  0.115891  0.535643  0.267846  1
  Si  Si459  1  0.116989  0.036914  0.152189  1
  Si  Si460  1  0.097139  0.039838  0.322903  1
  Si  Si461  1  0.133612  0.362031  0.271545  1
  Si  Si462  1  0.493027  0.911947  0.155536  1
  Si  Si463  1  0.242982  0.372779  0.281423  1
  Si  Si464  1  0.383132  0.464381  0.281146  1
  Si  Si465  1  0.386152  0.963627  0.171558  1
  Si  Si466  1  0.402503  0.463299  0.227415  1
  Si  Si467  1  0.005855  0.590352  0.228587  1
  Si  Si468  1  0.365513  0.140814  0.320824  1
  Si  Si469  1  0.256700  0.628251  0.267334  1
  Si  Si470  1  0.347524  0.897159  0.215785  1
  Si  Si471  1  0.348337  0.905495  0.265765  1
  Si  Si472  1  0.256003  0.358133  0.171906  1
  Si  Si473  1  0.364303  0.128293  0.211078  1
  Si  Si474  1  0.006777  0.393896  0.160382  1
  Si  Si475  1  0.095979  0.539661  0.320613  1
  Si  Si476  1  0.495504  0.407426  0.321058  1
  Si  Si477  1  0.401351  0.732362  0.279674  1
  Si  Si478  1  0.133856  0.859884  0.227935  1
  Si  Si479  1  0.152154  0.603788  0.281745  1
  Si  Si480  1  0.243957  0.871246  0.212459  1
  Si  Si481  1  0.243119  0.141588  0.220874  1
  Si  Si482  1  0.495085  0.102109  0.225459  1
  Si  Si483  1  0.400804  0.963840  0.225407  1
  Si  Si484  1  0.135967  0.369237  0.156963  1
  Si  Si485  1  0.364362  0.642291  0.277007  1
  Si  Si486  1  0.006741  0.089594  0.168060  1
  Si  Si487  1  0.098626  0.767541  0.271684  1
  Si  Si488  1  0.254514  0.858493  0.328400  1
  Si  Si489  1  0.114611  0.233572  0.222688  1
  Si  Si490  1  0.346801  0.409123  0.212714  1
  Si  Si491  1  0.007218  0.892617  0.324388  1
  Si  Si492  1  0.367501  0.626050  0.167851  1
  Si  Si493  1  0.403169  0.230513  0.277714  1
  Si  Si494  1  0.150471  0.093189  0.284430  1
  Si  Si495  1  0.386052  0.766732  0.325838  1
  Si  Si496  1  0.245484  0.638315  0.152720  1
  Si  Si497  1  0.383642  0.267319  0.215219  1
  Si  Si498  1  0.493808  0.602728  0.164808  1
  Si  Si499  1  0.095116  0.270300  0.268698  1
  Si  Si500  1  0.849831  0.907280  0.152114  1
  Si  Si501  1  0.758772  0.354994  0.285535  1
  Si  Si502  1  0.616223  0.731355  0.220802  1
  Si  Si503  1  0.865376  0.131982  0.323597  1
  Si  Si504  1  0.506299  0.397494  0.271790  1
  Si  Si505  1  0.903244  0.733235  0.166611  1
  Si  Si506  1  0.884650  0.766696  0.213374  1
  Si  Si507  1  0.649383  0.595363  0.222690  1
  Si  Si508  1  0.884632  0.268786  0.328088  1
  Si  Si509  1  0.635558  0.367742  0.270355  1
  Si  Si510  1  0.596941  0.769423  0.158153  1
  Si  Si511  1  0.847317  0.397942  0.153921  1
  Si  Si512  1  0.756449  0.130107  0.223142  1
  Si  Si513  1  0.756966  0.857712  0.215786  1
  Si  Si514  1  0.848057  0.406361  0.325925  1
  Si  Si515  1  0.503731  0.898940  0.210150  1
  Si  Si516  1  0.597468  0.036882  0.211598  1
  Si  Si517  1  0.866340  0.628535  0.279889  1
  Si  Si518  1  0.634109  0.360670  0.159155  1
  Si  Si519  1  0.992634  0.910308  0.269040  1
  Si  Si520  1  0.903709  0.231007  0.164668  1
  Si  Si521  1  0.743207  0.371343  0.169255  1
  Si  Si522  1  0.651476  0.102995  0.221397  1
  Si  Si523  1  0.652842  0.092585  0.172176  1
  Si  Si524  1  0.741901  0.644605  0.263608  1
  Si  Si525  1  0.637060  0.866944  0.226090  1
  Si  Si526  1  0.994669  0.601468  0.278158  1
  Si  Si527  1  0.599034  0.263648  0.157518  1
  Si  Si528  1  0.863912  0.138517  0.209247  1
  Si  Si529  1  0.756340  0.629142  0.154321  1
  Si  Si530  1  0.616729  0.535886  0.155248  1
  Si  Si531  1  0.847972  0.893267  0.329585  1
  Si  Si532  1  0.613641  0.039918  0.264414  1
  Si  Si533  1  0.596771  0.541492  0.208270  1
  Si  Si534  1  0.993686  0.409415  0.208639  1
  Si  Si535  1  0.651404  0.603729  0.168619  1
  Si  Si536  1  0.884294  0.463639  0.168983  1
  Si  Si537  1  0.745736  0.869643  0.326136  1
  Si  Si538  1  0.885723  0.961287  0.284621  1
  Si  Si539  1  0.866064  0.638875  0.164601  1
  Si  Si540  1  0.503780  0.094355  0.279386  1
  Si  Si541  1  0.347814  0.398304  0.492615  1
  Si  Si542  1  0.115891  0.535643  0.493312  1
  Si  Si543  1  0.254220  0.130769  0.335721  1
  Si  Si544  1  0.116989  0.036914  0.377655  1
  Si  Si545  1  0.097139  0.039838  0.548369  1
  Si  Si546  1  0.133612  0.362031  0.497011  1
  Si  Si547  1  0.493027  0.911947  0.381002  1
  Si  Si548  1  0.242982  0.372779  0.506889  1
  Si  Si549  1  0.383132  0.464381  0.506612  1
  Si  Si550  1  0.152531  0.104240  0.333861  1
  Si  Si551  1  0.386152  0.963627  0.397024  1
  Si  Si552  1  0.402503  0.463299  0.452881  1
  Si  Si553  1  0.005855  0.590352  0.454053  1
  Si  Si554  1  0.365513  0.140814  0.546290  1
  Si  Si555  1  0.256700  0.628251  0.492800  1
  Si  Si556  1  0.347524  0.897159  0.441252  1
  Si  Si557  1  0.348337  0.905495  0.491231  1
  Si  Si558  1  0.256003  0.358133  0.397372  1
  Si  Si559  1  0.364303  0.128293  0.436544  1
  Si  Si560  1  0.006777  0.393896  0.385848  1
  Si  Si561  1  0.095979  0.539661  0.546079  1
  Si  Si562  1  0.495504  0.407426  0.546524  1
  Si  Si563  1  0.401351  0.732362  0.505140  1
  Si  Si564  1  0.133856  0.859884  0.453401  1
  Si  Si565  1  0.152154  0.603788  0.507211  1
  Si  Si566  1  0.243957  0.871246  0.437925  1
  Si  Si567  1  0.243119  0.141588  0.446340  1
  Si  Si568  1  0.151987  0.592784  0.335632  1
  Si  Si569  1  0.495085  0.102109  0.450925  1
  Si  Si570  1  0.400804  0.963840  0.450873  1
  Si  Si571  1  0.135967  0.369237  0.382429  1
  Si  Si572  1  0.364362  0.642291  0.502473  1
  Si  Si573  1  0.006741  0.089594  0.393526  1
  Si  Si574  1  0.098626  0.767541  0.497151  1
  Si  Si575  1  0.254514  0.858493  0.553867  1
  Si  Si576  1  0.114611  0.233572  0.448155  1
  Si  Si577  1  0.346801  0.409123  0.438180  1
  Si  Si578  1  0.112627  0.734365  0.333444  1
  Si  Si579  1  0.007218  0.892617  0.549854  1
  Si  Si580  1  0.367501  0.626050  0.393317  1
  Si  Si581  1  0.403169  0.230513  0.503180  1
  Si  Si582  1  0.150471  0.093189  0.509896  1
  Si  Si583  1  0.386052  0.766732  0.551304  1
  Si  Si584  1  0.245484  0.638315  0.378186  1
  Si  Si585  1  0.383642  0.267319  0.440685  1
  Si  Si586  1  0.137687  0.868351  0.338189  1
  Si  Si587  1  0.493808  0.602728  0.390274  1
  Si  Si588  1  0.095116  0.270300  0.494164  1
  Si  Si589  1  0.849831  0.907280  0.377580  1
  Si  Si590  1  0.612792  0.236455  0.335682  1
  Si  Si591  1  0.758772  0.354994  0.511001  1
  Si  Si592  1  0.616223  0.731355  0.446268  1
  Si  Si593  1  0.865376  0.131982  0.549063  1
  Si  Si594  1  0.506299  0.397494  0.497257  1
  Si  Si595  1  0.903244  0.733235  0.392077  1
  Si  Si596  1  0.743015  0.143689  0.332760  1
  Si  Si597  1  0.884650  0.766696  0.438840  1
  Si  Si598  1  0.649383  0.595363  0.448156  1
  Si  Si599  1  0.884632  0.268786  0.553554  1
  Si  Si600  1  0.994446  0.102526  0.338362  1
  Si  Si601  1  0.635558  0.367742  0.495821  1
  Si  Si602  1  0.596941  0.769423  0.383619  1
  Si  Si603  1  0.847317  0.397942  0.379388  1
  Si  Si604  1  0.756449  0.130107  0.448608  1
  Si  Si605  1  0.756966  0.857712  0.441252  1
  Si  Si606  1  0.848057  0.406361  0.551391  1
  Si  Si607  1  0.503731  0.898940  0.435616  1
  Si  Si608  1  0.597468  0.036882  0.437064  1
  Si  Si609  1  0.866340  0.628535  0.505355  1
  Si  Si610  1  0.634109  0.360670  0.384621  1
  Si  Si611  1  0.992634  0.910308  0.494506  1
  Si  Si612  1  0.903709  0.231007  0.390134  1
  Si  Si613  1  0.743207  0.371343  0.394721  1
  Si  Si614  1  0.651476  0.102995  0.446863  1
  Si  Si615  1  0.652842  0.092585  0.397642  1
  Si  Si616  1  0.741901  0.644605  0.489075  1
  Si  Si617  1  0.637060  0.866944  0.451557  1
  Si  Si618  1  0.994669  0.601468  0.503624  1
  Si  Si619  1  0.900829  0.461962  0.341028  1
  Si  Si620  1  0.506230  0.589618  0.341300  1
  Si  Si621  1  0.599034  0.263648  0.382984  1
  Si  Si622  1  0.863912  0.138517  0.434713  1
  Si  Si623  1  0.756340  0.629142  0.379788  1
  Si  Si624  1  0.616729  0.535886  0.380714  1
  Si  Si625  1  0.847972  0.893267  0.555051  1
  Si  Si626  1  0.613641  0.039918  0.489880  1
  Si  Si627  1  0.596771  0.541492  0.433736  1
  Si  Si628  1  0.993686  0.409415  0.434105  1
  Si  Si629  1  0.636039  0.858165  0.340923  1
  Si  Si630  1  0.651404  0.603729  0.394085  1
  Si  Si631  1  0.884294  0.463639  0.394449  1
  Si  Si632  1  0.745736  0.869643  0.551602  1
  Si  Si633  1  0.885723  0.961287  0.510088  1
  Si  Si634  1  0.904091  0.959179  0.339385  1
  Si  Si635  1  0.866064  0.638875  0.390067  1
  Si  Si636  1  0.503780  0.094355  0.504852  1
  Si  Si637  1  0.254220  0.130769  0.561187  1
  Si  Si638  1  0.116989  0.036914  0.603121  1
  Si  Si639  1  0.493027  0.911947  0.606468  1
  Si  Si640  1  0.152531  0.104240  0.559327  1
  Si  Si641  1  0.386152  0.963627  0.622491  1
  Si  Si642  1  0.256003  0.358133  0.622838  1
  Si  Si643  1  0.006777  0.393896  0.611314  1
  Si  Si644  1  0.151987  0.592784  0.561098  1
  Si  Si645  1  0.135967  0.369237  0.607895  1
  Si  Si646  1  0.006741  0.089594  0.618992  1
  Si  Si647  1  0.112627  0.734365  0.558910  1
  Si  Si648  1  0.367501  0.626050  0.618783  1
  Si  Si649  1  0.245484  0.638315  0.603652  1
  Si  Si650  1  0.137687  0.868351  0.563655  1
  Si  Si651  1  0.493808  0.602728  0.615740  1
  Si  Si652  1  0.849831  0.907280  0.603046  1
  Si  Si653  1  0.612792  0.236455  0.561148  1
  Si  Si654  1  0.903244  0.733235  0.617543  1
  Si  Si655  1  0.743015  0.143689  0.558227  1
  Si  Si656  1  0.994446  0.102526  0.563828  1
  Si  Si657  1  0.596941  0.769423  0.609085  1
  Si  Si658  1  0.847317  0.397942  0.604854  1
  Si  Si659  1  0.634109  0.360670  0.610087  1
  Si  Si660  1  0.903709  0.231007  0.615600  1
  Si  Si661  1  0.743207  0.371343  0.620187  1
  Si  Si662  1  0.652842  0.092585  0.623108  1
  Si  Si663  1  0.900829  0.461962  0.566494  1
  Si  Si664  1  0.506230  0.589618  0.566766  1
  Si  Si665  1  0.599034  0.263648  0.608451  1
  Si  Si666  1  0.756340  0.629142  0.605254  1
  Si  Si667  1  0.616729  0.535886  0.606180  1
  Si  Si668  1  0.636039  0.858165  0.566389  1
  Si  Si669  1  0.651404  0.603729  0.619551  1
  Si  Si670  1  0.884294  0.463639  0.619915  1
  Si  Si671  1  0.904091  0.959179  0.564852  1
  Si  Si672  1  0.866064  0.638875  0.615533  1
  H  H673  1  0.068963  0.029588  0.129486  1
  H  H674  1  0.304258  0.071569  0.128782  1
  H  H675  1  0.124604  0.105540  0.114551  1
  H  H676  1  0.446097  0.034235  0.114265  1
  H  H677  1  0.226554  0.468596  0.128886  1
  H  H678  1  0.124553  0.430257  0.114675  1
  H  H679  1  0.311876  0.754992  0.126810  1
  H  H680  1  0.438496  0.713239  0.117512  1
  H  H681  1  0.190970  0.741168  0.130196  1
  H  H682  1  0.194340  0.680138  0.114813  1
  H  H683  1  0.906969  0.904595  0.131083  1
  H  H684  1  0.932392  0.165752  0.126897  1
  H  H685  1  0.774622  0.031917  0.114500  1
  H  H686  1  0.622984  0.151964  0.128927  1
  H  H687  1  0.843854  0.474595  0.113119  1
  H  H688  1  0.848302  0.331933  0.117394  1
  H  H689  1  0.975787  0.397023  0.129738  1
  H  H690  1  0.553374  0.467067  0.129840  1
  H  H691  1  0.524754  0.347840  0.115337  1
  H  H692  1  0.682428  0.756497  0.114002  1
  H  H693  1  0.562759  0.588319  0.114831  1
  H  H694  1  0.906235  0.781288  0.127398  1
  H  H695  1  0.819134  0.742285  0.117205  1
  H  H696  1  0.627173  0.819189  0.129370  1
  H  H697  1  0.430712  0.975730  0.643722  1
  H  H698  1  0.197701  0.926995  0.645498  1
  H  H699  1  0.376708  0.898180  0.660270  1
  H  H700  1  0.311421  0.255675  0.645177  1
  H  H701  1  0.188512  0.242863  0.648039  1
  H  H702  1  0.052772  0.967147  0.660171  1
  H  H703  1  0.061730  0.282626  0.657932  1
  H  H704  1  0.271394  0.531784  0.645903  1
  H  H705  1  0.303240  0.319213  0.660321  1
  H  H706  1  0.374657  0.571872  0.659846  1
  H  H707  1  0.568040  0.835186  0.647420  1
  H  H708  1  0.650568  0.668080  0.656605  1
  H  H709  1  0.977432  0.647187  0.660140  1
  H  H710  1  0.875891  0.850689  0.645916  1
  H  H711  1  0.682439  0.257237  0.657470  1
  H  H712  1  0.597905  0.091214  0.645605  1
  H  H713  1  0.816269  0.243310  0.660642  1
  H  H714  1  0.597024  0.212657  0.648435  1
  H  H715  1  0.727391  0.967996  0.660078  1
  H  H716  1  0.875350  0.178391  0.646018  1
  H  H717  1  0.651602  0.531947  0.660178  1
  H  H718  1  0.937058  0.410523  0.660439  1
  H  H719  1  0.522327  0.603420  0.645598  1
  H  H720  1  0.946929  0.532162  0.645225  1
