# generated using pymatgen
data_Si34H2O69
_symmetry_space_group_name_H-M   'P 1'
_cell_length_a   14.05413494
_cell_length_b   13.77403359
_cell_length_c   73.69630920
_cell_angle_alpha   90.00000000
_cell_angle_beta   90.00000000
_cell_angle_gamma   90.00000000
_symmetry_Int_Tables_number   1
_chemical_formula_structural   Si34H2O69
_chemical_formula_sum   'Si136 H8 O276'
_cell_volume   14266.2882682
_cell_formula_units_Z   4
loop_
 _symmetry_equiv_pos_site_id
 _symmetry_equiv_pos_as_xyz
  1  'x, y, z'
loop_
 _atom_site_type_symbol
 _atom_site_label
 _atom_site_symmetry_multiplicity
 _atom_site_fract_x
 _atom_site_fract_y
 _atom_site_fract_z
 _atom_site_occupancy
  O  O1  1  -0.000000  0.337983  0.295978  1
  O  O2  1  0.500420  0.663924  0.326382  1
  O  O3  1  0.584192  0.750958  0.299325  1
  O  O4  1  0.910927  0.249755  0.322255  1
  O  O5  1  0.730466  0.249767  0.370256  1
  O  O6  1  0.667406  0.413527  0.359196  1
  O  O7  1  0.668114  0.085831  0.359084  1
  O  O8  1  0.791425  0.414494  0.381908  1
  O  O9  1  0.791052  0.085041  0.382047  1
  O  O10  1  0.659416  0.837265  0.270934  1
  O  O11  1  0.836769  0.337500  0.350602  1
  O  O12  1  0.836810  0.161770  0.350650  1
  O  O13  1  0.660806  0.661766  0.271027  1
  O  O14  1  0.868741  0.749419  0.408715  1
  O  O15  1  0.828219  0.912760  0.393690  1
  O  O16  1  0.827781  0.586705  0.393494  1
  O  O17  1  0.870449  0.912128  0.425548  1
  O  O18  1  0.870608  0.584695  0.425261  1
  O  O19  1  0.587942  0.583702  0.354079  1
  O  O20  1  0.589217  0.916246  0.353668  1
  O  O21  1  0.750178  0.024700  0.414520  1
  O  O22  1  0.752834  0.473971  0.414597  1
  O  O23  1  0.660114  0.972810  0.384196  1
  O  O24  1  0.659277  0.525584  0.384440  1
  O  O25  1  0.500310  0.842061  0.325859  1
  O  O26  1  0.998835  0.162135  0.295842  1
  O  O27  1  -0.000000  0.871767  0.403153  1
  O  O28  1  0.000000  0.626820  0.402734  1
  O  O29  1  0.503337  0.750945  0.354293  1
  O  O30  1  0.000000  0.249194  0.350217  1
  O  O31  1  0.770513  0.749946  0.252110  1
  O  O32  1  0.770470  0.250832  0.127793  1
  O  O33  1  0.829032  0.914994  0.263402  1
  O  O34  1  0.832366  0.086927  0.116373  1
  O  O35  1  0.830682  0.584649  0.263048  1
  O  O36  1  0.831034  0.416356  0.116864  1
  O  O37  1  0.709906  0.914168  0.239896  1
  O  O38  1  0.710922  0.085251  0.139456  1
  O  O39  1  0.709790  0.586778  0.239753  1
  O  O40  1  0.706698  0.413068  0.139989  1
  O  O41  1  0.630174  0.249804  0.213116  1
  O  O42  1  0.630326  0.749765  0.166483  1
  O  O43  1  0.671965  0.414948  0.227765  1
  O  O44  1  0.671146  0.585065  0.151637  1
  O  O45  1  0.671934  0.085834  0.227936  1
  O  O46  1  0.672412  0.913822  0.151601  1
  O  O47  1  0.628417  0.412151  0.196352  1
  O  O48  1  0.629970  0.585606  0.183199  1
  O  O49  1  0.629239  0.085297  0.196497  1
  O  O50  1  0.628159  0.912026  0.183354  1
  O  O51  1  0.998225  0.750427  0.112107  1
  O  O52  1  0.913711  0.916672  0.111762  1
  O  O53  1  0.912983  0.084872  0.267524  1
  O  O54  1  0.911628  0.585918  0.111652  1
  O  O55  1  0.912247  0.414974  0.268005  1
  O  O56  1  0.750767  0.525499  0.207386  1
  O  O57  1  0.747857  0.473158  0.172284  1
  O  O58  1  0.748008  0.973670  0.207286  1
  O  O59  1  0.748166  0.023969  0.172043  1
  O  O60  1  0.840135  0.473639  0.237663  1
  O  O61  1  0.839563  0.526067  0.142001  1
  O  O62  1  0.840325  0.026568  0.237162  1
  O  O63  1  0.841079  0.972391  0.142196  1
  O  O64  1  0.998025  0.962384  0.251412  1
  O  O65  1  0.000000  0.037478  0.128879  1
  O  O66  1  0.500054  0.872264  0.160711  1
  O  O67  1  0.588961  0.250573  0.080058  1
  O  O68  1  0.663032  0.162724  0.108315  1
  O  O69  1  0.661558  0.338646  0.108583  1
  O  O70  1  0.499517  0.037127  0.370934  1
  O  O71  1  0.499843  0.458981  0.371576  1
  O  O72  1  0.414700  0.751135  0.299469  1
  O  O73  1  0.087413  0.249027  0.322295  1
  O  O74  1  0.268990  0.249118  0.370217  1
  O  O75  1  0.331243  0.085842  0.358822  1
  O  O76  1  0.330942  0.414692  0.359582  1
  O  O77  1  0.208451  0.084992  0.382212  1
  O  O78  1  0.207025  0.412373  0.382048  1
  O  O79  1  0.338328  0.659864  0.271554  1
  O  O80  1  0.161806  0.161047  0.350708  1
  O  O81  1  0.161615  0.336988  0.350676  1
  O  O82  1  0.337603  0.837804  0.270923  1
  O  O83  1  0.129846  0.749016  0.408700  1
  O  O84  1  0.173166  0.584491  0.393706  1
  O  O85  1  0.171439  0.913581  0.394178  1
  O  O86  1  0.127450  0.586408  0.425352  1
  O  O87  1  0.129490  0.913508  0.425330  1
  O  O88  1  0.414917  0.916848  0.354284  1
  O  O89  1  0.416927  0.584008  0.354802  1
  O  O90  1  0.247519  0.473677  0.414291  1
  O  O91  1  0.249196  0.027442  0.414757  1
  O  O92  1  0.343228  0.525818  0.384949  1
  O  O93  1  0.339258  0.974987  0.384657  1
  O  O94  1  0.231655  0.249932  0.127452  1
  O  O95  1  0.229893  0.751075  0.252049  1
  O  O96  1  0.169502  0.415529  0.116813  1
  O  O97  1  0.169256  0.585683  0.263102  1
  O  O98  1  0.168876  0.084472  0.116885  1
  O  O99  1  0.167223  0.915130  0.263568  1
  O  O100  1  0.290952  0.414772  0.139497  1
  O  O101  1  0.292213  0.585631  0.240180  1
  O  O102  1  0.290778  0.085079  0.139488  1
  O  O103  1  0.291414  0.914204  0.239710  1
  O  O104  1  0.369739  0.750418  0.166580  1
  O  O105  1  0.368954  0.250329  0.213160  1
  O  O106  1  0.327332  0.913651  0.151569  1
  O  O107  1  0.327837  0.085622  0.227917  1
  O  O108  1  0.327657  0.586329  0.151675  1
  O  O109  1  0.328856  0.413155  0.228509  1
  O  O110  1  0.370756  0.915317  0.182975  1
  O  O111  1  0.371180  0.088498  0.196126  1
  O  O112  1  0.371410  0.588260  0.183445  1
  O  O113  1  0.370232  0.415295  0.196663  1
  O  O114  1  0.499877  0.372311  0.218908  1
  O  O115  1  -0.000000  0.535843  0.251341  1
  O  O116  1  0.088143  0.415774  0.268136  1
  O  O117  1  0.085563  0.585306  0.112120  1
  O  O118  1  0.087415  0.085227  0.268206  1
  O  O119  1  0.085957  0.914760  0.112226  1
  O  O120  1  0.498788  0.748092  0.270414  1
  O  O121  1  0.251672  0.026540  0.172150  1
  O  O122  1  0.251689  0.975891  0.207427  1
  O  O123  1  0.251800  0.475915  0.172088  1
  O  O124  1  0.252826  0.525765  0.207526  1
  O  O125  1  0.158154  0.972523  0.142550  1
  O  O126  1  0.159545  0.025051  0.237973  1
  O  O127  1  0.158846  0.528262  0.142379  1
  O  O128  1  0.161033  0.473573  0.237811  1
  O  O129  1  -0.000000  0.464332  0.128687  1
  O  O130  1  0.499668  0.127862  0.218739  1
  O  O131  1  -0.000000  0.250619  0.267510  1
  O  O132  1  0.499842  0.627709  0.160925  1
  O  O133  1  0.414823  0.249566  0.080232  1
  O  O134  1  0.337809  0.339575  0.108085  1
  O  O135  1  0.337603  0.159959  0.108096  1
  O  O136  1  0.499181  0.249767  0.108309  1
  O  O137  1  0.001593  0.838105  0.083800  1
  O  O138  1  -0.000000  0.662542  0.083796  1
  O  O139  1  -0.000000  0.337983  0.780758  1
  O  O140  1  0.584192  0.750958  0.784105  1
  O  O141  1  0.659416  0.837265  0.755714  1
  O  O142  1  0.660806  0.661766  0.755807  1
  O  O143  1  0.998835  0.162135  0.780623  1
  O  O144  1  0.770513  0.749946  0.736891  1
  O  O145  1  0.770470  0.250832  0.612573  1
  O  O146  1  0.829032  0.914994  0.748183  1
  O  O147  1  0.832366  0.086927  0.601153  1
  O  O148  1  0.830682  0.584649  0.747829  1
  O  O149  1  0.831034  0.416356  0.601645  1
  O  O150  1  0.709906  0.914168  0.724677  1
  O  O151  1  0.710922  0.085251  0.624236  1
  O  O152  1  0.709790  0.586778  0.724533  1
  O  O153  1  0.706698  0.413068  0.624770  1
  O  O154  1  0.630174  0.249804  0.697897  1
  O  O155  1  0.630326  0.749765  0.651263  1
  O  O156  1  0.671965  0.414948  0.712545  1
  O  O157  1  0.671146  0.585065  0.636417  1
  O  O158  1  0.671934  0.085834  0.712716  1
  O  O159  1  0.672412  0.913822  0.636382  1
  O  O160  1  0.628417  0.412151  0.681133  1
  O  O161  1  0.629970  0.585606  0.667980  1
  O  O162  1  0.629239  0.085297  0.681278  1
  O  O163  1  0.628159  0.912026  0.668135  1
  O  O164  1  0.998225  0.750427  0.596887  1
  O  O165  1  0.913711  0.916672  0.596543  1
  O  O166  1  0.912983  0.084872  0.752304  1
  O  O167  1  0.911628  0.585918  0.596433  1
  O  O168  1  0.912247  0.414974  0.752785  1
  O  O169  1  0.750767  0.525499  0.692167  1
  O  O170  1  0.747857  0.473158  0.657065  1
  O  O171  1  0.748008  0.973670  0.692066  1
  O  O172  1  0.748166  0.023969  0.656824  1
  O  O173  1  0.840135  0.473639  0.722444  1
  O  O174  1  0.839563  0.526067  0.626781  1
  O  O175  1  0.840325  0.026568  0.721942  1
  O  O176  1  0.841079  0.972391  0.626976  1
  O  O177  1  0.998025  0.962384  0.736192  1
  O  O178  1  -0.000000  0.037478  0.613659  1
  O  O179  1  0.500054  0.872264  0.645491  1
  O  O180  1  0.501656  0.337576  0.538354  1
  O  O181  1  0.502160  0.161867  0.538360  1
  O  O182  1  0.914479  0.750666  0.541854  1
  O  O183  1  0.588961  0.250573  0.564839  1
  O  O184  1  0.731915  0.750005  0.494425  1
  O  O185  1  0.668747  0.585357  0.505507  1
  O  O186  1  0.668401  0.914658  0.505327  1
  O  O187  1  0.791884  0.584628  0.482583  1
  O  O188  1  0.791936  0.915306  0.482467  1
  O  O189  1  0.837334  0.660572  0.513958  1
  O  O190  1  0.663032  0.162724  0.593095  1
  O  O191  1  0.661558  0.338646  0.593363  1
  O  O192  1  0.837104  0.840039  0.513902  1
  O  O193  1  0.869231  0.250228  0.455598  1
  O  O194  1  0.828428  0.087432  0.470759  1
  O  O195  1  0.828336  0.412739  0.470910  1
  O  O196  1  0.870197  0.085374  0.438902  1
  O  O197  1  0.871694  0.412423  0.438748  1
  O  O198  1  0.501917  0.249658  0.510002  1
  O  O199  1  0.588671  0.414895  0.510536  1
  O  O200  1  0.588538  0.084730  0.510394  1
  O  O201  1  0.998803  0.750554  0.513777  1
  O  O202  1  0.752479  0.974956  0.449746  1
  O  O203  1  0.753042  0.523168  0.450017  1
  O  O204  1  0.660185  0.026763  0.480046  1
  O  O205  1  0.660227  0.473053  0.480273  1
  O  O206  1  0.000000  0.373062  0.461474  1
  O  O207  1  -0.000000  0.127640  0.461372  1
  O  O208  1  0.414700  0.751135  0.784250  1
  O  O209  1  0.338328  0.659864  0.756334  1
  O  O210  1  0.337603  0.837804  0.755703  1
  O  O211  1  0.231655  0.249932  0.612233  1
  O  O212  1  0.229893  0.751075  0.736829  1
  O  O213  1  0.169502  0.415529  0.601593  1
  O  O214  1  0.169256  0.585683  0.747882  1
  O  O215  1  0.168876  0.084472  0.601665  1
  O  O216  1  0.167223  0.915130  0.748348  1
  O  O217  1  0.290952  0.414772  0.624277  1
  O  O218  1  0.292213  0.585631  0.724960  1
  O  O219  1  0.290778  0.085079  0.624268  1
  O  O220  1  0.291414  0.914204  0.724490  1
  O  O221  1  0.369739  0.750418  0.651360  1
  O  O222  1  0.368954  0.250329  0.697940  1
  O  O223  1  0.327332  0.913651  0.636349  1
  O  O224  1  0.327837  0.085622  0.712698  1
  O  O225  1  0.327657  0.586329  0.636456  1
  O  O226  1  0.328856  0.413155  0.713290  1
  O  O227  1  0.370756  0.915317  0.667756  1
  O  O228  1  0.371180  0.088498  0.680906  1
  O  O229  1  0.371410  0.588260  0.668225  1
  O  O230  1  0.370232  0.415295  0.681444  1
  O  O231  1  0.499877  0.372311  0.703688  1
  O  O232  1  -0.000000  0.535843  0.736121  1
  O  O233  1  0.088143  0.415774  0.752916  1
  O  O234  1  0.085563  0.585306  0.596900  1
  O  O235  1  0.087415  0.085227  0.752986  1
  O  O236  1  0.085957  0.914760  0.597006  1
  O  O237  1  0.498788  0.748092  0.755194  1
  O  O238  1  0.251672  0.026540  0.656930  1
  O  O239  1  0.251689  0.975891  0.692207  1
  O  O240  1  0.251800  0.475915  0.656868  1
  O  O241  1  0.252826  0.525765  0.692306  1
  O  O242  1  0.158154  0.972523  0.627330  1
  O  O243  1  0.159545  0.025051  0.722753  1
  O  O244  1  0.158846  0.528262  0.627160  1
  O  O245  1  0.161033  0.473573  0.722591  1
  O  O246  1  0.000000  0.464332  0.613467  1
  O  O247  1  0.499668  0.127862  0.703519  1
  O  O248  1  -0.000000  0.250619  0.752291  1
  O  O249  1  0.499842  0.627709  0.645705  1
  O  O250  1  0.499364  0.963004  0.493453  1
  O  O251  1  0.088580  0.749813  0.542057  1
  O  O252  1  0.414823  0.249566  0.565012  1
  O  O253  1  0.269691  0.749120  0.494136  1
  O  O254  1  0.331936  0.913135  0.505654  1
  O  O255  1  0.330837  0.585265  0.505716  1
  O  O256  1  0.208526  0.915204  0.482388  1
  O  O257  1  0.204470  0.586154  0.482203  1
  O  O258  1  0.162573  0.837829  0.513688  1
  O  O259  1  0.337809  0.339575  0.592865  1
  O  O260  1  0.337603  0.159959  0.592876  1
  O  O261  1  0.161551  0.661779  0.513552  1
  O  O262  1  0.130428  0.250682  0.455872  1
  O  O263  1  0.170128  0.413365  0.471133  1
  O  O264  1  0.170824  0.087563  0.470851  1
  O  O265  1  0.129065  0.414178  0.439110  1
  O  O266  1  0.129673  0.086899  0.438985  1
  O  O267  1  0.499181  0.249767  0.593090  1
  O  O268  1  0.414797  0.083209  0.510342  1
  O  O269  1  0.414900  0.415917  0.510323  1
  O  O270  1  0.245259  0.525585  0.449758  1
  O  O271  1  0.247070  0.975789  0.449713  1
  O  O272  1  0.337795  0.476013  0.480266  1
  O  O273  1  0.338502  0.025930  0.480086  1
  O  O274  1  0.001593  0.838105  0.568580  1
  O  O275  1  0.000000  0.662542  0.568577  1
  O  O276  1  0.499655  0.537124  0.493700  1
  Si  Si277  1  0.502621  0.857968  0.346630  1
  Si  Si278  1  0.757821  0.355464  0.365045  1
  Si  Si279  1  0.757768  0.144025  0.365081  1
  Si  Si280  1  0.891777  0.859628  0.407520  1
  Si  Si281  1  0.892746  0.639930  0.407157  1
  Si  Si282  1  0.756584  0.997454  0.394196  1
  Si  Si283  1  0.756546  0.501271  0.393941  1
  Si  Si284  1  0.600455  0.495937  0.366931  1
  Si  Si285  1  0.603266  0.002713  0.366632  1
  Si  Si286  1  0.600130  0.749085  0.278325  1
  Si  Si287  1  0.894735  0.249572  0.342896  1
  Si  Si288  1  0.502857  0.643634  0.347205  1
  Si  Si289  1  -0.000000  0.249576  0.309708  1
  Si  Si290  1  0.808110  0.998174  0.431635  1
  Si  Si291  1  0.893687  0.005146  0.124800  1
  Si  Si292  1  0.690734  0.997765  0.189577  1
  Si  Si293  1  0.692051  0.497851  0.190363  1
  Si  Si294  1  0.896714  0.498707  0.124463  1
  Si  Si295  1  0.895897  0.502260  0.255321  1
  Si  Si296  1  0.741709  0.856278  0.257053  1
  Si  Si297  1  0.743851  0.144190  0.122509  1
  Si  Si298  1  0.741803  0.643908  0.256953  1
  Si  Si299  1  0.741345  0.357676  0.123032  1
  Si  Si300  1  0.606364  0.359158  0.214268  1
  Si  Si301  1  0.606286  0.640867  0.165202  1
  Si  Si302  1  0.606113  0.140941  0.214426  1
  Si  Si303  1  0.606685  0.859283  0.165334  1
  Si  Si304  1  0.745027  0.500167  0.227762  1
  Si  Si305  1  0.743654  0.498834  0.151475  1
  Si  Si306  1  0.745379  -0.000000  0.227972  1
  Si  Si307  1  0.746199  0.998645  0.151322  1
  Si  Si308  1  0.891512  0.995528  0.254832  1
  Si  Si309  1  -0.000000  0.856156  0.104655  1
  Si  Si310  1  0.998379  0.643890  0.104766  1
  Si  Si311  1  0.603765  0.250485  0.100800  1
  Si  Si312  1  -0.000000  0.358330  0.274849  1
  Si  Si313  1  0.103709  0.248934  0.342942  1
  Si  Si314  1  0.396960  0.748261  0.278339  1
  Si  Si315  1  0.398108  0.495273  0.367733  1
  Si  Si316  1  0.242048  0.142392  0.365064  1
  Si  Si317  1  0.240532  0.355598  0.365249  1
  Si  Si318  1  0.106361  0.639591  0.407312  1
  Si  Si319  1  0.105650  0.857816  0.407516  1
  Si  Si320  1  0.246628  0.497843  0.393323  1
  Si  Si321  1  0.243663  -0.000000  0.394480  1
  Si  Si322  1  0.394408  0.005347  0.367100  1
  Si  Si323  1  0.191722  -0.000000  0.431884  1
  Si  Si324  1  0.189940  0.500867  0.431793  1
  Si  Si325  1  0.000000  0.143580  0.274839  1
  Si  Si326  1  0.499940  0.752935  0.313249  1
  Si  Si327  1  0.259557  0.355994  0.122382  1
  Si  Si328  1  0.259438  0.644876  0.257260  1
  Si  Si329  1  0.259210  0.143777  0.122376  1
  Si  Si330  1  0.255840  0.859581  0.256725  1
  Si  Si331  1  0.393647  0.859222  0.165090  1
  Si  Si332  1  0.392990  0.140799  0.214179  1
  Si  Si333  1  0.393174  0.640925  0.165427  1
  Si  Si334  1  0.392798  0.359704  0.214705  1
  Si  Si335  1  0.253918  -0.000000  0.151455  1
  Si  Si336  1  0.255153  0.000000  0.228189  1
  Si  Si337  1  0.254177  0.501144  0.151351  1
  Si  Si338  1  0.257442  0.498390  0.228180  1
  Si  Si339  1  0.105524  0.497454  0.125001  1
  Si  Si340  1  0.104489  0.502790  0.255372  1
  Si  Si341  1  0.104661  0.002833  0.125138  1
  Si  Si342  1  0.103242  0.996400  0.255707  1
  Si  Si343  1  0.308876  0.002585  0.189878  1
  Si  Si344  1  0.308817  0.502482  0.189639  1
  Si  Si345  1  0.393243  0.249690  0.101188  1
  Si  Si346  1  0.600130  0.749085  0.763105  1
  Si  Si347  1  0.893687  0.005146  0.609580  1
  Si  Si348  1  0.690734  0.997765  0.674358  1
  Si  Si349  1  0.692051  0.497851  0.675143  1
  Si  Si350  1  0.896714  0.498707  0.609244  1
  Si  Si351  1  0.895897  0.502260  0.740102  1
  Si  Si352  1  0.741709  0.856278  0.741833  1
  Si  Si353  1  0.743851  0.144190  0.607289  1
  Si  Si354  1  0.741803  0.643908  0.741733  1
  Si  Si355  1  0.741345  0.357676  0.607812  1
  Si  Si356  1  0.606364  0.359158  0.699049  1
  Si  Si357  1  0.606286  0.640867  0.649983  1
  Si  Si358  1  0.606113  0.140941  0.699207  1
  Si  Si359  1  0.606685  0.859283  0.650114  1
  Si  Si360  1  0.745027  0.500167  0.712542  1
  Si  Si361  1  0.743654  0.498834  0.636255  1
  Si  Si362  1  0.745379  -0.000000  0.712752  1
  Si  Si363  1  0.746199  0.998645  0.636102  1
  Si  Si364  1  0.891512  0.995528  0.739613  1
  Si  Si365  1  0.000000  0.856156  0.589435  1
  Si  Si366  1  0.998379  0.643890  0.589546  1
  Si  Si367  1  0.502103  0.142885  0.517402  1
  Si  Si368  1  0.759185  0.643840  0.499623  1
  Si  Si369  1  0.759051  0.856342  0.499528  1
  Si  Si370  1  0.893061  0.140727  0.457034  1
  Si  Si371  1  0.892324  0.360460  0.456931  1
  Si  Si372  1  0.756809  0.002260  0.470458  1
  Si  Si373  1  0.756757  0.497384  0.470681  1
  Si  Si374  1  0.603638  0.502542  0.497819  1
  Si  Si375  1  0.603422  0.997400  0.497583  1
  Si  Si376  1  0.892823  0.750446  0.520881  1
  Si  Si377  1  0.603765  0.250485  0.585580  1
  Si  Si378  1  0.502174  0.356418  0.517401  1
  Si  Si379  1  0.502563  0.249771  0.551869  1
  Si  Si380  1  0.809392  0.497695  0.432365  1
  Si  Si381  1  0.000000  0.358330  0.759629  1
  Si  Si382  1  0.396960  0.748261  0.763119  1
  Si  Si383  1  -0.000000  0.143580  0.759619  1
  Si  Si384  1  0.259557  0.355994  0.607162  1
  Si  Si385  1  0.259438  0.644876  0.742040  1
  Si  Si386  1  0.259210  0.143777  0.607157  1
  Si  Si387  1  0.255840  0.859581  0.741506  1
  Si  Si388  1  0.393647  0.859222  0.649870  1
  Si  Si389  1  0.392990  0.140799  0.698959  1
  Si  Si390  1  0.393174  0.640925  0.650207  1
  Si  Si391  1  0.392798  0.359704  0.699485  1
  Si  Si392  1  0.253918  0.000000  0.636236  1
  Si  Si393  1  0.255153  0.000000  0.712969  1
  Si  Si394  1  0.254177  0.501144  0.636131  1
  Si  Si395  1  0.257442  0.498390  0.712961  1
  Si  Si396  1  0.105524  0.497454  0.609781  1
  Si  Si397  1  0.104489  0.502790  0.740152  1
  Si  Si398  1  0.104661  0.002833  0.609918  1
  Si  Si399  1  0.103242  0.996400  0.740487  1
  Si  Si400  1  0.308876  0.002585  0.674659  1
  Si  Si401  1  0.308817  0.502482  0.674420  1
  Si  Si402  1  0.393243  0.249690  0.585968  1
  Si  Si403  1  0.242904  0.856368  0.499359  1
  Si  Si404  1  0.241782  0.641050  0.499019  1
  Si  Si405  1  0.106929  0.360081  0.457305  1
  Si  Si406  1  0.106803  0.141210  0.457119  1
  Si  Si407  1  0.240240  0.499845  0.470688  1
  Si  Si408  1  0.242215  0.002478  0.470346  1
  Si  Si409  1  0.394453  0.994819  0.497564  1
  Si  Si410  1  0.394970  0.504983  0.497754  1
  Si  Si411  1  0.103425  0.750226  0.521303  1
  Si  Si412  1  0.002165  0.750407  0.555044  1
  H  H413  1  0.588961  0.250573  0.067846  1
  H  H414  1  0.414823  0.249566  0.068020  1
  H  H415  1  0.001593  0.838105  0.071588  1
  H  H416  1  -0.000000  0.662542  0.071584  1
  H  H417  1  0.000000  0.337983  0.792971  1
  H  H418  1  0.584192  0.750958  0.796318  1
  H  H419  1  0.998835  0.162135  0.792835  1
  H  H420  1  0.414700  0.751135  0.796462  1
