# generated using pymatgen
data_Si4H2O9
_symmetry_space_group_name_H-M   'P 1'
_cell_length_a   8.62848311
_cell_length_b   5.07745059
_cell_length_c   30.45391317
_cell_angle_alpha   90.00000000
_cell_angle_beta   90.00000000
_cell_angle_gamma   90.00000000
_symmetry_Int_Tables_number   1
_chemical_formula_structural   Si4H2O9
_chemical_formula_sum   'Si8 H4 O18'
_cell_volume   1334.2071519
_cell_formula_units_Z   2
loop_
 _symmetry_equiv_pos_site_id
 _symmetry_equiv_pos_as_xyz
  1  'x, y, z'
loop_
 _atom_site_type_symbol
 _atom_site_label
 _atom_site_symmetry_multiplicity
 _atom_site_fract_x
 _atom_site_fract_y
 _atom_site_fract_z
 _atom_site_occupancy
  O  O1  1  0.794314  0.046155  0.193735  1
  O  O2  1  0.268783  0.242915  0.260823  1
  O  O3  1  0.733884  0.748820  0.411781  1
  O  O4  1  0.265645  0.155187  0.402858  1
  O  O5  1  0.734026  0.846656  0.268717  1
  O  O6  1  0.767385  0.248819  0.401181  1
  O  O7  1  0.229359  0.742918  0.269549  1
  O  O8  1  0.764016  0.346666  0.260746  1
  O  O9  1  0.235683  0.655188  0.411014  1
  O  O10  1  0.205393  0.956484  0.194421  1
  O  O11  1  0.705463  0.546121  0.335804  1
  O  O12  1  0.000000  0.957987  0.419302  1
  O  O13  1  0.498532  0.543877  0.277576  1
  O  O14  1  0.794314  0.046155  0.477214  1
  O  O15  1  0.294194  0.456534  0.335895  1
  O  O16  1  -0.000000  0.043848  0.252382  1
  O  O17  1  0.501067  0.457927  0.394080  1
  O  O18  1  0.205393  0.956484  0.477900  1
  Si  Si19  1  0.176728  0.996540  0.244648  1
  Si  Si20  1  0.678156  0.500473  0.385982  1
  Si  Si21  1  0.178023  0.929743  0.427385  1
  Si  Si22  1  0.676782  0.572348  0.285323  1
  Si  Si23  1  0.822741  0.000000  0.427084  1
  Si  Si24  1  0.321765  0.496603  0.285618  1
  Si  Si25  1  0.821731  0.072345  0.244273  1
  Si  Si26  1  0.322835  0.429741  0.386356  1
  H  H27  1  0.794314  0.046155  0.164183  1
  H  H28  1  0.205393  0.956484  0.164868  1
  H  H29  1  0.794314  0.046155  0.506767  1
  H  H30  1  0.205393  0.956484  0.507452  1
