# generated using pymatgen
data_Si12H2O25
_symmetry_space_group_name_H-M   'P 1'
_cell_length_a   8.62848311
_cell_length_b   5.07745059
_cell_length_c   47.71997291
_cell_angle_alpha   90.00000000
_cell_angle_beta   90.00000000
_cell_angle_gamma   90.00000000
_symmetry_Int_Tables_number   1
_chemical_formula_structural   Si12H2O25
_chemical_formula_sum   'Si24 H4 O50'
_cell_volume   2090.64525764
_cell_formula_units_Z   2
loop_
 _symmetry_equiv_pos_site_id
 _symmetry_equiv_pos_as_xyz
  1  'x, y, z'
loop_
 _atom_site_type_symbol
 _atom_site_label
 _atom_site_symmetry_multiplicity
 _atom_site_fract_x
 _atom_site_fract_y
 _atom_site_fract_z
 _atom_site_occupancy
  O  O1  1  0.794314  0.046155  0.123638  1
  O  O2  1  0.268783  0.242915  0.166452  1
  O  O3  1  0.733884  0.748820  0.262790  1
  O  O4  1  0.265645  0.155187  0.257096  1
  O  O5  1  0.734026  0.846656  0.171490  1
  O  O6  1  0.767385  0.248819  0.256026  1
  O  O7  1  0.229359  0.742918  0.172021  1
  O  O8  1  0.764016  0.346666  0.166403  1
  O  O9  1  0.235683  0.655188  0.262301  1
  O  O10  1  0.205393  0.956484  0.124076  1
  O  O11  1  0.705463  0.546121  0.214303  1
  O  O12  1  -0.000000  0.957987  0.267590  1
  O  O13  1  0.498532  0.543877  0.177143  1
  O  O14  1  0.794314  0.046155  0.304548  1
  O  O15  1  0.294194  0.456534  0.214362  1
  O  O16  1  -0.000000  0.043848  0.161065  1
  O  O17  1  0.501067  0.457927  0.251494  1
  O  O18  1  0.268783  0.242915  0.347362  1
  O  O19  1  0.733884  0.748820  0.443700  1
  O  O20  1  0.265645  0.155187  0.438006  1
  O  O21  1  0.734026  0.846656  0.352400  1
  O  O22  1  0.767385  0.248819  0.436936  1
  O  O23  1  0.229359  0.742918  0.352931  1
  O  O24  1  0.764016  0.346666  0.347313  1
  O  O25  1  0.235683  0.655188  0.443211  1
  O  O26  1  0.205393  0.956484  0.304986  1
  O  O27  1  0.705463  0.546121  0.395214  1
  O  O28  1  -0.000000  0.957987  0.448500  1
  O  O29  1  0.498532  0.543877  0.358053  1
  O  O30  1  0.794314  0.046155  0.485458  1
  O  O31  1  0.294194  0.456534  0.395272  1
  O  O32  1  -0.000000  0.043848  0.341975  1
  O  O33  1  0.501067  0.457927  0.432404  1
  O  O34  1  0.268783  0.242915  0.528273  1
  O  O35  1  0.733884  0.748820  0.624610  1
  O  O36  1  0.265645  0.155187  0.618916  1
  O  O37  1  0.734026  0.846656  0.533310  1
  O  O38  1  0.767385  0.248819  0.617846  1
  O  O39  1  0.229359  0.742918  0.533841  1
  O  O40  1  0.764016  0.346666  0.528223  1
  O  O41  1  0.235683  0.655188  0.624121  1
  O  O42  1  0.205393  0.956484  0.485896  1
  O  O43  1  0.705463  0.546121  0.576124  1
  O  O44  1  -0.000000  0.957987  0.629411  1
  O  O45  1  0.498532  0.543877  0.538963  1
  O  O46  1  0.794314  0.046155  0.666369  1
  O  O47  1  0.294194  0.456534  0.576182  1
  O  O48  1  -0.000000  0.043848  0.522886  1
  O  O49  1  0.501067  0.457927  0.613314  1
  O  O50  1  0.205393  0.956484  0.666806  1
  Si  Si51  1  0.176728  0.996540  0.156129  1
  Si  Si52  1  0.678156  0.500473  0.246326  1
  Si  Si53  1  0.178023  0.929743  0.272748  1
  Si  Si54  1  0.676782  0.572348  0.182087  1
  Si  Si55  1  0.822741  -0.000000  0.272557  1
  Si  Si56  1  0.321765  0.496603  0.182276  1
  Si  Si57  1  0.821731  0.072345  0.155890  1
  Si  Si58  1  0.322835  0.429741  0.246564  1
  Si  Si59  1  0.176728  0.996540  0.337039  1
  Si  Si60  1  0.678156  0.500473  0.427236  1
  Si  Si61  1  0.178023  0.929743  0.453658  1
  Si  Si62  1  0.676782  0.572348  0.362997  1
  Si  Si63  1  0.822741  -0.000000  0.453467  1
  Si  Si64  1  0.321765  0.496603  0.363186  1
  Si  Si65  1  0.821731  0.072345  0.336800  1
  Si  Si66  1  0.322835  0.429741  0.427474  1
  Si  Si67  1  0.176728  0.996540  0.517950  1
  Si  Si68  1  0.678156  0.500473  0.608146  1
  Si  Si69  1  0.178023  0.929743  0.634569  1
  Si  Si70  1  0.676782  0.572348  0.543908  1
  Si  Si71  1  0.822741  -0.000000  0.634377  1
  Si  Si72  1  0.321765  0.496603  0.544096  1
  Si  Si73  1  0.821731  0.072345  0.517711  1
  Si  Si74  1  0.322835  0.429741  0.608385  1
  H  H75  1  0.794314  0.046155  0.104778  1
  H  H76  1  0.205393  0.956484  0.105216  1
  H  H77  1  0.794314  0.046155  0.685229  1
  H  H78  1  0.205393  0.956484  0.685666  1
