# generated using pymatgen
data_Si11H2O23
_symmetry_space_group_name_H-M   'P 1'
_cell_length_a   14.05413494
_cell_length_b   13.77403359
_cell_length_c   37.96978784
_cell_angle_alpha   90.00000000
_cell_angle_beta   90.00000000
_cell_angle_gamma   90.00000000
_symmetry_Int_Tables_number   1
_chemical_formula_structural   Si11H2O23
_chemical_formula_sum   'Si44 H8 O92'
_cell_volume   7350.2722822
_cell_formula_units_Z   4
loop_
 _symmetry_equiv_pos_site_id
 _symmetry_equiv_pos_as_xyz
  1  'x, y, z'
loop_
 _atom_site_type_symbol
 _atom_site_label
 _atom_site_symmetry_multiplicity
 _atom_site_fract_x
 _atom_site_fract_y
 _atom_site_fract_z
 _atom_site_occupancy
  O  O1  1  -0.000000  0.337983  0.574470  1
  O  O2  1  0.584192  0.750958  0.580966  1
  O  O3  1  0.659416  0.837265  0.525861  1
  O  O4  1  0.660806  0.661766  0.526041  1
  O  O5  1  0.998835  0.162135  0.574206  1
  O  O6  1  0.770513  0.749946  0.489326  1
  O  O7  1  0.770470  0.250832  0.248036  1
  O  O8  1  0.829032  0.914994  0.511243  1
  O  O9  1  0.832366  0.086927  0.225870  1
  O  O10  1  0.830682  0.584649  0.510556  1
  O  O11  1  0.831034  0.416356  0.226824  1
  O  O12  1  0.709906  0.914168  0.465619  1
  O  O13  1  0.710922  0.085251  0.270672  1
  O  O14  1  0.709790  0.586778  0.465341  1
  O  O15  1  0.706698  0.413068  0.271708  1
  O  O16  1  0.630174  0.249804  0.413642  1
  O  O17  1  0.630326  0.749765  0.323130  1
  O  O18  1  0.671965  0.414948  0.442073  1
  O  O19  1  0.671146  0.585065  0.294314  1
  O  O20  1  0.671934  0.085834  0.442405  1
  O  O21  1  0.672412  0.913822  0.294246  1
  O  O22  1  0.628417  0.412151  0.381104  1
  O  O23  1  0.629970  0.585606  0.355575  1
  O  O24  1  0.629239  0.085297  0.381385  1
  O  O25  1  0.628159  0.912026  0.355876  1
  O  O26  1  0.998225  0.750427  0.217590  1
  O  O27  1  0.913711  0.916672  0.216922  1
  O  O28  1  0.912983  0.084872  0.519242  1
  O  O29  1  0.911628  0.585918  0.216708  1
  O  O30  1  0.912247  0.414974  0.520176  1
  O  O31  1  0.750767  0.525499  0.402520  1
  O  O32  1  0.747857  0.473158  0.334390  1
  O  O33  1  0.748008  0.973670  0.402325  1
  O  O34  1  0.748166  0.023969  0.333922  1
  O  O35  1  0.840135  0.473639  0.461285  1
  O  O36  1  0.839563  0.526067  0.275613  1
  O  O37  1  0.840325  0.026568  0.460312  1
  O  O38  1  0.841079  0.972391  0.275991  1
  O  O39  1  0.998025  0.962384  0.487970  1
  O  O40  1  0.000000  0.037478  0.250143  1
  O  O41  1  0.500054  0.872264  0.311927  1
  O  O42  1  0.588961  0.250573  0.155387  1
  O  O43  1  0.663032  0.162724  0.210230  1
  O  O44  1  0.661558  0.338646  0.210750  1
  O  O45  1  0.414700  0.751135  0.581246  1
  O  O46  1  0.338328  0.659864  0.527064  1
  O  O47  1  0.337603  0.837804  0.525840  1
  O  O48  1  0.231655  0.249932  0.247375  1
  O  O49  1  0.229893  0.751075  0.489207  1
  O  O50  1  0.169502  0.415529  0.226724  1
  O  O51  1  0.169256  0.585683  0.510660  1
  O  O52  1  0.168876  0.084472  0.226864  1
  O  O53  1  0.167223  0.915130  0.511563  1
  O  O54  1  0.290952  0.414772  0.270752  1
  O  O55  1  0.292213  0.585631  0.466170  1
  O  O56  1  0.290778  0.085079  0.270735  1
  O  O57  1  0.291414  0.914204  0.465258  1
  O  O58  1  0.369739  0.750418  0.323318  1
  O  O59  1  0.368954  0.250329  0.413726  1
  O  O60  1  0.327332  0.913651  0.294183  1
  O  O61  1  0.327837  0.085622  0.442369  1
  O  O62  1  0.327657  0.586329  0.294390  1
  O  O63  1  0.328856  0.413155  0.443518  1
  O  O64  1  0.370756  0.915317  0.355140  1
  O  O65  1  0.371180  0.088498  0.380665  1
  O  O66  1  0.371410  0.588260  0.356052  1
  O  O67  1  0.370232  0.415295  0.381708  1
  O  O68  1  0.499877  0.372311  0.424883  1
  O  O69  1  -0.000000  0.535843  0.487832  1
  O  O70  1  0.088143  0.415774  0.520431  1
  O  O71  1  0.085563  0.585306  0.217615  1
  O  O72  1  0.087415  0.085227  0.520566  1
  O  O73  1  0.085957  0.914760  0.217821  1
  O  O74  1  0.498788  0.748092  0.524851  1
  O  O75  1  0.251672  0.026540  0.334129  1
  O  O76  1  0.251689  0.975891  0.402599  1
  O  O77  1  0.251800  0.475915  0.334008  1
  O  O78  1  0.252826  0.525765  0.402791  1
  O  O79  1  0.158154  0.972523  0.276678  1
  O  O80  1  0.159545  0.025051  0.461886  1
  O  O81  1  0.158846  0.528262  0.276347  1
  O  O82  1  0.161033  0.473573  0.461572  1
  O  O83  1  0.000000  0.464332  0.249770  1
  O  O84  1  0.499668  0.127862  0.424555  1
  O  O85  1  -0.000000  0.250619  0.519216  1
  O  O86  1  0.499842  0.627709  0.312342  1
  O  O87  1  0.414823  0.249566  0.155724  1
  O  O88  1  0.337809  0.339575  0.209784  1
  O  O89  1  0.337603  0.159959  0.209805  1
  O  O90  1  0.499181  0.249767  0.210220  1
  O  O91  1  0.001593  0.838105  0.162649  1
  O  O92  1  -0.000000  0.662542  0.162642  1
  Si  Si93  1  0.600130  0.749085  0.540206  1
  Si  Si94  1  0.893687  0.005146  0.242226  1
  Si  Si95  1  0.690734  0.997765  0.367955  1
  Si  Si96  1  0.692051  0.497851  0.369479  1
  Si  Si97  1  0.896714  0.498707  0.241573  1
  Si  Si98  1  0.895897  0.502260  0.495558  1
  Si  Si99  1  0.741709  0.856278  0.498919  1
  Si  Si100  1  0.743851  0.144190  0.237780  1
  Si  Si101  1  0.741803  0.643908  0.498725  1
  Si  Si102  1  0.741345  0.357676  0.238795  1
  Si  Si103  1  0.606364  0.359158  0.415877  1
  Si  Si104  1  0.606286  0.640867  0.320644  1
  Si  Si105  1  0.606113  0.140941  0.416184  1
  Si  Si106  1  0.606685  0.859283  0.320899  1
  Si  Si107  1  0.745027  0.500167  0.442067  1
  Si  Si108  1  0.743654  0.498834  0.294000  1
  Si  Si109  1  0.745379  0.000000  0.442474  1
  Si  Si110  1  0.746199  0.998645  0.293704  1
  Si  Si111  1  0.891512  0.995528  0.494609  1
  Si  Si112  1  0.000000  0.856156  0.203126  1
  Si  Si113  1  0.998379  0.643890  0.203343  1
  Si  Si114  1  0.603765  0.250485  0.195644  1
  Si  Si115  1  -0.000000  0.358330  0.533460  1
  Si  Si116  1  0.396960  0.748261  0.540233  1
  Si  Si117  1  0.000000  0.143580  0.533441  1
  Si  Si118  1  0.259557  0.355994  0.237533  1
  Si  Si119  1  0.259438  0.644876  0.499320  1
  Si  Si120  1  0.259210  0.143777  0.237522  1
  Si  Si121  1  0.255840  0.859581  0.498283  1
  Si  Si122  1  0.393647  0.859222  0.320426  1
  Si  Si123  1  0.392990  0.140799  0.415704  1
  Si  Si124  1  0.393174  0.640925  0.321081  1
  Si  Si125  1  0.392798  0.359704  0.416725  1
  Si  Si126  1  0.253918  0.000000  0.293963  1
  Si  Si127  1  0.255153  0.000000  0.442896  1
  Si  Si128  1  0.254177  0.501144  0.293760  1
  Si  Si129  1  0.257442  0.498390  0.442880  1
  Si  Si130  1  0.105524  0.497454  0.242617  1
  Si  Si131  1  0.104489  0.502790  0.495656  1
  Si  Si132  1  0.104661  0.002833  0.242883  1
  Si  Si133  1  0.103242  0.996400  0.496306  1
  Si  Si134  1  0.308876  0.002585  0.368539  1
  Si  Si135  1  0.308817  0.502482  0.368075  1
  Si  Si136  1  0.393243  0.249690  0.196398  1
  H  H137  1  0.000000  0.337983  0.598173  1
  H  H138  1  0.584192  0.750958  0.604669  1
  H  H139  1  0.998835  0.162135  0.597909  1
  H  H140  1  0.588961  0.250573  0.131684  1
  H  H141  1  0.414700  0.751135  0.604949  1
  H  H142  1  0.414823  0.249566  0.132020  1
  H  H143  1  0.001593  0.838105  0.138946  1
  H  H144  1  -0.000000  0.662542  0.138939  1
