# generated using pymatgen
data_Si4H2O9
_symmetry_space_group_name_H-M   'P 1'
_cell_length_a   19.95132824
_cell_length_b   12.61157101
_cell_length_c   28.64420233
_cell_angle_alpha   90.00000000
_cell_angle_beta   90.00000000
_cell_angle_gamma   90.00000000
_symmetry_Int_Tables_number   1
_chemical_formula_structural   Si4H2O9
_chemical_formula_sum   'Si32 H16 O72'
_cell_volume   7207.38523839
_cell_formula_units_Z   8
loop_
 _symmetry_equiv_pos_site_id
 _symmetry_equiv_pos_as_xyz
  1  'x, y, z'
loop_
 _atom_site_type_symbol
 _atom_site_label
 _atom_site_symmetry_multiplicity
 _atom_site_fract_x
 _atom_site_fract_y
 _atom_site_fract_z
 _atom_site_occupancy
  O  O1  1  0.698153  0.919197  0.206786  1
  O  O2  1  0.801758  0.419196  0.444086  1
  O  O3  1  0.698181  0.080832  0.444077  1
  O  O4  1  0.801755  0.580832  0.206798  1
  O  O5  1  0.598407  0.571752  0.205982  1
  O  O6  1  0.901503  0.071796  0.444904  1
  O  O7  1  0.598413  0.428236  0.444914  1
  O  O8  1  0.901533  0.928273  0.205975  1
  O  O9  1  0.696254  0.074898  0.271241  1
  O  O10  1  0.803627  0.574874  0.379626  1
  O  O11  1  0.696306  0.925154  0.379617  1
  O  O12  1  0.803646  0.425131  0.271249  1
  O  O13  1  0.699252  0.120802  0.356710  1
  O  O14  1  0.800629  0.620775  0.294155  1
  O  O15  1  0.699303  0.879251  0.294146  1
  O  O16  1  0.800647  0.379223  0.356720  1
  O  O17  1  0.623512  0.234820  0.303616  1
  O  O18  1  0.876375  0.734805  0.347257  1
  O  O19  1  0.623526  0.765261  0.347254  1
  O  O20  1  0.876413  0.265241  0.303616  1
  O  O21  1  0.749963  0.250006  0.299228  1
  O  O22  1  0.749949  0.750004  0.351638  1
  O  O23  1  0.595888  0.421703  0.272133  1
  O  O24  1  0.903979  0.921715  0.378756  1
  O  O25  1  0.595939  0.578346  0.378771  1
  O  O26  1  0.904022  0.078355  0.272117  1
  O  O27  1  0.595361  0.385556  0.358098  1
  O  O28  1  0.904497  0.885573  0.292791  1
  O  O29  1  0.595397  0.614482  0.292803  1
  O  O30  1  0.904580  0.114500  0.358083  1
  O  O31  1  -0.000000  0.812219  0.342617  1
  O  O32  1  0.799706  0.964904  0.258123  1
  O  O33  1  0.700209  0.464767  0.392727  1
  O  O34  1  0.799716  0.035314  0.392700  1
  O  O35  1  0.700204  0.535169  0.258152  1
  O  O36  1  -0.000000  0.187810  0.308238  1
  O  O37  1  0.301760  0.919052  0.206812  1
  O  O38  1  0.198180  0.419098  0.444087  1
  O  O39  1  0.301752  0.080697  0.444100  1
  O  O40  1  0.198160  0.580720  0.206790  1
  O  O41  1  0.401531  0.571671  0.205981  1
  O  O42  1  0.098383  0.071715  0.444903  1
  O  O43  1  0.401514  0.428155  0.444908  1
  O  O44  1  0.098433  0.928176  0.205977  1
  O  O45  1  0.303681  0.074707  0.271274  1
  O  O46  1  0.196198  0.574745  0.379619  1
  O  O47  1  0.303590  0.924972  0.379652  1
  O  O48  1  0.196360  0.425009  0.271245  1
  O  O49  1  0.300654  0.120623  0.356741  1
  O  O50  1  0.199208  0.620664  0.294154  1
  O  O51  1  0.300616  0.879063  0.294179  1
  O  O52  1  0.199359  0.379106  0.356721  1
  O  O53  1  0.376419  0.234655  0.303641  1
  O  O54  1  0.123466  0.734708  0.347259  1
  O  O55  1  0.376366  0.765094  0.347284  1
  O  O56  1  0.123570  0.265156  0.303620  1
  O  O57  1  0.249997  0.249843  0.299237  1
  O  O58  1  0.249912  0.749845  0.351654  1
  O  O59  1  0.403948  0.421592  0.272128  1
  O  O60  1  0.095895  0.921628  0.378760  1
  O  O61  1  0.404064  0.578234  0.378766  1
  O  O62  1  0.095932  0.078266  0.272118  1
  O  O63  1  0.404481  0.385457  0.358093  1
  O  O64  1  0.095372  0.885484  0.292796  1
  O  O65  1  0.404587  0.614386  0.292801  1
  O  O66  1  0.095384  0.114414  0.358083  1
  O  O67  1  0.499972  0.687803  0.342637  1
  O  O68  1  0.200218  0.964717  0.258168  1
  O  O69  1  0.299713  0.464899  0.392749  1
  O  O70  1  0.200193  0.035124  0.392743  1
  O  O71  1  0.299715  0.535284  0.258166  1
  O  O72  1  0.499943  0.312207  0.308269  1
  Si  Si73  1  0.622133  0.466660  0.395185  1
  Si  Si74  1  0.877784  0.966703  0.255695  1
  Si  Si75  1  0.690718  0.170137  0.306753  1
  Si  Si76  1  0.809175  0.670107  0.344112  1
  Si  Si77  1  0.690739  0.829927  0.344103  1
  Si  Si78  1  0.809195  0.329895  0.306761  1
  Si  Si79  1  0.577272  0.334879  0.309678  1
  Si  Si80  1  0.922595  0.834893  0.341208  1
  Si  Si81  1  0.577308  0.665162  0.341223  1
  Si  Si82  1  0.922654  0.165175  0.309659  1
  Si  Si83  1  0.721490  0.961645  0.256009  1
  Si  Si84  1  0.778426  0.461601  0.394854  1
  Si  Si85  1  0.721499  0.038434  0.394842  1
  Si  Si86  1  0.778422  0.538391  0.256021  1
  Si  Si87  1  0.622128  0.533354  0.255713  1
  Si  Si88  1  0.877791  0.033405  0.395168  1
  Si  Si89  1  0.122143  0.966588  0.255709  1
  Si  Si90  1  0.309221  0.169948  0.306784  1
  Si  Si91  1  0.190662  0.669994  0.344112  1
  Si  Si92  1  0.309145  0.829738  0.344139  1
  Si  Si93  1  0.190796  0.329789  0.306763  1
  Si  Si94  1  0.422603  0.334792  0.309676  1
  Si  Si95  1  0.077262  0.834815  0.341213  1
  Si  Si96  1  0.422646  0.665080  0.341223  1
  Si  Si97  1  0.077318  0.165102  0.309661  1
  Si  Si98  1  0.278434  0.961462  0.256043  1
  Si  Si99  1  0.221496  0.461532  0.394858  1
  Si  Si100  1  0.278410  0.038260  0.394875  1
  Si  Si101  1  0.221497  0.538320  0.256023  1
  Si  Si102  1  0.377790  0.533298  0.255714  1
  Si  Si103  1  0.122116  0.033294  0.395177  1
  Si  Si104  1  0.377789  0.466603  0.395185  1
  H  H105  1  0.698153  0.919197  0.175366  1
  H  H106  1  0.801758  0.419196  0.475506  1
  H  H107  1  0.698181  0.080832  0.475497  1
  H  H108  1  0.801755  0.580832  0.175378  1
  H  H109  1  0.598407  0.571752  0.174562  1
  H  H110  1  0.901503  0.071796  0.476324  1
  H  H111  1  0.598413  0.428236  0.476334  1
  H  H112  1  0.901533  0.928273  0.174555  1
  H  H113  1  0.301760  0.919052  0.175392  1
  H  H114  1  0.198180  0.419098  0.475507  1
  H  H115  1  0.301752  0.080697  0.475520  1
  H  H116  1  0.198160  0.580720  0.175370  1
  H  H117  1  0.401531  0.571671  0.174561  1
  H  H118  1  0.098383  0.071715  0.476323  1
  H  H119  1  0.401514  0.428155  0.476328  1
  H  H120  1  0.098433  0.928176  0.174557  1
