# generated using pymatgen
data_Si10H2O21
_symmetry_space_group_name_H-M   'P 1'
_cell_length_a   5.05429154
_cell_length_b   17.40165079
_cell_length_c   51.67186241
_cell_angle_alpha   115.09972516
_cell_angle_beta   90.00000000
_cell_angle_gamma   90.00000000
_symmetry_Int_Tables_number   1
_chemical_formula_structural   Si10H2O21
_chemical_formula_sum   'Si40 H8 O84'
_cell_volume   4115.54429148
_cell_formula_units_Z   4
loop_
 _symmetry_equiv_pos_site_id
 _symmetry_equiv_pos_as_xyz
  1  'x, y, z'
loop_
 _atom_site_type_symbol
 _atom_site_label
 _atom_site_symmetry_multiplicity
 _atom_site_fract_x
 _atom_site_fract_y
 _atom_site_fract_z
 _atom_site_occupancy
  Si  Si1  1  0.263225  0.196494  0.284053  1
  Si  Si2  1  0.263360  0.696495  0.284053  1
  Si  Si3  1  0.766818  0.803634  0.370760  1
  Si  Si4  1  0.766678  0.303635  0.370761  1
  Si  Si5  1  0.763360  0.803598  0.287395  1
  Si  Si6  1  0.763225  0.303599  0.287395  1
  Si  Si7  1  0.263225  0.196494  0.426910  1
  Si  Si8  1  0.263360  0.696495  0.426911  1
  Si  Si9  1  0.266678  0.196457  0.343545  1
  Si  Si10  1  0.266818  0.696459  0.343545  1
  Si  Si11  1  0.721101  0.943377  0.349051  1
  Si  Si12  1  0.721098  0.443381  0.349051  1
  Si  Si13  1  0.221099  0.056711  0.365254  1
  Si  Si14  1  0.221101  0.556716  0.365255  1
  O  O15  1  0.531882  0.741487  0.284750  1
  O  O16  1  0.531725  0.241504  0.284757  1
  O  O17  1  0.238320  0.115481  0.255135  1
  O  O18  1  0.238342  0.615485  0.255135  1
  O  O19  1  0.753029  0.823474  0.260480  1
  O  O20  1  0.752847  0.323473  0.260480  1
  O  O21  1  0.535599  0.741721  0.355420  1
  O  O22  1  0.535432  0.241740  0.355418  1
  O  O23  1  0.531882  0.741487  0.427607  1
  O  O24  1  0.531725  0.241504  0.427614  1
  O  O25  1  0.031725  0.258589  0.286691  1
  O  O26  1  0.031881  0.758606  0.286699  1
  O  O27  1  0.035432  0.258352  0.358888  1
  O  O28  1  0.035599  0.758372  0.358885  1
  O  O29  1  0.744262  0.884690  0.364981  1
  O  O30  1  0.744240  0.384694  0.364981  1
  O  O31  1  0.738342  0.884608  0.316313  1
  O  O32  1  0.738319  0.384612  0.316314  1
  O  O33  1  0.238320  0.115481  0.397992  1
  O  O34  1  0.238342  0.615485  0.397992  1
  O  O35  1  0.244240  0.115398  0.349324  1
  O  O36  1  0.244262  0.615403  0.349325  1
  O  O37  1  0.753029  0.823474  0.403338  1
  O  O38  1  0.752847  0.323473  0.403337  1
  O  O39  1  0.252847  0.176620  0.310968  1
  O  O40  1  0.253029  0.676618  0.310968  1
  O  O41  1  0.949693  0.009749  0.358242  1
  O  O42  1  0.949694  0.509753  0.358242  1
  O  O43  1  0.449694  0.990340  0.356063  1
  O  O44  1  0.449692  0.490344  0.356064  1
  H  H45  1  0.238320  0.115481  0.237717  1
  H  H46  1  0.238342  0.615485  0.237718  1
  H  H47  1  0.753029  0.823474  0.243063  1
  H  H48  1  0.752847  0.323473  0.243063  1
  O  O49  1  0.535599  0.741721  0.498277  1
  O  O50  1  0.535432  0.241740  0.498275  1
  O  O51  1  0.531882  0.741487  0.570464  1
  O  O52  1  0.531725  0.241504  0.570472  1
  O  O53  1  0.031725  0.258589  0.429548  1
  O  O54  1  0.031881  0.758606  0.429556  1
  O  O55  1  0.035432  0.258352  0.501745  1
  O  O56  1  0.035599  0.758372  0.501743  1
  O  O57  1  0.744262  0.884690  0.507838  1
  O  O58  1  0.744240  0.384694  0.507839  1
  O  O59  1  0.738342  0.884608  0.459170  1
  O  O60  1  0.738319  0.384612  0.459171  1
  O  O61  1  0.238320  0.115481  0.540849  1
  O  O62  1  0.238342  0.615485  0.540850  1
  O  O63  1  0.244240  0.115398  0.492181  1
  O  O64  1  0.244262  0.615403  0.492182  1
  O  O65  1  0.753029  0.823474  0.546195  1
  O  O66  1  0.752847  0.323473  0.546194  1
  O  O67  1  0.252847  0.176620  0.453825  1
  O  O68  1  0.253029  0.676618  0.453825  1
  O  O69  1  0.949693  0.009749  0.501099  1
  O  O70  1  0.949694  0.509753  0.501100  1
  O  O71  1  0.449694  0.990340  0.498920  1
  O  O72  1  0.449692  0.490344  0.498921  1
  Si  Si73  1  0.766818  0.803634  0.513617  1
  Si  Si74  1  0.766678  0.303635  0.513618  1
  Si  Si75  1  0.763360  0.803598  0.430252  1
  Si  Si76  1  0.763225  0.303599  0.430252  1
  Si  Si77  1  0.263225  0.196494  0.569768  1
  Si  Si78  1  0.263360  0.696495  0.569768  1
  Si  Si79  1  0.266678  0.196457  0.486402  1
  Si  Si80  1  0.266818  0.696459  0.486403  1
  Si  Si81  1  0.721101  0.943377  0.491908  1
  Si  Si82  1  0.721098  0.443381  0.491908  1
  Si  Si83  1  0.221099  0.056711  0.508111  1
  Si  Si84  1  0.221101  0.556716  0.508112  1
  Si  Si85  1  0.766818  0.803634  0.656474  1
  Si  Si86  1  0.766678  0.303635  0.656475  1
  Si  Si87  1  0.763360  0.803598  0.573109  1
  Si  Si88  1  0.763225  0.303599  0.573109  1
  Si  Si89  1  0.263225  0.196494  0.712625  1
  Si  Si90  1  0.263360  0.696495  0.712625  1
  Si  Si91  1  0.266678  0.196457  0.629260  1
  Si  Si92  1  0.266818  0.696459  0.629260  1
  Si  Si93  1  0.721101  0.943377  0.634765  1
  Si  Si94  1  0.721098  0.443381  0.634765  1
  Si  Si95  1  0.221099  0.056711  0.650968  1
  Si  Si96  1  0.221101  0.556716  0.650969  1
  Si  Si97  1  0.763360  0.803598  0.715966  1
  Si  Si98  1  0.763225  0.303599  0.715966  1
  O  O99  1  0.535599  0.741721  0.641134  1
  O  O100  1  0.535432  0.241740  0.641132  1
  O  O101  1  0.531882  0.741487  0.713321  1
  O  O102  1  0.531725  0.241504  0.713329  1
  O  O103  1  0.031725  0.258589  0.572405  1
  O  O104  1  0.031881  0.758606  0.572413  1
  O  O105  1  0.035432  0.258352  0.644602  1
  O  O106  1  0.035599  0.758372  0.644600  1
  O  O107  1  0.744262  0.884690  0.650695  1
  O  O108  1  0.744240  0.384694  0.650696  1
  O  O109  1  0.738342  0.884608  0.602028  1
  O  O110  1  0.738319  0.384612  0.602028  1
  O  O111  1  0.238320  0.115481  0.683706  1
  O  O112  1  0.238342  0.615485  0.683707  1
  O  O113  1  0.244240  0.115398  0.635038  1
  O  O114  1  0.244262  0.615403  0.635039  1
  O  O115  1  0.753029  0.823474  0.689052  1
  O  O116  1  0.752847  0.323473  0.689052  1
  O  O117  1  0.252847  0.176620  0.596683  1
  O  O118  1  0.253029  0.676618  0.596683  1
  O  O119  1  0.949693  0.009749  0.643956  1
  O  O120  1  0.949694  0.509753  0.643957  1
  O  O121  1  0.449694  0.990340  0.641777  1
  O  O122  1  0.449692  0.490344  0.641778  1
  O  O123  1  0.031725  0.258589  0.715262  1
  O  O124  1  0.031881  0.758606  0.715270  1
  O  O125  1  0.738342  0.884608  0.744885  1
  O  O126  1  0.738319  0.384612  0.744885  1
  O  O127  1  0.252847  0.176620  0.739540  1
  O  O128  1  0.253029  0.676618  0.739540  1
  H  H129  1  0.738342  0.884608  0.762302  1
  H  H130  1  0.738319  0.384612  0.762303  1
  H  H131  1  0.252847  0.176620  0.756957  1
  H  H132  1  0.253029  0.676618  0.756957  1
