# generated using pymatgen
data_Si6H2O13
_symmetry_space_group_name_H-M   'P 1'
_cell_length_a   12.70191421
_cell_length_b   13.04642943
_cell_length_c   29.37507100
_cell_angle_alpha   90.00000000
_cell_angle_beta   90.00000000
_cell_angle_gamma   90.00000000
_symmetry_Int_Tables_number   1
_chemical_formula_structural   Si6H2O13
_chemical_formula_sum   'Si24 H8 O52'
_cell_volume   4867.87894422
_cell_formula_units_Z   4
loop_
 _symmetry_equiv_pos_site_id
 _symmetry_equiv_pos_as_xyz
  1  'x, y, z'
loop_
 _atom_site_type_symbol
 _atom_site_label
 _atom_site_symmetry_multiplicity
 _atom_site_fract_x
 _atom_site_fract_y
 _atom_site_fract_z
 _atom_site_occupancy
  O  O1  1  0.176822  0.192371  0.200851  1
  O  O2  1  0.298066  0.307669  0.253285  1
  O  O3  1  0.170684  0.169037  0.286289  1
  O  O4  1  0.100477  0.331040  0.255911  1
  O  O5  1  0.357860  0.500012  0.267692  1
  O  O6  1  0.499835  0.638009  0.267903  1
  O  O7  1  0.499887  0.362060  0.267909  1
  O  O8  1  0.298012  0.692349  0.253278  1
  O  O9  1  0.176792  0.807699  0.200854  1
  O  O10  1  0.170694  0.831027  0.286295  1
  O  O11  1  0.100417  0.669057  0.255916  1
  O  O12  1  0.822949  0.192397  0.200851  1
  O  O13  1  0.701710  0.307729  0.253280  1
  O  O14  1  0.829029  0.169058  0.286290  1
  O  O15  1  0.899305  0.331035  0.255916  1
  O  O16  1  0.641861  0.500058  0.267696  1
  O  O17  1  -0.000000  0.500046  0.267416  1
  O  O18  1  0.701655  0.692394  0.253276  1
  O  O19  1  0.822913  0.807727  0.200855  1
  O  O20  1  0.828995  0.831034  0.286297  1
  O  O21  1  0.899246  0.669051  0.255911  1
  O  O22  1  0.100470  0.331040  0.403659  1
  O  O23  1  0.176812  0.192363  0.458716  1
  O  O24  1  0.298061  0.307684  0.406295  1
  O  O25  1  0.144083  0.000000  0.329787  1
  O  O26  1  0.170704  0.169049  0.373276  1
  O  O27  1  0.362393  0.369414  0.329790  1
  O  O28  1  0.362338  0.630625  0.329785  1
  O  O29  1  0.357857  0.500025  0.391883  1
  O  O30  1  0.499830  0.638025  0.391668  1
  O  O31  1  0.499884  0.362074  0.391675  1
  O  O32  1  0.298002  0.692358  0.406291  1
  O  O33  1  0.176777  0.807686  0.458720  1
  O  O34  1  0.170673  0.831029  0.373281  1
  O  O35  1  0.100406  0.669049  0.403655  1
  O  O36  1  0.899301  0.331026  0.403654  1
  O  O37  1  0.822944  0.192386  0.458720  1
  O  O38  1  0.701708  0.307740  0.406302  1
  O  O39  1  0.829005  0.169060  0.373278  1
  O  O40  1  0.855609  -0.000000  0.329784  1
  O  O41  1  -0.000000  0.130802  0.329792  1
  O  O42  1  0.637382  0.369453  0.329792  1
  O  O43  1  0.637328  0.630677  0.329787  1
  O  O44  1  0.641857  0.500073  0.391884  1
  O  O45  1  -0.000000  0.630803  0.329784  1
  O  O46  1  -0.000000  0.500041  0.392152  1
  O  O47  1  -0.000000  0.369284  0.329784  1
  O  O48  1  0.899236  0.669047  0.403658  1
  O  O49  1  0.701649  0.692415  0.406295  1
  O  O50  1  0.822913  0.807713  0.458725  1
  O  O51  1  0.000000  0.869284  0.329781  1
  O  O52  1  0.829014  0.831051  0.373285  1
  Si  Si53  1  0.189723  0.250029  0.247696  1
  Si  Si54  1  0.378834  0.382097  0.277149  1
  Si  Si55  1  0.378789  0.617936  0.277145  1
  Si  Si56  1  0.189690  0.750033  0.247698  1
  Si  Si57  1  0.810036  0.250056  0.247696  1
  Si  Si58  1  -0.000000  0.382112  0.276675  1
  Si  Si59  1  0.620888  0.617975  0.277146  1
  Si  Si60  1  0.620932  0.382135  0.277151  1
  Si  Si61  1  0.000000  0.617980  0.276675  1
  Si  Si62  1  0.809993  0.750053  0.247696  1
  Si  Si63  1  0.122673  0.117972  0.329786  1
  Si  Si64  1  0.189720  0.250033  0.411874  1
  Si  Si65  1  0.378832  0.382109  0.382431  1
  Si  Si66  1  0.378785  0.617947  0.382426  1
  Si  Si67  1  0.122664  0.882105  0.329785  1
  Si  Si68  1  0.189675  0.750029  0.411874  1
  Si  Si69  1  0.877030  0.117981  0.329787  1
  Si  Si70  1  0.810029  0.250052  0.411877  1
  Si  Si71  1  0.620883  0.617988  0.382427  1
  Si  Si72  1  0.000000  0.382108  0.382893  1
  Si  Si73  1  0.620930  0.382148  0.382432  1
  Si  Si74  1  0.000000  0.617975  0.382893  1
  Si  Si75  1  0.877021  0.882114  0.329787  1
  Si  Si76  1  0.809993  0.750058  0.411879  1
  H  H77  1  0.176822  0.192371  0.170212  1
  H  H78  1  0.176792  0.807699  0.170216  1
  H  H79  1  0.822949  0.192397  0.170213  1
  H  H80  1  0.822913  0.807727  0.170217  1
  H  H81  1  0.176812  0.192363  0.489354  1
  H  H82  1  0.176777  0.807686  0.489358  1
  H  H83  1  0.822944  0.192386  0.489358  1
  H  H84  1  0.822913  0.807713  0.489363  1
