# generated using pymatgen
data_Si20H2O41
_symmetry_space_group_name_H-M   'P 1'
_cell_length_a   19.95132824
_cell_length_b   12.61157101
_cell_length_c   62.91712859
_cell_angle_alpha   90.00000000
_cell_angle_beta   90.00000000
_cell_angle_gamma   90.00000000
_symmetry_Int_Tables_number   1
_chemical_formula_structural   Si20H2O41
_chemical_formula_sum   'Si160 H16 O328'
_cell_volume   15831.0564444
_cell_formula_units_Z   8
loop_
 _symmetry_equiv_pos_site_id
 _symmetry_equiv_pos_as_xyz
  1  'x, y, z'
loop_
 _atom_site_type_symbol
 _atom_site_label
 _atom_site_symmetry_multiplicity
 _atom_site_fract_x
 _atom_site_fract_y
 _atom_site_fract_z
 _atom_site_occupancy
  O  O1  1  0.801760  0.419176  0.366516  1
  O  O2  1  0.698203  0.080772  0.366512  1
  O  O3  1  0.876180  0.259784  0.353503  1
  O  O4  1  0.876176  0.259812  0.297178  1
  O  O5  1  0.623771  0.240210  0.297174  1
  O  O6  1  0.623773  0.240155  0.353501  1
  O  O7  1  0.808666  0.359485  0.325340  1
  O  O8  1  0.691279  0.140496  0.325336  1
  O  O9  1  0.749975  0.249983  0.353210  1
  O  O10  1  0.749974  0.250009  0.297469  1
  O  O11  1  0.901539  0.071751  0.366141  1
  O  O12  1  0.598411  0.428165  0.366144  1
  O  O13  1  0.000000  0.185595  0.352959  1
  O  O14  1  0.000000  0.185605  0.297719  1
  O  O15  1  0.913784  0.130214  0.325339  1
  O  O16  1  0.586149  0.369754  0.325340  1
  O  O17  1  0.803655  0.574856  0.395862  1
  O  O18  1  0.696276  0.925097  0.395859  1
  O  O19  1  0.699356  0.120745  0.406285  1
  O  O20  1  0.800647  0.379212  0.406289  1
  O  O21  1  0.876421  0.734761  0.410595  1
  O  O22  1  0.623535  0.765156  0.410594  1
  O  O23  1  0.749979  0.749983  0.408598  1
  O  O24  1  0.904075  0.921652  0.396253  1
  O  O25  1  0.595909  0.578253  0.396256  1
  O  O26  1  0.595412  0.385469  0.405670  1
  O  O27  1  0.904527  0.114440  0.405666  1
  O  O28  1  0.700217  0.464798  0.389895  1
  O  O29  1  0.799745  0.035050  0.389888  1
  O  O30  1  0.698153  0.919197  0.176125  1
  O  O31  1  0.801758  0.419196  0.284160  1
  O  O32  1  0.698181  0.080832  0.284156  1
  O  O33  1  0.801755  0.580832  0.176130  1
  O  O34  1  0.598407  0.571752  0.175759  1
  O  O35  1  0.901503  0.071796  0.284533  1
  O  O36  1  0.598413  0.428236  0.284537  1
  O  O37  1  0.901533  0.928273  0.175756  1
  O  O38  1  0.696254  0.074898  0.205469  1
  O  O39  1  0.803627  0.574874  0.254814  1
  O  O40  1  0.696306  0.925154  0.254810  1
  O  O41  1  0.803646  0.425131  0.205473  1
  O  O42  1  0.699252  0.120802  0.244381  1
  O  O43  1  0.800629  0.620775  0.215902  1
  O  O44  1  0.699303  0.879251  0.215898  1
  O  O45  1  0.800647  0.379223  0.244385  1
  O  O46  1  0.623512  0.234820  0.220209  1
  O  O47  1  0.876375  0.734805  0.240077  1
  O  O48  1  0.623526  0.765261  0.240076  1
  O  O49  1  0.876413  0.265241  0.220209  1
  O  O50  1  0.749963  0.250006  0.218211  1
  O  O51  1  0.749949  0.750004  0.242072  1
  O  O52  1  0.595888  0.421703  0.205876  1
  O  O53  1  0.903979  0.921715  0.254418  1
  O  O54  1  0.595939  0.578346  0.254425  1
  O  O55  1  0.904022  0.078355  0.205868  1
  O  O56  1  0.595361  0.385556  0.245013  1
  O  O57  1  0.904497  0.885573  0.215281  1
  O  O58  1  0.595397  0.614482  0.215286  1
  O  O59  1  0.904580  0.114500  0.245006  1
  O  O60  1  -0.000000  0.812219  0.237965  1
  O  O61  1  0.799706  0.964904  0.199497  1
  O  O62  1  0.700209  0.464767  0.260778  1
  O  O63  1  0.799716  0.035314  0.260766  1
  O  O64  1  0.700204  0.535169  0.199510  1
  O  O65  1  0.000000  0.187810  0.222313  1
  O  O66  1  0.698185  0.919151  0.093774  1
  O  O67  1  0.801768  0.580806  0.093780  1
  O  O68  1  0.623753  0.759765  0.163116  1
  O  O69  1  0.623762  0.759747  0.106787  1
  O  O70  1  0.876174  0.740210  0.106792  1
  O  O71  1  0.876169  0.740251  0.163121  1
  O  O72  1  0.691249  0.859460  0.134951  1
  O  O73  1  0.808685  0.640526  0.134957  1
  O  O74  1  0.749968  0.749982  0.107085  1
  O  O75  1  0.598421  0.571717  0.094149  1
  O  O76  1  0.901542  0.928216  0.094147  1
  O  O77  1  0.000000  0.814383  0.162574  1
  O  O78  1  0.586159  0.630171  0.134952  1
  O  O79  1  0.913791  0.869800  0.134954  1
  O  O80  1  0.749961  0.750014  0.162822  1
  O  O81  1  0.000000  0.814359  0.107336  1
  O  O82  1  0.198201  0.419115  0.366516  1
  O  O83  1  0.301780  0.080746  0.366517  1
  O  O84  1  0.123776  0.259733  0.353501  1
  O  O85  1  0.123771  0.259720  0.297175  1
  O  O86  1  0.376181  0.240120  0.297172  1
  O  O87  1  0.376182  0.240143  0.353500  1
  O  O88  1  0.191282  0.359411  0.325338  1
  O  O89  1  0.308684  0.140434  0.325339  1
  O  O90  1  0.249978  0.249919  0.353207  1
  O  O91  1  0.249978  0.249912  0.297464  1
  O  O92  1  0.098423  0.071717  0.366141  1
  O  O93  1  0.401528  0.428163  0.366140  1
  O  O94  1  0.499974  0.314343  0.297716  1
  O  O95  1  0.499972  0.314315  0.352957  1
  O  O96  1  0.086145  0.130158  0.325337  1
  O  O97  1  0.413787  0.369713  0.325335  1
  O  O98  1  0.196330  0.574809  0.395860  1
  O  O99  1  0.303664  0.925077  0.395866  1
  O  O100  1  0.300657  0.120723  0.406292  1
  O  O101  1  0.199289  0.379159  0.406291  1
  O  O102  1  0.123562  0.734717  0.410595  1
  O  O103  1  0.376419  0.765161  0.410601  1
  O  O104  1  0.249992  0.749947  0.408603  1
  O  O105  1  0.095946  0.921624  0.396253  1
  O  O106  1  0.404015  0.578252  0.396255  1
  O  O107  1  0.404595  0.385461  0.405666  1
  O  O108  1  0.095401  0.114411  0.405665  1
  O  O109  1  0.299742  0.464673  0.389903  1
  O  O110  1  0.200231  0.035147  0.389895  1
  O  O111  1  0.499970  0.687732  0.412708  1
  O  O112  1  0.000000  0.812132  0.412705  1
  O  O113  1  0.301760  0.919052  0.176137  1
  O  O114  1  0.198180  0.419098  0.284161  1
  O  O115  1  0.301752  0.080697  0.284167  1
  O  O116  1  0.198160  0.580720  0.176127  1
  O  O117  1  0.401531  0.571671  0.175759  1
  O  O118  1  0.098383  0.071715  0.284532  1
  O  O119  1  0.401514  0.428155  0.284535  1
  O  O120  1  0.098433  0.928176  0.175757  1
  O  O121  1  0.303681  0.074707  0.205485  1
  O  O122  1  0.196198  0.574745  0.254811  1
  O  O123  1  0.303590  0.924972  0.254825  1
  O  O124  1  0.196360  0.425009  0.205471  1
  O  O125  1  0.300654  0.120623  0.244395  1
  O  O126  1  0.199208  0.620664  0.215901  1
  O  O127  1  0.300616  0.879063  0.215912  1
  O  O128  1  0.199359  0.379106  0.244386  1
  O  O129  1  0.376419  0.234655  0.220220  1
  O  O130  1  0.123466  0.734708  0.240078  1
  O  O131  1  0.376366  0.765094  0.240089  1
  O  O132  1  0.123570  0.265156  0.220211  1
  O  O133  1  0.249997  0.249843  0.218215  1
  O  O134  1  0.249912  0.749845  0.242079  1
  O  O135  1  0.403948  0.421592  0.205873  1
  O  O136  1  0.095895  0.921628  0.254420  1
  O  O137  1  0.404064  0.578234  0.254422  1
  O  O138  1  0.095932  0.078266  0.205869  1
  O  O139  1  0.404481  0.385457  0.245010  1
  O  O140  1  0.095372  0.885484  0.215283  1
  O  O141  1  0.404587  0.614386  0.215285  1
  O  O142  1  0.095384  0.114414  0.245006  1
  O  O143  1  0.499972  0.687803  0.237974  1
  O  O144  1  0.200218  0.964717  0.199518  1
  O  O145  1  0.299713  0.464899  0.260788  1
  O  O146  1  0.200193  0.035124  0.260786  1
  O  O147  1  0.299715  0.535284  0.199517  1
  O  O148  1  0.499943  0.312207  0.222327  1
  O  O149  1  0.301766  0.919124  0.093782  1
  O  O150  1  0.198175  0.580757  0.093776  1
  O  O151  1  0.376163  0.759672  0.163117  1
  O  O152  1  0.376171  0.759701  0.106789  1
  O  O153  1  0.123763  0.740176  0.106787  1
  O  O154  1  0.123750  0.740144  0.163115  1
  O  O155  1  0.308685  0.859400  0.134956  1
  O  O156  1  0.191248  0.640453  0.134951  1
  O  O157  1  0.249955  0.749901  0.162822  1
  O  O158  1  0.249968  0.749933  0.107084  1
  O  O159  1  0.401543  0.571683  0.094147  1
  O  O160  1  0.098415  0.928198  0.094148  1
  O  O161  1  0.499962  0.685554  0.162570  1
  O  O162  1  0.499971  0.685556  0.107333  1
  O  O163  1  0.413787  0.630114  0.134951  1
  O  O164  1  0.086162  0.869750  0.134953  1
  O  O165  1  0.801760  0.419176  0.747285  1
  O  O166  1  0.698203  0.080772  0.747281  1
  O  O167  1  0.876180  0.259784  0.734273  1
  O  O168  1  0.876176  0.259812  0.677947  1
  O  O169  1  0.623771  0.240210  0.677944  1
  O  O170  1  0.623773  0.240155  0.734270  1
  O  O171  1  0.808666  0.359485  0.706109  1
  O  O172  1  0.691279  0.140496  0.706105  1
  O  O173  1  0.749975  0.249983  0.733979  1
  O  O174  1  0.749974  0.250009  0.678238  1
  O  O175  1  0.901539  0.071751  0.746910  1
  O  O176  1  0.598411  0.428165  0.746913  1
  O  O177  1  -0.000000  0.185595  0.733728  1
  O  O178  1  0.000000  0.185605  0.678488  1
  O  O179  1  0.913784  0.130214  0.706108  1
  O  O180  1  0.586149  0.369754  0.706109  1
  O  O181  1  0.698153  0.919197  0.556894  1
  O  O182  1  0.801758  0.419196  0.664930  1
  O  O183  1  0.698181  0.080832  0.664925  1
  O  O184  1  0.801755  0.580832  0.556900  1
  O  O185  1  0.598407  0.571752  0.556528  1
  O  O186  1  0.901503  0.071796  0.665302  1
  O  O187  1  0.598413  0.428236  0.665307  1
  O  O188  1  0.901533  0.928273  0.556525  1
  O  O189  1  0.696254  0.074898  0.586239  1
  O  O190  1  0.803627  0.574874  0.635583  1
  O  O191  1  0.696306  0.925154  0.635579  1
  O  O192  1  0.803646  0.425131  0.586243  1
  O  O193  1  0.699252  0.120802  0.625150  1
  O  O194  1  0.800629  0.620775  0.596671  1
  O  O195  1  0.699303  0.879251  0.596667  1
  O  O196  1  0.800647  0.379223  0.625154  1
  O  O197  1  0.623512  0.234820  0.600978  1
  O  O198  1  0.876375  0.734805  0.620846  1
  O  O199  1  0.623526  0.765261  0.620845  1
  O  O200  1  0.876413  0.265241  0.600978  1
  O  O201  1  0.749963  0.250006  0.598980  1
  O  O202  1  0.749949  0.750004  0.622841  1
  O  O203  1  0.595888  0.421703  0.586645  1
  O  O204  1  0.903979  0.921715  0.635187  1
  O  O205  1  0.595939  0.578346  0.635194  1
  O  O206  1  0.904022  0.078355  0.586637  1
  O  O207  1  0.595361  0.385556  0.625782  1
  O  O208  1  0.904497  0.885573  0.596050  1
  O  O209  1  0.595397  0.614482  0.596055  1
  O  O210  1  0.904580  0.114500  0.625775  1
  O  O211  1  0.000000  0.812219  0.618734  1
  O  O212  1  0.799706  0.964904  0.580266  1
  O  O213  1  0.700209  0.464767  0.641548  1
  O  O214  1  0.799716  0.035314  0.641535  1
  O  O215  1  0.700204  0.535169  0.580280  1
  O  O216  1  0.000000  0.187810  0.603082  1
  O  O217  1  0.698185  0.919151  0.474543  1
  O  O218  1  0.801768  0.580806  0.474549  1
  O  O219  1  0.623753  0.759765  0.543885  1
  O  O220  1  0.623762  0.759747  0.487556  1
  O  O221  1  0.876174  0.740210  0.487561  1
  O  O222  1  0.876169  0.740251  0.543891  1
  O  O223  1  0.691249  0.859460  0.515721  1
  O  O224  1  0.808685  0.640526  0.515726  1
  O  O225  1  0.749968  0.749982  0.487854  1
  O  O226  1  0.598421  0.571717  0.474918  1
  O  O227  1  0.901542  0.928216  0.474916  1
  O  O228  1  0.000000  0.814383  0.543343  1
  O  O229  1  0.586159  0.630171  0.515722  1
  O  O230  1  0.913791  0.869800  0.515723  1
  O  O231  1  0.696339  0.074828  0.445198  1
  O  O232  1  0.803666  0.425127  0.445202  1
  O  O233  1  0.800659  0.620775  0.434774  1
  O  O234  1  0.699282  0.879179  0.434770  1
  O  O235  1  0.623568  0.234713  0.430463  1
  O  O236  1  0.876425  0.265214  0.430462  1
  O  O237  1  0.749997  0.249981  0.432464  1
  O  O238  1  0.595953  0.421616  0.444807  1
  O  O239  1  0.904008  0.078296  0.444802  1
  O  O240  1  0.904597  0.885508  0.435390  1
  O  O241  1  0.595394  0.614403  0.435393  1
  O  O242  1  0.749961  0.750014  0.543592  1
  O  O243  1  0.799743  0.964687  0.451159  1
  O  O244  1  0.700230  0.535182  0.451166  1
  O  O245  1  0.000000  0.814359  0.488105  1
  O  O246  1  -0.000000  0.187745  0.428349  1
  O  O247  1  0.500001  0.312119  0.428359  1
  O  O248  1  0.198201  0.419115  0.747285  1
  O  O249  1  0.301780  0.080746  0.747287  1
  O  O250  1  0.123776  0.259733  0.734270  1
  O  O251  1  0.123771  0.259720  0.677944  1
  O  O252  1  0.376181  0.240120  0.677941  1
  O  O253  1  0.376182  0.240143  0.734270  1
  O  O254  1  0.191282  0.359411  0.706108  1
  O  O255  1  0.308684  0.140434  0.706108  1
  O  O256  1  0.249978  0.249919  0.733976  1
  O  O257  1  0.249978  0.249912  0.678233  1
  O  O258  1  0.098423  0.071717  0.746910  1
  O  O259  1  0.401528  0.428163  0.746910  1
  O  O260  1  0.499974  0.314343  0.678485  1
  O  O261  1  0.499972  0.314315  0.733726  1
  O  O262  1  0.086145  0.130158  0.706107  1
  O  O263  1  0.413787  0.369713  0.706105  1
  O  O264  1  0.301760  0.919052  0.556906  1
  O  O265  1  0.198180  0.419098  0.664930  1
  O  O266  1  0.301752  0.080697  0.664936  1
  O  O267  1  0.198160  0.580720  0.556896  1
  O  O268  1  0.401531  0.571671  0.556528  1
  O  O269  1  0.098383  0.071715  0.665302  1
  O  O270  1  0.401514  0.428155  0.665304  1
  O  O271  1  0.098433  0.928176  0.556526  1
  O  O272  1  0.303681  0.074707  0.586254  1
  O  O273  1  0.196198  0.574745  0.635580  1
  O  O274  1  0.303590  0.924972  0.635595  1
  O  O275  1  0.196360  0.425009  0.586241  1
  O  O276  1  0.300654  0.120623  0.625164  1
  O  O277  1  0.199208  0.620664  0.596670  1
  O  O278  1  0.300616  0.879063  0.596682  1
  O  O279  1  0.199359  0.379106  0.625155  1
  O  O280  1  0.376419  0.234655  0.600989  1
  O  O281  1  0.123466  0.734708  0.620848  1
  O  O282  1  0.376366  0.765094  0.620859  1
  O  O283  1  0.123570  0.265156  0.600980  1
  O  O284  1  0.249997  0.249843  0.598985  1
  O  O285  1  0.249912  0.749845  0.622848  1
  O  O286  1  0.403948  0.421592  0.586643  1
  O  O287  1  0.095895  0.921628  0.635189  1
  O  O288  1  0.404064  0.578234  0.635192  1
  O  O289  1  0.095932  0.078266  0.586638  1
  O  O290  1  0.404481  0.385457  0.625780  1
  O  O291  1  0.095372  0.885484  0.596052  1
  O  O292  1  0.404587  0.614386  0.596054  1
  O  O293  1  0.095384  0.114414  0.625775  1
  O  O294  1  0.499972  0.687803  0.618743  1
  O  O295  1  0.200218  0.964717  0.580287  1
  O  O296  1  0.299713  0.464899  0.641558  1
  O  O297  1  0.200193  0.035124  0.641555  1
  O  O298  1  0.299715  0.535284  0.580286  1
  O  O299  1  0.499943  0.312207  0.603097  1
  O  O300  1  0.301766  0.919124  0.474551  1
  O  O301  1  0.198175  0.580757  0.474545  1
  O  O302  1  0.376163  0.759672  0.543887  1
  O  O303  1  0.376171  0.759701  0.487558  1
  O  O304  1  0.123763  0.740176  0.487556  1
  O  O305  1  0.123750  0.740144  0.543885  1
  O  O306  1  0.308685  0.859400  0.515726  1
  O  O307  1  0.191248  0.640453  0.515720  1
  O  O308  1  0.249955  0.749901  0.543591  1
  O  O309  1  0.249968  0.749933  0.487853  1
  O  O310  1  0.401543  0.571683  0.474917  1
  O  O311  1  0.098415  0.928198  0.474917  1
  O  O312  1  0.499962  0.685554  0.543339  1
  O  O313  1  0.499971  0.685556  0.488102  1
  O  O314  1  0.413787  0.630114  0.515721  1
  O  O315  1  0.086162  0.869750  0.515722  1
  O  O316  1  0.303666  0.074819  0.445205  1
  O  O317  1  0.196292  0.425067  0.445202  1
  O  O318  1  0.199318  0.620711  0.434772  1
  O  O319  1  0.300657  0.879173  0.434778  1
  O  O320  1  0.376428  0.234710  0.430463  1
  O  O321  1  0.123539  0.265154  0.430466  1
  O  O322  1  0.249985  0.249948  0.432464  1
  O  O323  1  0.404039  0.421597  0.444804  1
  O  O324  1  0.095921  0.078263  0.444802  1
  O  O325  1  0.095421  0.885479  0.435391  1
  O  O326  1  0.404550  0.614379  0.435392  1
  O  O327  1  0.200228  0.964779  0.451169  1
  O  O328  1  0.299735  0.535095  0.451169  1
  Si  Si329  1  0.622140  0.466591  0.388783  1
  Si  Si330  1  0.810652  0.327367  0.349656  1
  Si  Si331  1  0.810649  0.327395  0.301022  1
  Si  Si332  1  0.689296  0.172625  0.301020  1
  Si  Si333  1  0.689306  0.172589  0.349653  1
  Si  Si334  1  0.922946  0.160416  0.349691  1
  Si  Si335  1  0.922931  0.160429  0.300988  1
  Si  Si336  1  0.576999  0.339569  0.300987  1
  Si  Si337  1  0.577002  0.339518  0.349690  1
  Si  Si338  1  0.809209  0.670095  0.412029  1
  Si  Si339  1  0.690737  0.829852  0.412026  1
  Si  Si340  1  0.922671  0.834816  0.413347  1
  Si  Si341  1  0.577303  0.665083  0.413349  1
  Si  Si342  1  0.778433  0.461596  0.388929  1
  Si  Si343  1  0.721529  0.038337  0.388923  1
  Si  Si344  1  0.877821  0.033300  0.388779  1
  Si  Si345  1  0.622133  0.466660  0.261897  1
  Si  Si346  1  0.877784  0.966703  0.198392  1
  Si  Si347  1  0.690718  0.170137  0.221637  1
  Si  Si348  1  0.809175  0.670107  0.238645  1
  Si  Si349  1  0.690739  0.829927  0.238641  1
  Si  Si350  1  0.809195  0.329895  0.221641  1
  Si  Si351  1  0.577272  0.334879  0.222969  1
  Si  Si352  1  0.922595  0.834893  0.237323  1
  Si  Si353  1  0.577308  0.665162  0.237330  1
  Si  Si354  1  0.922654  0.165175  0.222960  1
  Si  Si355  1  0.721490  0.961645  0.198535  1
  Si  Si356  1  0.778426  0.461601  0.261747  1
  Si  Si357  1  0.721499  0.038434  0.261741  1
  Si  Si358  1  0.778422  0.538391  0.198540  1
  Si  Si359  1  0.622128  0.533354  0.198400  1
  Si  Si360  1  0.877791  0.033405  0.261890  1
  Si  Si361  1  0.689271  0.827368  0.159269  1
  Si  Si362  1  0.689280  0.827348  0.110635  1
  Si  Si363  1  0.810653  0.672620  0.110640  1
  Si  Si364  1  0.810651  0.672652  0.159273  1
  Si  Si365  1  0.576996  0.660387  0.159303  1
  Si  Si366  1  0.577003  0.660372  0.110600  1
  Si  Si367  1  0.922944  0.839572  0.110603  1
  Si  Si368  1  0.922942  0.839606  0.159306  1
  Si  Si369  1  0.377818  0.466567  0.388783  1
  Si  Si370  1  0.189305  0.327310  0.349656  1
  Si  Si371  1  0.189301  0.327292  0.301021  1
  Si  Si372  1  0.310656  0.172533  0.301021  1
  Si  Si373  1  0.310661  0.172546  0.349655  1
  Si  Si374  1  0.077004  0.160372  0.349689  1
  Si  Si375  1  0.076989  0.160373  0.300986  1
  Si  Si376  1  0.422939  0.339499  0.300984  1
  Si  Si377  1  0.422943  0.339514  0.349687  1
  Si  Si378  1  0.190770  0.670040  0.412028  1
  Si  Si379  1  0.309214  0.829846  0.412034  1
  Si  Si380  1  0.077334  0.834797  0.413347  1
  Si  Si381  1  0.422639  0.665069  0.413349  1
  Si  Si382  1  0.221525  0.461528  0.388929  1
  Si  Si383  1  0.278448  0.038338  0.388930  1
  Si  Si384  1  0.122154  0.033298  0.388780  1
  Si  Si385  1  0.122143  0.966588  0.198398  1
  Si  Si386  1  0.309221  0.169948  0.221651  1
  Si  Si387  1  0.190662  0.669994  0.238645  1
  Si  Si388  1  0.309145  0.829738  0.238658  1
  Si  Si389  1  0.190796  0.329789  0.221641  1
  Si  Si390  1  0.422603  0.334792  0.222968  1
  Si  Si391  1  0.077262  0.834815  0.237325  1
  Si  Si392  1  0.422646  0.665080  0.237330  1
  Si  Si393  1  0.077318  0.165102  0.222961  1
  Si  Si394  1  0.278434  0.961462  0.198550  1
  Si  Si395  1  0.221496  0.461532  0.261749  1
  Si  Si396  1  0.278410  0.038260  0.261756  1
  Si  Si397  1  0.221497  0.538320  0.198541  1
  Si  Si398  1  0.377790  0.533298  0.198400  1
  Si  Si399  1  0.122116  0.033294  0.261894  1
  Si  Si400  1  0.377789  0.466603  0.261898  1
  Si  Si401  1  0.310642  0.827265  0.159272  1
  Si  Si402  1  0.310653  0.827297  0.110638  1
  Si  Si403  1  0.189279  0.672570  0.110634  1
  Si  Si404  1  0.189268  0.672538  0.159269  1
  Si  Si405  1  0.422936  0.660318  0.159303  1
  Si  Si406  1  0.422943  0.660341  0.110600  1
  Si  Si407  1  0.077003  0.839550  0.110601  1
  Si  Si408  1  0.077003  0.839536  0.159304  1
  Si  Si409  1  0.810652  0.327367  0.730426  1
  Si  Si410  1  0.810649  0.327395  0.681791  1
  Si  Si411  1  0.689296  0.172625  0.681789  1
  Si  Si412  1  0.689306  0.172589  0.730423  1
  Si  Si413  1  0.922946  0.160416  0.730460  1
  Si  Si414  1  0.922931  0.160429  0.681757  1
  Si  Si415  1  0.576999  0.339569  0.681757  1
  Si  Si416  1  0.577002  0.339518  0.730460  1
  Si  Si417  1  0.622133  0.466660  0.642666  1
  Si  Si418  1  0.877784  0.966703  0.579161  1
  Si  Si419  1  0.690718  0.170137  0.602406  1
  Si  Si420  1  0.809175  0.670107  0.619415  1
  Si  Si421  1  0.690739  0.829927  0.619411  1
  Si  Si422  1  0.809195  0.329895  0.602410  1
  Si  Si423  1  0.577272  0.334879  0.603738  1
  Si  Si424  1  0.922595  0.834893  0.618093  1
  Si  Si425  1  0.577308  0.665162  0.618100  1
  Si  Si426  1  0.922654  0.165175  0.603729  1
  Si  Si427  1  0.721490  0.961645  0.579304  1
  Si  Si428  1  0.778426  0.461601  0.642516  1
  Si  Si429  1  0.721499  0.038434  0.642510  1
  Si  Si430  1  0.778422  0.538391  0.579309  1
  Si  Si431  1  0.622128  0.533354  0.579169  1
  Si  Si432  1  0.877791  0.033405  0.642659  1
  Si  Si433  1  0.877819  0.966608  0.452275  1
  Si  Si434  1  0.689271  0.827368  0.540038  1
  Si  Si435  1  0.689280  0.827348  0.491404  1
  Si  Si436  1  0.810653  0.672620  0.491409  1
  Si  Si437  1  0.810651  0.672652  0.540043  1
  Si  Si438  1  0.576996  0.660387  0.540073  1
  Si  Si439  1  0.577003  0.660372  0.491370  1
  Si  Si440  1  0.922944  0.839572  0.491372  1
  Si  Si441  1  0.922942  0.839606  0.540075  1
  Si  Si442  1  0.690787  0.170060  0.429030  1
  Si  Si443  1  0.809215  0.329893  0.429034  1
  Si  Si444  1  0.577332  0.334787  0.427715  1
  Si  Si445  1  0.922637  0.165114  0.427709  1
  Si  Si446  1  0.721526  0.961549  0.452130  1
  Si  Si447  1  0.778445  0.538388  0.452135  1
  Si  Si448  1  0.622153  0.533299  0.452279  1
  Si  Si449  1  0.189305  0.327310  0.730425  1
  Si  Si450  1  0.189301  0.327292  0.681790  1
  Si  Si451  1  0.310656  0.172533  0.681790  1
  Si  Si452  1  0.310661  0.172546  0.730425  1
  Si  Si453  1  0.077004  0.160372  0.730459  1
  Si  Si454  1  0.076989  0.160373  0.681755  1
  Si  Si455  1  0.422939  0.339499  0.681754  1
  Si  Si456  1  0.422943  0.339514  0.730457  1
  Si  Si457  1  0.122143  0.966588  0.579167  1
  Si  Si458  1  0.309221  0.169948  0.602420  1
  Si  Si459  1  0.190662  0.669994  0.619415  1
  Si  Si460  1  0.309145  0.829738  0.619427  1
  Si  Si461  1  0.190796  0.329789  0.602411  1
  Si  Si462  1  0.422603  0.334792  0.603737  1
  Si  Si463  1  0.077262  0.834815  0.618095  1
  Si  Si464  1  0.422646  0.665080  0.618099  1
  Si  Si465  1  0.077318  0.165102  0.603730  1
  Si  Si466  1  0.278434  0.961462  0.579320  1
  Si  Si467  1  0.221496  0.461532  0.642518  1
  Si  Si468  1  0.278410  0.038260  0.642526  1
  Si  Si469  1  0.221497  0.538320  0.579311  1
  Si  Si470  1  0.377790  0.533298  0.579170  1
  Si  Si471  1  0.122116  0.033294  0.642663  1
  Si  Si472  1  0.377789  0.466603  0.642667  1
  Si  Si473  1  0.122151  0.966605  0.452278  1
  Si  Si474  1  0.310642  0.827265  0.540041  1
  Si  Si475  1  0.310653  0.827297  0.491408  1
  Si  Si476  1  0.189279  0.672570  0.491404  1
  Si  Si477  1  0.189268  0.672538  0.540038  1
  Si  Si478  1  0.422936  0.660318  0.540072  1
  Si  Si479  1  0.422943  0.660341  0.491370  1
  Si  Si480  1  0.077003  0.839550  0.491370  1
  Si  Si481  1  0.077003  0.839536  0.540073  1
  Si  Si482  1  0.309212  0.170050  0.429035  1
  Si  Si483  1  0.190749  0.329828  0.429035  1
  Si  Si484  1  0.422668  0.334776  0.427712  1
  Si  Si485  1  0.077304  0.165086  0.427709  1
  Si  Si486  1  0.278444  0.961559  0.452139  1
  Si  Si487  1  0.221518  0.538326  0.452135  1
  Si  Si488  1  0.377812  0.533259  0.452279  1
  H  H489  1  0.698185  0.919151  0.079470  1
  H  H490  1  0.801768  0.580806  0.079475  1
  H  H491  1  0.598421  0.571717  0.079844  1
  H  H492  1  0.901542  0.928216  0.079842  1
  H  H493  1  0.301766  0.919124  0.079478  1
  H  H494  1  0.198175  0.580757  0.079471  1
  H  H495  1  0.401543  0.571683  0.079843  1
  H  H496  1  0.098415  0.928198  0.079843  1
  H  H497  1  0.801760  0.419176  0.761590  1
  H  H498  1  0.698203  0.080772  0.761585  1
  H  H499  1  0.901539  0.071751  0.761215  1
  H  H500  1  0.598411  0.428165  0.761218  1
  H  H501  1  0.198201  0.419115  0.761590  1
  H  H502  1  0.301780  0.080746  0.761591  1
  H  H503  1  0.098423  0.071717  0.761215  1
  H  H504  1  0.401528  0.428163  0.761214  1
