# generated using pymatgen
data_Si8H2O17
_symmetry_space_group_name_H-M   'P 1'
_cell_length_a   8.62848311
_cell_length_b   5.07745059
_cell_length_c   39.08694304
_cell_angle_alpha   90.00000000
_cell_angle_beta   90.00000000
_cell_angle_gamma   90.00000000
_symmetry_Int_Tables_number   1
_chemical_formula_structural   Si8H2O17
_chemical_formula_sum   'Si16 H4 O34'
_cell_volume   1712.42620477
_cell_formula_units_Z   2
loop_
 _symmetry_equiv_pos_site_id
 _symmetry_equiv_pos_as_xyz
  1  'x, y, z'
loop_
 _atom_site_type_symbol
 _atom_site_label
 _atom_site_symmetry_multiplicity
 _atom_site_fract_x
 _atom_site_fract_y
 _atom_site_fract_z
 _atom_site_occupancy
  O  O1  1  0.794314  0.046155  0.150946  1
  O  O2  1  0.268783  0.242915  0.203216  1
  O  O3  1  0.733884  0.748820  0.320832  1
  O  O4  1  0.265645  0.155187  0.313880  1
  O  O5  1  0.734026  0.846656  0.209367  1
  O  O6  1  0.767385  0.248819  0.312573  1
  O  O7  1  0.229359  0.742918  0.210015  1
  O  O8  1  0.764016  0.346666  0.203156  1
  O  O9  1  0.235683  0.655188  0.320234  1
  O  O10  1  0.205393  0.956484  0.151480  1
  O  O11  1  0.705463  0.546121  0.261636  1
  O  O12  1  0.000000  0.957987  0.326692  1
  O  O13  1  0.498532  0.543877  0.216268  1
  O  O14  1  0.794314  0.046155  0.371813  1
  O  O15  1  0.294194  0.456534  0.261707  1
  O  O16  1  -0.000000  0.043848  0.196639  1
  O  O17  1  0.501067  0.457927  0.307040  1
  O  O18  1  0.268783  0.242915  0.424083  1
  O  O19  1  0.733884  0.748820  0.541699  1
  O  O20  1  0.265645  0.155187  0.534747  1
  O  O21  1  0.734026  0.846656  0.430234  1
  O  O22  1  0.767385  0.248819  0.533441  1
  O  O23  1  0.229359  0.742918  0.430882  1
  O  O24  1  0.764016  0.346666  0.424023  1
  O  O25  1  0.235683  0.655188  0.541102  1
  O  O26  1  0.205393  0.956484  0.372347  1
  O  O27  1  0.705463  0.546121  0.482503  1
  O  O28  1  -0.000000  0.957987  0.547559  1
  O  O29  1  0.498532  0.543877  0.437136  1
  O  O30  1  0.794314  0.046155  0.592680  1
  O  O31  1  0.294194  0.456534  0.482574  1
  O  O32  1  -0.000000  0.043848  0.417507  1
  O  O33  1  0.501067  0.457927  0.527908  1
  O  O34  1  0.205393  0.956484  0.593215  1
  Si  Si35  1  0.176728  0.996540  0.190613  1
  Si  Si36  1  0.678156  0.500473  0.300731  1
  Si  Si37  1  0.178023  0.929743  0.332989  1
  Si  Si38  1  0.676782  0.572348  0.222304  1
  Si  Si39  1  0.822741  0.000000  0.332755  1
  Si  Si40  1  0.321765  0.496603  0.222535  1
  Si  Si41  1  0.821731  0.072345  0.190321  1
  Si  Si42  1  0.322835  0.429741  0.301022  1
  Si  Si43  1  0.176728  0.996540  0.411480  1
  Si  Si44  1  0.678156  0.500473  0.521598  1
  Si  Si45  1  0.178023  0.929743  0.553857  1
  Si  Si46  1  0.676782  0.572348  0.443172  1
  Si  Si47  1  0.822741  0.000000  0.553623  1
  Si  Si48  1  0.321765  0.496603  0.443402  1
  Si  Si49  1  0.821731  0.072345  0.411189  1
  Si  Si50  1  0.322835  0.429741  0.521890  1
  H  H51  1  0.794314  0.046155  0.127920  1
  H  H52  1  0.205393  0.956484  0.128454  1
  H  H53  1  0.794314  0.046155  0.615706  1
  H  H54  1  0.205393  0.956484  0.616240  1
