# generated using pymatgen
data_Si5H2O11
_symmetry_space_group_name_H-M   'P 1'
_cell_length_a   24.41204530
_cell_length_b   24.41160814
_cell_length_c   59.40374818
_cell_angle_alpha   45.00446172
_cell_angle_beta   90.00000000
_cell_angle_gamma   59.99544042
_symmetry_Int_Tables_number   1
_chemical_formula_structural   Si5H2O11
_chemical_formula_sum   'Si120 H48 O264'
_cell_volume   17700.7710119
_cell_formula_units_Z   24
loop_
 _symmetry_equiv_pos_site_id
 _symmetry_equiv_pos_as_xyz
  1  'x, y, z'
loop_
 _atom_site_type_symbol
 _atom_site_label
 _atom_site_symmetry_multiplicity
 _atom_site_fract_x
 _atom_site_fract_y
 _atom_site_fract_z
 _atom_site_occupancy
  O  O1  1  0.180993  0.258076  0.178185  1
  O  O2  1  0.317325  0.245064  0.181553  1
  O  O3  1  0.438322  0.410054  0.181832  1
  O  O4  1  0.096518  0.216193  0.166101  1
  O  O5  1  0.311074  0.120791  0.201913  1
  O  O6  1  0.022553  0.102032  0.194866  1
  O  O7  1  0.374208  0.178781  0.162701  1
  O  O8  1  0.096572  0.592783  0.201485  1
  O  O9  1  0.151428  0.530936  0.181936  1
  O  O10  1  0.153109  0.665293  0.178390  1
  O  O11  1  0.020430  0.605510  0.162950  1
  O  O12  1  0.445800  0.531974  0.163426  1
  O  O13  1  0.476831  0.646328  0.182053  1
  O  O14  1  0.182043  0.877927  0.198810  1
  O  O15  1  0.093529  0.096075  0.160928  1
  O  O16  1  0.065992  0.836894  0.166162  1
  O  O17  1  0.304566  0.820684  0.194847  1
  O  O18  1  0.056979  0.918011  0.195744  1
  O  O19  1  0.224977  0.968182  0.182416  1
  O  O20  1  0.377827  0.850046  0.164225  1
  O  O21  1  0.560243  0.287700  0.178383  1
  O  O22  1  0.813821  0.257299  0.162031  1
  O  O23  1  0.568423  0.337985  0.201021  1
  O  O24  1  0.938635  0.213889  0.199513  1
  O  O25  1  0.687853  0.242021  0.166117  1
  O  O26  1  0.804554  0.319257  0.182768  1
  O  O27  1  0.875904  0.069109  0.195999  1
  O  O28  1  0.876843  0.352209  0.194648  1
  O  O29  1  0.772785  0.531665  0.162751  1
  O  O30  1  0.874767  0.569748  0.181839  1
  O  O31  1  0.848521  0.967370  0.201258  1
  O  O32  1  0.932818  0.968462  0.163093  1
  O  O33  1  0.772271  0.922243  0.196278  1
  O  O34  1  0.695240  0.931390  0.163057  1
  O  O35  1  0.874000  0.898245  0.181765  1
  O  O36  1  0.554546  0.968961  0.181565  1
  O  O37  1  0.347967  0.471240  0.380171  1
  O  O38  1  0.061917  0.589529  0.381120  1
  O  O39  1  0.180993  0.258076  0.468743  1
  O  O40  1  0.063540  0.087929  0.276041  1
  O  O41  1  0.430712  0.975730  0.306180  1
  O  O42  1  0.431220  0.472092  0.416691  1
  O  O43  1  0.186689  0.382880  0.416645  1
  O  O44  1  0.402094  0.286412  0.436099  1
  O  O45  1  0.317325  0.245064  0.472111  1
  O  O46  1  0.438322  0.410054  0.472390  1
  O  O47  1  0.151643  0.031715  0.217489  1
  O  O48  1  0.438354  0.911283  0.287410  1
  O  O49  1  0.068963  0.029588  0.254902  1
  O  O50  1  0.069090  0.527875  0.436925  1
  O  O51  1  0.096518  0.216193  0.456660  1
  O  O52  1  0.311074  0.120791  0.492471  1
  O  O53  1  0.272305  0.424664  0.412440  1
  O  O54  1  0.302642  0.573470  0.411279  1
  O  O55  1  0.124782  0.602196  0.412972  1
  O  O56  1  0.304258  0.071569  0.253995  1
  O  O57  1  0.124604  0.105540  0.235654  1
  O  O58  1  0.022553  0.102032  0.485425  1
  O  O59  1  0.123257  0.323213  0.412185  1
  O  O60  1  0.446097  0.034235  0.235286  1
  O  O61  1  0.196494  0.427165  0.441797  1
  O  O62  1  0.375972  0.396023  0.441228  1
  O  O63  1  0.228107  0.076248  0.222722  1
  O  O64  1  0.197701  0.926995  0.308469  1
  O  O65  1  0.376708  0.898180  0.327506  1
  O  O66  1  0.477719  0.398099  0.399336  1
  O  O67  1  0.053103  0.467928  0.400514  1
  O  O68  1  0.374208  0.178781  0.453259  1
  O  O69  1  0.182014  0.755930  0.380635  1
  O  O70  1  0.345657  0.971654  0.345014  1
  O  O71  1  0.347409  0.833101  0.420676  1
  O  O72  1  0.182103  0.378618  0.288428  1
  O  O73  1  0.311421  0.255675  0.308055  1
  O  O74  1  0.096572  0.592783  0.492043  1
  O  O75  1  0.401939  0.786196  0.396469  1
  O  O76  1  0.187428  0.881161  0.359796  1
  O  O77  1  0.151428  0.530936  0.472495  1
  O  O78  1  0.317982  0.744014  0.384044  1
  O  O79  1  0.317621  0.119860  0.363629  1
  O  O80  1  0.153109  0.665293  0.468949  1
  O  O81  1  0.402405  0.908346  0.400861  1
  O  O82  1  0.188512  0.242863  0.311743  1
  O  O83  1  0.311938  0.620022  0.435892  1
  O  O84  1  0.097677  0.714876  0.416928  1
  O  O85  1  0.272777  0.923143  0.339971  1
  O  O86  1  0.272827  0.030374  0.382121  1
  O  O87  1  0.372287  0.072852  0.339204  1
  O  O88  1  0.055998  0.419700  0.268911  1
  O  O89  1  0.020430  0.605510  0.453508  1
  O  O90  1  0.445800  0.531974  0.453984  1
  O  O91  1  0.476831  0.646328  0.472611  1
  O  O92  1  0.127176  0.819467  0.400398  1
  O  O93  1  0.227441  0.576847  0.440682  1
  O  O94  1  0.226554  0.468596  0.254129  1
  O  O95  1  0.445745  0.075996  0.368046  1
  O  O96  1  0.475052  0.899348  0.367215  1
  O  O97  1  0.124553  0.430257  0.235815  1
  O  O98  1  0.372163  0.681453  0.440397  1
  O  O99  1  0.052772  0.967147  0.327378  1
  O  O100  1  0.023332  0.852961  0.412669  1
  O  O101  1  0.182043  0.877927  0.489369  1
  O  O102  1  0.061730  0.282626  0.324492  1
  O  O103  1  0.347711  0.334130  0.384396  1
  O  O104  1  0.061056  0.781968  0.219562  1
  O  O105  1  0.093529  0.096075  0.451486  1
  O  O106  1  0.311876  0.754992  0.251454  1
  O  O107  1  0.067253  0.335272  0.347153  1
  O  O108  1  0.065992  0.836894  0.456720  1
  O  O109  1  0.150589  0.167614  0.433050  1
  O  O110  1  0.438496  0.713239  0.239471  1
  O  O111  1  0.320080  0.616602  0.275830  1
  O  O112  1  0.437797  0.213620  0.344533  1
  O  O113  1  0.190970  0.741168  0.255816  1
  O  O114  1  0.402294  0.409804  0.360145  1
  O  O115  1  0.432443  0.664373  0.215946  1
  O  O116  1  0.430496  0.166494  0.396196  1
  O  O117  1  0.304566  0.820684  0.485405  1
  O  O118  1  0.124682  0.148449  0.399505  1
  O  O119  1  0.271394  0.531784  0.308991  1
  O  O120  1  0.303240  0.319213  0.327571  1
  O  O121  1  0.123326  0.649805  0.221694  1
  O  O122  1  0.056979  0.918011  0.486303  1
  O  O123  1  0.374657  0.571872  0.326959  1
  O  O124  1  0.478362  0.147907  0.440830  1
  O  O125  1  0.224977  0.968182  0.472975  1
  O  O126  1  0.195470  0.181692  0.367618  1
  O  O127  1  0.377827  0.850046  0.454783  1
  O  O128  1  0.194340  0.680138  0.235992  1
  O  O129  1  0.373538  0.352909  0.339677  1
  O  O130  1  0.127039  0.929698  0.221889  1
  O  O131  1  0.448010  0.572615  0.296530  1
  O  O132  1  0.019752  0.354621  0.381110  1
  O  O133  1  0.848524  0.835274  0.274082  1
  O  O134  1  0.560243  0.287700  0.468942  1
  O  O135  1  0.684886  0.373926  0.435472  1
  O  O136  1  0.560634  0.787207  0.362583  1
  O  O137  1  0.813821  0.257299  0.452589  1
  O  O138  1  0.592954  0.597169  0.346332  1
  O  O139  1  0.568423  0.337985  0.491579  1
  O  O140  1  0.568040  0.835186  0.310946  1
  O  O141  1  0.816131  0.125284  0.217066  1
  O  O142  1  0.938147  0.713080  0.384951  1
  O  O143  1  0.650568  0.668080  0.322783  1
  O  O144  1  0.938635  0.213889  0.490071  1
  O  O145  1  0.906969  0.904595  0.256960  1
  O  O146  1  0.687853  0.242021  0.456676  1
  O  O147  1  0.931745  0.664528  0.361360  1
  O  O148  1  0.932392  0.165752  0.251565  1
  O  O149  1  0.774622  0.031917  0.235589  1
  O  O150  1  0.803906  0.819731  0.340083  1
  O  O151  1  0.622984  0.151964  0.254182  1
  O  O152  1  0.804554  0.319257  0.473326  1
  O  O153  1  0.623359  0.648332  0.368071  1
  O  O154  1  0.875904  0.069109  0.486557  1
  O  O155  1  0.554412  0.423993  0.413276  1
  O  O156  1  0.977432  0.647187  0.327337  1
  O  O157  1  0.693792  0.182370  0.221753  1
  O  O158  1  0.875891  0.850689  0.309008  1
  O  O159  1  0.725548  0.468867  0.399560  1
  O  O160  1  0.695837  0.681836  0.379678  1
  O  O161  1  0.876843  0.352209  0.485207  1
  O  O162  1  0.946648  0.075362  0.224192  1
  O  O163  1  0.625317  0.431276  0.381453  1
  O  O164  1  0.521716  0.855613  0.266028  1
  O  O165  1  0.843854  0.474595  0.233810  1
  O  O166  1  0.682439  0.257237  0.323898  1
  O  O167  1  0.683684  0.876615  0.345532  1
  O  O168  1  0.848302  0.331933  0.239318  1
  O  O169  1  0.597905  0.091214  0.308607  1
  O  O170  1  0.813320  0.755503  0.396760  1
  O  O171  1  0.686830  0.382151  0.271772  1
  O  O172  1  0.902785  0.286497  0.290194  1
  O  O173  1  0.816269  0.243310  0.327985  1
  O  O174  1  0.652420  0.027831  0.364681  1
  O  O175  1  0.656464  0.161933  0.289863  1
  O  O176  1  0.817566  0.622218  0.419411  1
  O  O177  1  0.688039  0.742158  0.401050  1
  O  O178  1  0.902293  0.407615  0.215998  1
  O  O179  1  0.597024  0.212657  0.312253  1
  O  O180  1  0.811214  0.118257  0.347326  1
  O  O181  1  0.772869  0.421970  0.267713  1
  O  O182  1  0.772785  0.531665  0.453310  1
  O  O183  1  0.555341  0.921119  0.340343  1
  O  O184  1  0.521742  0.103678  0.339622  1
  O  O185  1  0.874767  0.569748  0.472398  1
  O  O186  1  0.624921  0.319603  0.268182  1
  O  O187  1  0.944686  0.032814  0.381764  1
  O  O188  1  0.979708  0.145596  0.296549  1
  O  O189  1  0.726401  0.078282  0.368150  1
  O  O190  1  0.727391  0.967996  0.327258  1
  O  O191  1  0.625966  0.927783  0.368418  1
  O  O192  1  0.947386  0.572963  0.441781  1
  O  O193  1  0.975787  0.397023  0.255227  1
  O  O194  1  0.553374  0.467067  0.255357  1
  O  O195  1  0.524754  0.347840  0.236668  1
  O  O196  1  0.875350  0.178391  0.309139  1
  O  O197  1  0.682428  0.756497  0.234947  1
  O  O198  1  0.562759  0.588319  0.236016  1
  O  O199  1  0.848521  0.967370  0.491816  1
  O  O200  1  0.559641  0.093534  0.419449  1
  O  O201  1  0.932818  0.968462  0.453652  1
  O  O202  1  0.932933  0.469763  0.273005  1
  O  O203  1  0.906235  0.781288  0.252211  1
  O  O204  1  0.689858  0.877988  0.216029  1
  O  O205  1  0.651602  0.531947  0.327387  1
  O  O206  1  0.937058  0.410523  0.327723  1
  O  O207  1  0.819134  0.742285  0.239075  1
  O  O208  1  0.937916  0.908383  0.433529  1
  O  O209  1  0.568228  0.029540  0.400283  1
  O  O210  1  0.568554  0.528908  0.291369  1
  O  O211  1  0.812578  0.618786  0.290856  1
  O  O212  1  0.596680  0.715769  0.270937  1
  O  O213  1  0.803614  0.573095  0.266190  1
  O  O214  1  0.623638  0.604792  0.266540  1
  O  O215  1  0.772271  0.922243  0.486836  1
  O  O216  1  0.805904  0.070946  0.399424  1
  O  O217  1  0.622111  0.106725  0.380475  1
  O  O218  1  0.522327  0.603420  0.308598  1
  O  O219  1  0.946929  0.532162  0.308117  1
  O  O220  1  0.627173  0.819189  0.254752  1
  O  O221  1  0.726826  0.577586  0.294831  1
  O  O222  1  0.697466  0.426725  0.296982  1
  O  O223  1  0.875191  0.398526  0.294745  1
  O  O224  1  0.695240  0.931390  0.453616  1
  O  O225  1  0.874000  0.898245  0.472324  1
  O  O226  1  0.978199  0.895312  0.223373  1
  O  O227  1  0.874915  0.680260  0.294733  1
  O  O228  1  0.554546  0.968961  0.472124  1
  O  O229  1  0.151643  0.031715  0.508047  1
  O  O230  1  0.068963  0.029588  0.545460  1
  O  O231  1  0.304258  0.071569  0.544554  1
  O  O232  1  0.124604  0.105540  0.526213  1
  O  O233  1  0.446097  0.034235  0.525844  1
  O  O234  1  0.228107  0.076248  0.513280  1
  O  O235  1  0.226554  0.468596  0.544687  1
  O  O236  1  0.124553  0.430257  0.526374  1
  O  O237  1  0.061056  0.781968  0.510121  1
  O  O238  1  0.311876  0.754992  0.542012  1
  O  O239  1  0.438496  0.713239  0.530029  1
  O  O240  1  0.190970  0.741168  0.546375  1
  O  O241  1  0.432443  0.664373  0.506505  1
  O  O242  1  0.123326  0.649805  0.512252  1
  O  O243  1  0.194340  0.680138  0.526551  1
  O  O244  1  0.127039  0.929698  0.512448  1
  O  O245  1  0.816131  0.125284  0.507625  1
  O  O246  1  0.906969  0.904595  0.547518  1
  O  O247  1  0.932392  0.165752  0.542124  1
  O  O248  1  0.774622  0.031917  0.526148  1
  O  O249  1  0.622984  0.151964  0.544740  1
  O  O250  1  0.693792  0.182370  0.512311  1
  O  O251  1  0.946648  0.075362  0.514751  1
  O  O252  1  0.843854  0.474595  0.524368  1
  O  O253  1  0.848302  0.331933  0.529877  1
  O  O254  1  0.902293  0.407615  0.506557  1
  O  O255  1  0.975787  0.397023  0.545785  1
  O  O256  1  0.553374  0.467067  0.545916  1
  O  O257  1  0.524754  0.347840  0.527227  1
  O  O258  1  0.682428  0.756497  0.525505  1
  O  O259  1  0.562759  0.588319  0.526574  1
  O  O260  1  0.906235  0.781288  0.542770  1
  O  O261  1  0.689858  0.877988  0.506588  1
  O  O262  1  0.819134  0.742285  0.529634  1
  O  O263  1  0.627173  0.819189  0.545310  1
  O  O264  1  0.978199  0.895312  0.513932  1
  Si  Si265  1  0.097139  0.039838  0.198449  1
  Si  Si266  1  0.365513  0.140814  0.195770  1
  Si  Si267  1  0.095979  0.539661  0.195498  1
  Si  Si268  1  0.495504  0.407426  0.196072  1
  Si  Si269  1  0.254514  0.858493  0.205534  1
  Si  Si270  1  0.007218  0.892617  0.200363  1
  Si  Si271  1  0.386052  0.766732  0.202231  1
  Si  Si272  1  0.865376  0.131982  0.199344  1
  Si  Si273  1  0.884632  0.268786  0.205131  1
  Si  Si274  1  0.848057  0.406361  0.202344  1
  Si  Si275  1  0.847972  0.893267  0.207060  1
  Si  Si276  1  0.745736  0.869643  0.202616  1
  Si  Si277  1  0.347814  0.398304  0.417158  1
  Si  Si278  1  0.115891  0.535643  0.418055  1
  Si  Si279  1  0.254220  0.130769  0.214968  1
  Si  Si280  1  0.116989  0.036914  0.269008  1
  Si  Si281  1  0.097139  0.039838  0.489008  1
  Si  Si282  1  0.133612  0.362031  0.422822  1
  Si  Si283  1  0.493027  0.911947  0.273322  1
  Si  Si284  1  0.242982  0.372779  0.435553  1
  Si  Si285  1  0.383132  0.464381  0.435195  1
  Si  Si286  1  0.152531  0.104240  0.212570  1
  Si  Si287  1  0.386152  0.963627  0.293970  1
  Si  Si288  1  0.402503  0.463299  0.365953  1
  Si  Si289  1  0.005855  0.590352  0.367463  1
  Si  Si290  1  0.365513  0.140814  0.486328  1
  Si  Si291  1  0.256700  0.628251  0.417396  1
  Si  Si292  1  0.347524  0.897159  0.350965  1
  Si  Si293  1  0.348337  0.905495  0.415374  1
  Si  Si294  1  0.256003  0.358133  0.294417  1
  Si  Si295  1  0.364303  0.128293  0.344899  1
  Si  Si296  1  0.006777  0.393896  0.279567  1
  Si  Si297  1  0.095979  0.539661  0.486057  1
  Si  Si298  1  0.495504  0.407426  0.486630  1
  Si  Si299  1  0.401351  0.732362  0.433298  1
  Si  Si300  1  0.133856  0.859884  0.366622  1
  Si  Si301  1  0.152154  0.603788  0.435967  1
  Si  Si302  1  0.243957  0.871246  0.346678  1
  Si  Si303  1  0.243119  0.141588  0.357523  1
  Si  Si304  1  0.151987  0.592784  0.214853  1
  Si  Si305  1  0.495085  0.102109  0.363431  1
  Si  Si306  1  0.400804  0.963840  0.363365  1
  Si  Si307  1  0.135967  0.369237  0.275160  1
  Si  Si308  1  0.364362  0.642291  0.429861  1
  Si  Si309  1  0.006741  0.089594  0.289462  1
  Si  Si310  1  0.098626  0.767541  0.423002  1
  Si  Si311  1  0.254514  0.858493  0.496092  1
  Si  Si312  1  0.114611  0.233572  0.359861  1
  Si  Si313  1  0.346801  0.409123  0.347007  1
  Si  Si314  1  0.112627  0.734365  0.212034  1
  Si  Si315  1  0.007218  0.892617  0.490922  1
  Si  Si316  1  0.367501  0.626050  0.289192  1
  Si  Si317  1  0.403169  0.230513  0.430772  1
  Si  Si318  1  0.150471  0.093189  0.439427  1
  Si  Si319  1  0.386052  0.766732  0.492790  1
  Si  Si320  1  0.245484  0.638315  0.269693  1
  Si  Si321  1  0.383642  0.267319  0.350235  1
  Si  Si322  1  0.137687  0.868351  0.218148  1
  Si  Si323  1  0.493808  0.602728  0.285270  1
  Si  Si324  1  0.095116  0.270300  0.419153  1
  Si  Si325  1  0.849831  0.907280  0.268912  1
  Si  Si326  1  0.612792  0.236455  0.214917  1
  Si  Si327  1  0.758772  0.354994  0.440852  1
  Si  Si328  1  0.616223  0.731355  0.357430  1
  Si  Si329  1  0.865376  0.131982  0.489903  1
  Si  Si330  1  0.506299  0.397494  0.423139  1
  Si  Si331  1  0.903244  0.733235  0.287594  1
  Si  Si332  1  0.743015  0.143689  0.211153  1
  Si  Si333  1  0.884650  0.766696  0.347857  1
  Si  Si334  1  0.649383  0.595363  0.359863  1
  Si  Si335  1  0.884632  0.268786  0.495690  1
  Si  Si336  1  0.994446  0.102526  0.218371  1
  Si  Si337  1  0.635558  0.367742  0.421289  1
  Si  Si338  1  0.596941  0.769423  0.276694  1
  Si  Si339  1  0.847317  0.397942  0.271241  1
  Si  Si340  1  0.756449  0.130107  0.360446  1
  Si  Si341  1  0.756966  0.857712  0.350966  1
  Si  Si342  1  0.848057  0.406361  0.492903  1
  Si  Si343  1  0.503731  0.898940  0.343702  1
  Si  Si344  1  0.597468  0.036882  0.345569  1
  Si  Si345  1  0.866340  0.628535  0.433576  1
  Si  Si346  1  0.634109  0.360670  0.277986  1
  Si  Si347  1  0.992634  0.910308  0.419594  1
  Si  Si348  1  0.903709  0.231007  0.285090  1
  Si  Si349  1  0.743207  0.371343  0.291001  1
  Si  Si350  1  0.651476  0.102995  0.358197  1
  Si  Si351  1  0.652842  0.092585  0.294765  1
  Si  Si352  1  0.741901  0.644605  0.412595  1
  Si  Si353  1  0.637060  0.866944  0.364245  1
  Si  Si354  1  0.994669  0.601468  0.431345  1
  Si  Si355  1  0.900829  0.461962  0.221807  1
  Si  Si356  1  0.506230  0.589618  0.222157  1
  Si  Si357  1  0.599034  0.263648  0.275876  1
  Si  Si358  1  0.863912  0.138517  0.342539  1
  Si  Si359  1  0.756340  0.629142  0.271757  1
  Si  Si360  1  0.616729  0.535886  0.272950  1
  Si  Si361  1  0.847972  0.893267  0.497619  1
  Si  Si362  1  0.613641  0.039918  0.413633  1
  Si  Si363  1  0.596771  0.541492  0.341280  1
  Si  Si364  1  0.993686  0.409415  0.341755  1
  Si  Si365  1  0.636039  0.858165  0.221671  1
  Si  Si366  1  0.651404  0.603729  0.290182  1
  Si  Si367  1  0.884294  0.463639  0.290651  1
  Si  Si368  1  0.745736  0.869643  0.493174  1
  Si  Si369  1  0.885723  0.961287  0.439674  1
  Si  Si370  1  0.904091  0.959179  0.219690  1
  Si  Si371  1  0.866064  0.638875  0.285003  1
  Si  Si372  1  0.503780  0.094355  0.432927  1
  Si  Si373  1  0.254220  0.130769  0.505527  1
  Si  Si374  1  0.152531  0.104240  0.503129  1
  Si  Si375  1  0.151987  0.592784  0.505412  1
  Si  Si376  1  0.112627  0.734365  0.502592  1
  Si  Si377  1  0.137687  0.868351  0.508707  1
  Si  Si378  1  0.612792  0.236455  0.505476  1
  Si  Si379  1  0.743015  0.143689  0.501711  1
  Si  Si380  1  0.994446  0.102526  0.508929  1
  Si  Si381  1  0.900829  0.461962  0.512365  1
  Si  Si382  1  0.506230  0.589618  0.512716  1
  Si  Si383  1  0.636039  0.858165  0.512230  1
  Si  Si384  1  0.904091  0.959179  0.510249  1
  H  H385  1  0.180993  0.258076  0.163034  1
  H  H386  1  0.317325  0.245064  0.166402  1
  H  H387  1  0.438322  0.410054  0.166681  1
  H  H388  1  0.096518  0.216193  0.150950  1
  H  H389  1  0.374208  0.178781  0.147550  1
  H  H390  1  0.151428  0.530936  0.166786  1
  H  H391  1  0.153109  0.665293  0.163240  1
  H  H392  1  0.020430  0.605510  0.147799  1
  H  H393  1  0.445800  0.531974  0.148275  1
  H  H394  1  0.476831  0.646328  0.166902  1
  H  H395  1  0.093529  0.096075  0.145777  1
  H  H396  1  0.065992  0.836894  0.151011  1
  H  H397  1  0.224977  0.968182  0.167266  1
  H  H398  1  0.377827  0.850046  0.149074  1
  H  H399  1  0.560243  0.287700  0.163233  1
  H  H400  1  0.813821  0.257299  0.146880  1
  H  H401  1  0.687853  0.242021  0.150966  1
  H  H402  1  0.804554  0.319257  0.167617  1
  H  H403  1  0.772785  0.531665  0.147601  1
  H  H404  1  0.874767  0.569748  0.166689  1
  H  H405  1  0.932818  0.968462  0.147943  1
  H  H406  1  0.695240  0.931390  0.147907  1
  H  H407  1  0.874000  0.898245  0.166614  1
  H  H408  1  0.554546  0.968961  0.166415  1
  H  H409  1  0.068963  0.029588  0.560611  1
  H  H410  1  0.304258  0.071569  0.559704  1
  H  H411  1  0.124604  0.105540  0.541363  1
  H  H412  1  0.446097  0.034235  0.540995  1
  H  H413  1  0.226554  0.468596  0.559838  1
  H  H414  1  0.124553  0.430257  0.541524  1
  H  H415  1  0.311876  0.754992  0.557163  1
  H  H416  1  0.438496  0.713239  0.545180  1
  H  H417  1  0.190970  0.741168  0.561526  1
  H  H418  1  0.194340  0.680138  0.541701  1
  H  H419  1  0.906969  0.904595  0.562669  1
  H  H420  1  0.932392  0.165752  0.557274  1
  H  H421  1  0.774622  0.031917  0.541298  1
  H  H422  1  0.622984  0.151964  0.559891  1
  H  H423  1  0.843854  0.474595  0.539519  1
  H  H424  1  0.848302  0.331933  0.545027  1
  H  H425  1  0.975787  0.397023  0.560936  1
  H  H426  1  0.553374  0.467067  0.561067  1
  H  H427  1  0.524754  0.347840  0.542378  1
  H  H428  1  0.682428  0.756497  0.540656  1
  H  H429  1  0.562759  0.588319  0.541725  1
  H  H430  1  0.906235  0.781288  0.557920  1
  H  H431  1  0.819134  0.742285  0.544784  1
  H  H432  1  0.627173  0.819189  0.560461  1
