# generated using pymatgen
data_Si57H2O115
_symmetry_space_group_name_H-M   'P 1'
_cell_length_a   14.05413494
_cell_length_b   13.77403359
_cell_length_c   109.42283056
_cell_angle_alpha   90.00000000
_cell_angle_beta   90.00000000
_cell_angle_gamma   90.00000000
_symmetry_Int_Tables_number   1
_chemical_formula_structural   Si57H2O115
_chemical_formula_sum   'Si228 H8 O460'
_cell_volume   21182.3042541
_cell_formula_units_Z   4
loop_
 _symmetry_equiv_pos_site_id
 _symmetry_equiv_pos_as_xyz
  1  'x, y, z'
loop_
 _atom_site_type_symbol
 _atom_site_label
 _atom_site_symmetry_multiplicity
 _atom_site_fract_x
 _atom_site_fract_y
 _atom_site_fract_z
 _atom_site_occupancy
  O  O1  1  -0.000000  0.337983  0.199341  1
  O  O2  1  0.500420  0.663924  0.219819  1
  O  O3  1  0.584192  0.750958  0.201595  1
  O  O4  1  0.910927  0.249755  0.217039  1
  O  O5  1  0.730466  0.249767  0.249368  1
  O  O6  1  0.667406  0.413527  0.241918  1
  O  O7  1  0.668114  0.085831  0.241843  1
  O  O8  1  0.791425  0.414494  0.257215  1
  O  O9  1  0.791052  0.085041  0.257309  1
  O  O10  1  0.659416  0.837265  0.182474  1
  O  O11  1  0.836769  0.337500  0.236130  1
  O  O12  1  0.836810  0.161770  0.236163  1
  O  O13  1  0.660806  0.661766  0.182537  1
  O  O14  1  0.868741  0.749419  0.275270  1
  O  O15  1  0.828219  0.912760  0.265150  1
  O  O16  1  0.827781  0.586705  0.265019  1
  O  O17  1  0.870449  0.912128  0.286606  1
  O  O18  1  0.870608  0.584695  0.286413  1
  O  O19  1  0.587942  0.583702  0.238472  1
  O  O20  1  0.589217  0.916246  0.238195  1
  O  O21  1  0.750178  0.024700  0.279180  1
  O  O22  1  0.752834  0.473971  0.279231  1
  O  O23  1  0.660114  0.972810  0.258756  1
  O  O24  1  0.659277  0.525584  0.258921  1
  O  O25  1  0.500310  0.842061  0.219466  1
  O  O26  1  0.998835  0.162135  0.199250  1
  O  O27  1  0.000000  0.871767  0.271523  1
  O  O28  1  0.000000  0.626820  0.271241  1
  O  O29  1  0.503337  0.750945  0.238616  1
  O  O30  1  0.000000  0.249194  0.235871  1
  O  O31  1  0.770513  0.749946  0.169796  1
  O  O32  1  0.770470  0.250832  0.086069  1
  O  O33  1  0.829032  0.914994  0.177401  1
  O  O34  1  0.832366  0.086927  0.078377  1
  O  O35  1  0.830682  0.584649  0.177163  1
  O  O36  1  0.831034  0.416356  0.078708  1
  O  O37  1  0.709906  0.914168  0.161570  1
  O  O38  1  0.710922  0.085251  0.093923  1
  O  O39  1  0.709790  0.586778  0.161474  1
  O  O40  1  0.706698  0.413068  0.094283  1
  O  O41  1  0.630174  0.249804  0.143534  1
  O  O42  1  0.630326  0.749765  0.112126  1
  O  O43  1  0.671965  0.414948  0.153399  1
  O  O44  1  0.671146  0.585065  0.102127  1
  O  O45  1  0.671934  0.085834  0.153515  1
  O  O46  1  0.672412  0.913822  0.102103  1
  O  O47  1  0.628417  0.412151  0.132243  1
  O  O48  1  0.629970  0.585606  0.123385  1
  O  O49  1  0.629239  0.085297  0.132341  1
  O  O50  1  0.628159  0.912026  0.123489  1
  O  O51  1  0.998225  0.750427  0.075504  1
  O  O52  1  0.913711  0.916672  0.075272  1
  O  O53  1  0.912983  0.084872  0.180177  1
  O  O54  1  0.911628  0.585918  0.075198  1
  O  O55  1  0.912247  0.414974  0.180501  1
  O  O56  1  0.750767  0.525499  0.139675  1
  O  O57  1  0.747857  0.473158  0.116034  1
  O  O58  1  0.748008  0.973670  0.139607  1
  O  O59  1  0.748166  0.023969  0.115871  1
  O  O60  1  0.840135  0.473639  0.160066  1
  O  O61  1  0.839563  0.526067  0.095638  1
  O  O62  1  0.840325  0.026568  0.159729  1
  O  O63  1  0.841079  0.972391  0.095769  1
  O  O64  1  0.998025  0.962384  0.169326  1
  O  O65  1  0.000000  0.037478  0.086800  1
  O  O66  1  0.500054  0.872264  0.108239  1
  O  O67  1  0.588961  0.250573  0.053919  1
  O  O68  1  0.663032  0.162724  0.072950  1
  O  O69  1  0.661558  0.338646  0.073131  1
  O  O70  1  0.499517  0.037127  0.249824  1
  O  O71  1  0.499843  0.458981  0.250256  1
  O  O72  1  0.414700  0.751135  0.201693  1
  O  O73  1  0.087413  0.249027  0.217066  1
  O  O74  1  0.268990  0.249118  0.249341  1
  O  O75  1  0.331243  0.085842  0.241667  1
  O  O76  1  0.330942  0.414692  0.242178  1
  O  O77  1  0.208451  0.084992  0.257420  1
  O  O78  1  0.207025  0.412373  0.257309  1
  O  O79  1  0.338328  0.659864  0.182892  1
  O  O80  1  0.161806  0.161047  0.236202  1
  O  O81  1  0.161615  0.336988  0.236180  1
  O  O82  1  0.337603  0.837804  0.182467  1
  O  O83  1  0.129846  0.749016  0.275260  1
  O  O84  1  0.173166  0.584491  0.265161  1
  O  O85  1  0.171439  0.913581  0.265479  1
  O  O86  1  0.127450  0.586408  0.286475  1
  O  O87  1  0.129490  0.913508  0.286460  1
  O  O88  1  0.414917  0.916848  0.238611  1
  O  O89  1  0.416927  0.584008  0.238959  1
  O  O90  1  0.247519  0.473677  0.279025  1
  O  O91  1  0.249196  0.027442  0.279339  1
  O  O92  1  0.343228  0.525818  0.259263  1
  O  O93  1  0.339258  0.974987  0.259067  1
  O  O94  1  0.231655  0.249932  0.085839  1
  O  O95  1  0.229893  0.751075  0.169755  1
  O  O96  1  0.169502  0.415529  0.078674  1
  O  O97  1  0.169256  0.585683  0.177199  1
  O  O98  1  0.168876  0.084472  0.078722  1
  O  O99  1  0.167223  0.915130  0.177513  1
  O  O100  1  0.290952  0.414772  0.093951  1
  O  O101  1  0.292213  0.585631  0.161761  1
  O  O102  1  0.290778  0.085079  0.093945  1
  O  O103  1  0.291414  0.914204  0.161445  1
  O  O104  1  0.369739  0.750418  0.112192  1
  O  O105  1  0.368954  0.250329  0.143563  1
  O  O106  1  0.327332  0.913651  0.102082  1
  O  O107  1  0.327837  0.085622  0.153502  1
  O  O108  1  0.327657  0.586329  0.102153  1
  O  O109  1  0.328856  0.413155  0.153901  1
  O  O110  1  0.370756  0.915317  0.123234  1
  O  O111  1  0.371180  0.088498  0.132091  1
  O  O112  1  0.371410  0.588260  0.123550  1
  O  O113  1  0.370232  0.415295  0.132453  1
  O  O114  1  0.499877  0.372311  0.147435  1
  O  O115  1  0.000000  0.535843  0.169278  1
  O  O116  1  0.088143  0.415774  0.180590  1
  O  O117  1  0.085563  0.585306  0.075513  1
  O  O118  1  0.087415  0.085227  0.180637  1
  O  O119  1  0.085957  0.914760  0.075584  1
  O  O120  1  0.498788  0.748092  0.182124  1
  O  O121  1  0.251672  0.026540  0.115943  1
  O  O122  1  0.251689  0.975891  0.139702  1
  O  O123  1  0.251800  0.475915  0.115901  1
  O  O124  1  0.252826  0.525765  0.139769  1
  O  O125  1  0.158154  0.972523  0.096007  1
  O  O126  1  0.159545  0.025051  0.160275  1
  O  O127  1  0.158846  0.528262  0.095892  1
  O  O128  1  0.161033  0.473573  0.160166  1
  O  O129  1  0.000000  0.464332  0.086670  1
  O  O130  1  0.499668  0.127862  0.147321  1
  O  O131  1  0.000000  0.250619  0.180168  1
  O  O132  1  0.499842  0.627709  0.108383  1
  O  O133  1  0.414823  0.249566  0.054036  1
  O  O134  1  0.337809  0.339575  0.072795  1
  O  O135  1  0.337603  0.159959  0.072802  1
  O  O136  1  0.499181  0.249767  0.072946  1
  O  O137  1  0.001593  0.838105  0.056439  1
  O  O138  1  -0.000000  0.662542  0.056437  1
  O  O139  1  0.000000  0.337983  0.525841  1
  O  O140  1  0.500420  0.663924  0.546318  1
  O  O141  1  0.584192  0.750958  0.528095  1
  O  O142  1  0.910927  0.249755  0.543539  1
  O  O143  1  0.730466  0.249767  0.575867  1
  O  O144  1  0.667406  0.413527  0.568418  1
  O  O145  1  0.668114  0.085831  0.568343  1
  O  O146  1  0.791425  0.414494  0.583715  1
  O  O147  1  0.791052  0.085041  0.583808  1
  O  O148  1  0.659416  0.837265  0.508974  1
  O  O149  1  0.836769  0.337500  0.562630  1
  O  O150  1  0.836810  0.161770  0.562663  1
  O  O151  1  0.660806  0.661766  0.509036  1
  O  O152  1  0.868741  0.749419  0.601769  1
  O  O153  1  0.828219  0.912760  0.591650  1
  O  O154  1  0.827781  0.586705  0.591518  1
  O  O155  1  0.870449  0.912128  0.613106  1
  O  O156  1  0.870608  0.584695  0.612913  1
  O  O157  1  0.587942  0.583702  0.564972  1
  O  O158  1  0.589217  0.916246  0.564695  1
  O  O159  1  0.750178  0.024700  0.605679  1
  O  O160  1  0.752834  0.473971  0.605731  1
  O  O161  1  0.660114  0.972810  0.585256  1
  O  O162  1  0.659277  0.525584  0.585420  1
  O  O163  1  0.500310  0.842061  0.545966  1
  O  O164  1  0.998835  0.162135  0.525750  1
  O  O165  1  0.000000  0.871767  0.598023  1
  O  O166  1  0.000000  0.626820  0.597741  1
  O  O167  1  0.503337  0.750945  0.565116  1
  O  O168  1  0.000000  0.249194  0.562371  1
  O  O169  1  0.770513  0.749946  0.496296  1
  O  O170  1  0.770470  0.250832  0.412568  1
  O  O171  1  0.829032  0.914994  0.503901  1
  O  O172  1  0.832366  0.086927  0.404877  1
  O  O173  1  0.830682  0.584649  0.503663  1
  O  O174  1  0.831034  0.416356  0.405208  1
  O  O175  1  0.709906  0.914168  0.488070  1
  O  O176  1  0.710922  0.085251  0.420423  1
  O  O177  1  0.709790  0.586778  0.487973  1
  O  O178  1  0.706698  0.413068  0.420783  1
  O  O179  1  0.630174  0.249804  0.470034  1
  O  O180  1  0.630326  0.749765  0.438626  1
  O  O181  1  0.671965  0.414948  0.479899  1
  O  O182  1  0.671146  0.585065  0.428627  1
  O  O183  1  0.671934  0.085834  0.480014  1
  O  O184  1  0.672412  0.913822  0.428603  1
  O  O185  1  0.628417  0.412151  0.458743  1
  O  O186  1  0.629970  0.585606  0.449884  1
  O  O187  1  0.629239  0.085297  0.458841  1
  O  O188  1  0.628159  0.912026  0.449989  1
  O  O189  1  0.998225  0.750427  0.402004  1
  O  O190  1  0.913711  0.916672  0.401772  1
  O  O191  1  0.912983  0.084872  0.506677  1
  O  O192  1  0.911628  0.585918  0.401698  1
  O  O193  1  0.912247  0.414974  0.507001  1
  O  O194  1  0.750767  0.525499  0.466174  1
  O  O195  1  0.747857  0.473158  0.442533  1
  O  O196  1  0.748008  0.973670  0.466107  1
  O  O197  1  0.748166  0.023969  0.442371  1
  O  O198  1  0.840135  0.473639  0.486566  1
  O  O199  1  0.839563  0.526067  0.422137  1
  O  O200  1  0.840325  0.026568  0.486228  1
  O  O201  1  0.841079  0.972391  0.422269  1
  O  O202  1  0.998025  0.962384  0.495826  1
  O  O203  1  0.000000  0.037478  0.413299  1
  O  O204  1  0.500054  0.872264  0.434738  1
  O  O205  1  0.501656  0.337576  0.362582  1
  O  O206  1  0.502160  0.161867  0.362586  1
  O  O207  1  0.914479  0.750666  0.364939  1
  O  O208  1  0.588961  0.250573  0.380419  1
  O  O209  1  0.731915  0.750005  0.332995  1
  O  O210  1  0.668747  0.585357  0.340459  1
  O  O211  1  0.668401  0.914658  0.340338  1
  O  O212  1  0.791884  0.584628  0.325020  1
  O  O213  1  0.791936  0.915306  0.324942  1
  O  O214  1  0.837334  0.660572  0.346151  1
  O  O215  1  0.663032  0.162724  0.399450  1
  O  O216  1  0.661558  0.338646  0.399630  1
  O  O217  1  0.837104  0.840039  0.346113  1
  O  O218  1  0.869231  0.250228  0.306846  1
  O  O219  1  0.828428  0.087432  0.317056  1
  O  O220  1  0.828336  0.412739  0.317158  1
  O  O221  1  0.870197  0.085374  0.295601  1
  O  O222  1  0.871694  0.412423  0.295497  1
  O  O223  1  0.501917  0.249658  0.343486  1
  O  O224  1  0.588671  0.414895  0.343846  1
  O  O225  1  0.588538  0.084730  0.343750  1
  O  O226  1  0.998803  0.750554  0.346029  1
  O  O227  1  0.752479  0.974956  0.302904  1
  O  O228  1  0.753042  0.523168  0.303087  1
  O  O229  1  0.660185  0.026763  0.323311  1
  O  O230  1  0.660227  0.473053  0.323464  1
  O  O231  1  0.000000  0.373062  0.310803  1
  O  O232  1  0.000000  0.127640  0.310734  1
  O  O233  1  0.499517  0.037127  0.576324  1
  O  O234  1  0.499843  0.458981  0.576756  1
  O  O235  1  0.414700  0.751135  0.528192  1
  O  O236  1  0.087413  0.249027  0.543566  1
  O  O237  1  0.268990  0.249118  0.575841  1
  O  O238  1  0.331243  0.085842  0.568167  1
  O  O239  1  0.330942  0.414692  0.568678  1
  O  O240  1  0.208451  0.084992  0.583920  1
  O  O241  1  0.207025  0.412373  0.583809  1
  O  O242  1  0.338328  0.659864  0.509391  1
  O  O243  1  0.161806  0.161047  0.562702  1
  O  O244  1  0.161615  0.336988  0.562680  1
  O  O245  1  0.337603  0.837804  0.508966  1
  O  O246  1  0.129846  0.749016  0.601759  1
  O  O247  1  0.173166  0.584491  0.591661  1
  O  O248  1  0.171439  0.913581  0.591979  1
  O  O249  1  0.127450  0.586408  0.612974  1
  O  O250  1  0.129490  0.913508  0.612960  1
  O  O251  1  0.414917  0.916848  0.565110  1
  O  O252  1  0.416927  0.584008  0.565459  1
  O  O253  1  0.247519  0.473677  0.605525  1
  O  O254  1  0.249196  0.027442  0.605839  1
  O  O255  1  0.343228  0.525818  0.585763  1
  O  O256  1  0.339258  0.974987  0.585566  1
  O  O257  1  0.231655  0.249932  0.412339  1
  O  O258  1  0.229893  0.751075  0.496255  1
  O  O259  1  0.169502  0.415529  0.405173  1
  O  O260  1  0.169256  0.585683  0.503699  1
  O  O261  1  0.168876  0.084472  0.405222  1
  O  O262  1  0.167223  0.915130  0.504013  1
  O  O263  1  0.290952  0.414772  0.420451  1
  O  O264  1  0.292213  0.585631  0.488261  1
  O  O265  1  0.290778  0.085079  0.420445  1
  O  O266  1  0.291414  0.914204  0.487944  1
  O  O267  1  0.369739  0.750418  0.438691  1
  O  O268  1  0.368954  0.250329  0.470063  1
  O  O269  1  0.327332  0.913651  0.428581  1
  O  O270  1  0.327837  0.085622  0.480002  1
  O  O271  1  0.327657  0.586329  0.428653  1
  O  O272  1  0.328856  0.413155  0.480401  1
  O  O273  1  0.370756  0.915317  0.449734  1
  O  O274  1  0.371180  0.088498  0.458591  1
  O  O275  1  0.371410  0.588260  0.450050  1
  O  O276  1  0.370232  0.415295  0.458953  1
  O  O277  1  0.499877  0.372311  0.473934  1
  O  O278  1  0.000000  0.535843  0.495778  1
  O  O279  1  0.088143  0.415774  0.507089  1
  O  O280  1  0.085563  0.585306  0.402012  1
  O  O281  1  0.087415  0.085227  0.507136  1
  O  O282  1  0.085957  0.914760  0.402084  1
  O  O283  1  0.498788  0.748092  0.508623  1
  O  O284  1  0.251672  0.026540  0.442443  1
  O  O285  1  0.251689  0.975891  0.466202  1
  O  O286  1  0.251800  0.475915  0.442401  1
  O  O287  1  0.252826  0.525765  0.466268  1
  O  O288  1  0.158154  0.972523  0.422507  1
  O  O289  1  0.159545  0.025051  0.486774  1
  O  O290  1  0.158846  0.528262  0.422392  1
  O  O291  1  0.161033  0.473573  0.486666  1
  O  O292  1  0.000000  0.464332  0.413170  1
  O  O293  1  0.499668  0.127862  0.473820  1
  O  O294  1  0.000000  0.250619  0.506668  1
  O  O295  1  0.499842  0.627709  0.434883  1
  O  O296  1  0.499364  0.963004  0.332341  1
  O  O297  1  0.088580  0.749813  0.365075  1
  O  O298  1  0.414823  0.249566  0.380536  1
  O  O299  1  0.269691  0.749120  0.332801  1
  O  O300  1  0.331936  0.913135  0.340558  1
  O  O301  1  0.330837  0.585265  0.340600  1
  O  O302  1  0.208526  0.915204  0.324889  1
  O  O303  1  0.204470  0.586154  0.324764  1
  O  O304  1  0.162573  0.837829  0.345969  1
  O  O305  1  0.337809  0.339575  0.399295  1
  O  O306  1  0.337603  0.159959  0.399302  1
  O  O307  1  0.161551  0.661779  0.345877  1
  O  O308  1  0.130428  0.250682  0.307030  1
  O  O309  1  0.170128  0.413365  0.317308  1
  O  O310  1  0.170824  0.087563  0.317118  1
  O  O311  1  0.129065  0.414178  0.295741  1
  O  O312  1  0.129673  0.086899  0.295656  1
  O  O313  1  0.499181  0.249767  0.399446  1
  O  O314  1  0.414797  0.083209  0.343716  1
  O  O315  1  0.414900  0.415917  0.343702  1
  O  O316  1  0.245259  0.525585  0.302912  1
  O  O317  1  0.247070  0.975789  0.302882  1
  O  O318  1  0.337795  0.476013  0.323459  1
  O  O319  1  0.338502  0.025930  0.323338  1
  O  O320  1  0.001593  0.838105  0.382939  1
  O  O321  1  0.000000  0.662542  0.382937  1
  O  O322  1  0.499655  0.537124  0.332507  1
  O  O323  1  0.000000  0.337983  0.852341  1
  O  O324  1  0.584192  0.750958  0.854595  1
  O  O325  1  0.659416  0.837265  0.835473  1
  O  O326  1  0.660806  0.661766  0.835536  1
  O  O327  1  0.998835  0.162135  0.852249  1
  O  O328  1  0.770513  0.749946  0.822796  1
  O  O329  1  0.770470  0.250832  0.739068  1
  O  O330  1  0.829032  0.914994  0.830401  1
  O  O331  1  0.832366  0.086927  0.731376  1
  O  O332  1  0.830682  0.584649  0.830163  1
  O  O333  1  0.831034  0.416356  0.731708  1
  O  O334  1  0.709906  0.914168  0.814570  1
  O  O335  1  0.710922  0.085251  0.746923  1
  O  O336  1  0.709790  0.586778  0.814473  1
  O  O337  1  0.706698  0.413068  0.747282  1
  O  O338  1  0.630174  0.249804  0.796533  1
  O  O339  1  0.630326  0.749765  0.765126  1
  O  O340  1  0.671965  0.414948  0.806399  1
  O  O341  1  0.671146  0.585065  0.755127  1
  O  O342  1  0.671934  0.085834  0.806514  1
  O  O343  1  0.672412  0.913822  0.755103  1
  O  O344  1  0.628417  0.412151  0.785243  1
  O  O345  1  0.629970  0.585606  0.776384  1
  O  O346  1  0.629239  0.085297  0.785340  1
  O  O347  1  0.628159  0.912026  0.776489  1
  O  O348  1  0.998225  0.750427  0.728503  1
  O  O349  1  0.913711  0.916672  0.728271  1
  O  O350  1  0.912983  0.084872  0.833177  1
  O  O351  1  0.911628  0.585918  0.728197  1
  O  O352  1  0.912247  0.414974  0.833501  1
  O  O353  1  0.750767  0.525499  0.792674  1
  O  O354  1  0.747857  0.473158  0.769033  1
  O  O355  1  0.748008  0.973670  0.792607  1
  O  O356  1  0.748166  0.023969  0.768871  1
  O  O357  1  0.840135  0.473639  0.813066  1
  O  O358  1  0.839563  0.526067  0.748637  1
  O  O359  1  0.840325  0.026568  0.812728  1
  O  O360  1  0.841079  0.972391  0.748768  1
  O  O361  1  0.998025  0.962384  0.822325  1
  O  O362  1  0.000000  0.037478  0.739799  1
  O  O363  1  0.500054  0.872264  0.761238  1
  O  O364  1  0.501656  0.337576  0.689081  1
  O  O365  1  0.502160  0.161867  0.689086  1
  O  O366  1  0.914479  0.750666  0.691438  1
  O  O367  1  0.588961  0.250573  0.706919  1
  O  O368  1  0.731915  0.750005  0.659495  1
  O  O369  1  0.668747  0.585357  0.666959  1
  O  O370  1  0.668401  0.914658  0.666838  1
  O  O371  1  0.791884  0.584628  0.651520  1
  O  O372  1  0.791936  0.915306  0.651441  1
  O  O373  1  0.837334  0.660572  0.672651  1
  O  O374  1  0.663032  0.162724  0.725949  1
  O  O375  1  0.661558  0.338646  0.726130  1
  O  O376  1  0.837104  0.840039  0.672613  1
  O  O377  1  0.869231  0.250228  0.633345  1
  O  O378  1  0.828428  0.087432  0.643556  1
  O  O379  1  0.828336  0.412739  0.643657  1
  O  O380  1  0.870197  0.085374  0.622100  1
  O  O381  1  0.871694  0.412423  0.621997  1
  O  O382  1  0.501917  0.249658  0.669986  1
  O  O383  1  0.588671  0.414895  0.670346  1
  O  O384  1  0.588538  0.084730  0.670250  1
  O  O385  1  0.998803  0.750554  0.672529  1
  O  O386  1  0.752479  0.974956  0.629404  1
  O  O387  1  0.753042  0.523168  0.629587  1
  O  O388  1  0.660185  0.026763  0.649811  1
  O  O389  1  0.660227  0.473053  0.649964  1
  O  O390  1  0.000000  0.373062  0.637302  1
  O  O391  1  0.000000  0.127640  0.637234  1
  O  O392  1  0.414700  0.751135  0.854692  1
  O  O393  1  0.338328  0.659864  0.835891  1
  O  O394  1  0.337603  0.837804  0.835466  1
  O  O395  1  0.231655  0.249932  0.738839  1
  O  O396  1  0.229893  0.751075  0.822755  1
  O  O397  1  0.169502  0.415529  0.731673  1
  O  O398  1  0.169256  0.585683  0.830199  1
  O  O399  1  0.168876  0.084472  0.731721  1
  O  O400  1  0.167223  0.915130  0.830512  1
  O  O401  1  0.290952  0.414772  0.746950  1
  O  O402  1  0.292213  0.585631  0.814761  1
  O  O403  1  0.290778  0.085079  0.746945  1
  O  O404  1  0.291414  0.914204  0.814444  1
  O  O405  1  0.369739  0.750418  0.765191  1
  O  O406  1  0.368954  0.250329  0.796562  1
  O  O407  1  0.327332  0.913651  0.755081  1
  O  O408  1  0.327837  0.085622  0.806502  1
  O  O409  1  0.327657  0.586329  0.755153  1
  O  O410  1  0.328856  0.413155  0.806900  1
  O  O411  1  0.370756  0.915317  0.776233  1
  O  O412  1  0.371180  0.088498  0.785090  1
  O  O413  1  0.371410  0.588260  0.776550  1
  O  O414  1  0.370232  0.415295  0.785452  1
  O  O415  1  0.499877  0.372311  0.800434  1
  O  O416  1  0.000000  0.535843  0.822278  1
  O  O417  1  0.088143  0.415774  0.833589  1
  O  O418  1  0.085563  0.585306  0.728512  1
  O  O419  1  0.087415  0.085227  0.833636  1
  O  O420  1  0.085957  0.914760  0.728584  1
  O  O421  1  0.498788  0.748092  0.835123  1
  O  O422  1  0.251672  0.026540  0.768943  1
  O  O423  1  0.251689  0.975891  0.792702  1
  O  O424  1  0.251800  0.475915  0.768900  1
  O  O425  1  0.252826  0.525765  0.792768  1
  O  O426  1  0.158154  0.972523  0.749007  1
  O  O427  1  0.159545  0.025051  0.813274  1
  O  O428  1  0.158846  0.528262  0.748892  1
  O  O429  1  0.161033  0.473573  0.813165  1
  O  O430  1  0.000000  0.464332  0.739670  1
  O  O431  1  0.499668  0.127862  0.800320  1
  O  O432  1  0.000000  0.250619  0.833168  1
  O  O433  1  0.499842  0.627709  0.761382  1
  O  O434  1  0.499364  0.963004  0.658840  1
  O  O435  1  0.088580  0.749813  0.691575  1
  O  O436  1  0.414823  0.249566  0.707036  1
  O  O437  1  0.269691  0.749120  0.659301  1
  O  O438  1  0.331936  0.913135  0.667058  1
  O  O439  1  0.330837  0.585265  0.667100  1
  O  O440  1  0.208526  0.915204  0.651388  1
  O  O441  1  0.204470  0.586154  0.651264  1
  O  O442  1  0.162573  0.837829  0.672469  1
  O  O443  1  0.337809  0.339575  0.725795  1
  O  O444  1  0.337603  0.159959  0.725802  1
  O  O445  1  0.161551  0.661779  0.672377  1
  O  O446  1  0.130428  0.250682  0.633529  1
  O  O447  1  0.170128  0.413365  0.643808  1
  O  O448  1  0.170824  0.087563  0.643618  1
  O  O449  1  0.129065  0.414178  0.622241  1
  O  O450  1  0.129673  0.086899  0.622156  1
  O  O451  1  0.499181  0.249767  0.725946  1
  O  O452  1  0.414797  0.083209  0.670215  1
  O  O453  1  0.414900  0.415917  0.670202  1
  O  O454  1  0.245259  0.525585  0.629412  1
  O  O455  1  0.247070  0.975789  0.629382  1
  O  O456  1  0.337795  0.476013  0.649959  1
  O  O457  1  0.338502  0.025930  0.649838  1
  O  O458  1  0.001593  0.838105  0.709439  1
  O  O459  1  0.000000  0.662542  0.709436  1
  O  O460  1  0.499655  0.537124  0.659007  1
  Si  Si461  1  0.502621  0.857968  0.233456  1
  Si  Si462  1  0.757821  0.355464  0.245858  1
  Si  Si463  1  0.757768  0.144025  0.245882  1
  Si  Si464  1  0.891777  0.859628  0.274465  1
  Si  Si465  1  0.892746  0.639930  0.274220  1
  Si  Si466  1  0.756584  0.997454  0.265491  1
  Si  Si467  1  0.756546  0.501271  0.265320  1
  Si  Si468  1  0.600455  0.495937  0.247128  1
  Si  Si469  1  0.603266  0.002713  0.246927  1
  Si  Si470  1  0.600130  0.749085  0.187452  1
  Si  Si471  1  0.894735  0.249572  0.230941  1
  Si  Si472  1  0.502857  0.643634  0.233842  1
  Si  Si473  1  -0.000000  0.249576  0.208589  1
  Si  Si474  1  0.808110  0.998174  0.290706  1
  Si  Si475  1  0.893687  0.005146  0.084053  1
  Si  Si476  1  0.690734  0.997765  0.127680  1
  Si  Si477  1  0.692051  0.497851  0.128209  1
  Si  Si478  1  0.896714  0.498707  0.083826  1
  Si  Si479  1  0.895897  0.502260  0.171959  1
  Si  Si480  1  0.741709  0.856278  0.173125  1
  Si  Si481  1  0.743851  0.144190  0.082510  1
  Si  Si482  1  0.741803  0.643908  0.173058  1
  Si  Si483  1  0.741345  0.357676  0.082862  1
  Si  Si484  1  0.606364  0.359158  0.144310  1
  Si  Si485  1  0.606286  0.640867  0.111264  1
  Si  Si486  1  0.606113  0.140941  0.144416  1
  Si  Si487  1  0.606685  0.859283  0.111352  1
  Si  Si488  1  0.745027  0.500167  0.153398  1
  Si  Si489  1  0.743654  0.498834  0.102018  1
  Si  Si490  1  0.745379  0.000000  0.153539  1
  Si  Si491  1  0.746199  0.998645  0.101915  1
  Si  Si492  1  0.891512  0.995528  0.171630  1
  Si  Si493  1  -0.000000  0.856156  0.070485  1
  Si  Si494  1  0.998379  0.643890  0.070560  1
  Si  Si495  1  0.603765  0.250485  0.067889  1
  Si  Si496  1  -0.000000  0.358330  0.185111  1
  Si  Si497  1  0.103709  0.248934  0.230972  1
  Si  Si498  1  0.396960  0.748261  0.187461  1
  Si  Si499  1  0.398108  0.495273  0.247668  1
  Si  Si500  1  0.242048  0.142392  0.245870  1
  Si  Si501  1  0.240532  0.355598  0.245995  1
  Si  Si502  1  0.106361  0.639591  0.274325  1
  Si  Si503  1  0.105650  0.857816  0.274462  1
  Si  Si504  1  0.246628  0.497843  0.264903  1
  Si  Si505  1  0.243663  0.000000  0.265682  1
  Si  Si506  1  0.394408  0.005347  0.247242  1
  Si  Si507  1  0.191722  0.000000  0.290874  1
  Si  Si508  1  0.189940  0.500867  0.290812  1
  Si  Si509  1  0.000000  0.143580  0.185104  1
  Si  Si510  1  0.499940  0.752935  0.210973  1
  Si  Si511  1  0.259557  0.355994  0.082424  1
  Si  Si512  1  0.259438  0.644876  0.173264  1
  Si  Si513  1  0.259210  0.143777  0.082420  1
  Si  Si514  1  0.255840  0.859581  0.172905  1
  Si  Si515  1  0.393647  0.859222  0.111188  1
  Si  Si516  1  0.392990  0.140799  0.144250  1
  Si  Si517  1  0.393174  0.640925  0.111415  1
  Si  Si518  1  0.392798  0.359704  0.144604  1
  Si  Si519  1  0.253918  0.000000  0.102005  1
  Si  Si520  1  0.255153  0.000000  0.153685  1
  Si  Si521  1  0.254177  0.501144  0.101935  1
  Si  Si522  1  0.257442  0.498390  0.153680  1
  Si  Si523  1  0.105524  0.497454  0.084188  1
  Si  Si524  1  0.104489  0.502790  0.171993  1
  Si  Si525  1  0.104661  0.002833  0.084280  1
  Si  Si526  1  0.103242  0.996400  0.172219  1
  Si  Si527  1  0.308876  0.002585  0.127883  1
  Si  Si528  1  0.308817  0.502482  0.127722  1
  Si  Si529  1  0.393243  0.249690  0.068150  1
  Si  Si530  1  0.502621  0.857968  0.559955  1
  Si  Si531  1  0.757821  0.355464  0.572358  1
  Si  Si532  1  0.757768  0.144025  0.572382  1
  Si  Si533  1  0.891777  0.859628  0.600965  1
  Si  Si534  1  0.892746  0.639930  0.600720  1
  Si  Si535  1  0.756584  0.997454  0.591991  1
  Si  Si536  1  0.756546  0.501271  0.591819  1
  Si  Si537  1  0.600455  0.495937  0.573628  1
  Si  Si538  1  0.603266  0.002713  0.573426  1
  Si  Si539  1  0.600130  0.749085  0.513951  1
  Si  Si540  1  0.894735  0.249572  0.557440  1
  Si  Si541  1  0.502857  0.643634  0.560342  1
  Si  Si542  1  0.000000  0.249576  0.535088  1
  Si  Si543  1  0.808110  0.998174  0.617206  1
  Si  Si544  1  0.893687  0.005146  0.410552  1
  Si  Si545  1  0.690734  0.997765  0.454180  1
  Si  Si546  1  0.692051  0.497851  0.454709  1
  Si  Si547  1  0.896714  0.498707  0.410326  1
  Si  Si548  1  0.895897  0.502260  0.498459  1
  Si  Si549  1  0.741709  0.856278  0.499625  1
  Si  Si550  1  0.743851  0.144190  0.409010  1
  Si  Si551  1  0.741803  0.643908  0.499557  1
  Si  Si552  1  0.741345  0.357676  0.409362  1
  Si  Si553  1  0.606364  0.359158  0.470809  1
  Si  Si554  1  0.606286  0.640867  0.437763  1
  Si  Si555  1  0.606113  0.140941  0.470916  1
  Si  Si556  1  0.606685  0.859283  0.437852  1
  Si  Si557  1  0.745027  0.500167  0.479897  1
  Si  Si558  1  0.743654  0.498834  0.428518  1
  Si  Si559  1  0.745379  0.000000  0.480039  1
  Si  Si560  1  0.746199  0.998645  0.428415  1
  Si  Si561  1  0.891512  0.995528  0.498129  1
  Si  Si562  1  0.000000  0.856156  0.396985  1
  Si  Si563  1  0.998379  0.643890  0.397060  1
  Si  Si564  1  0.502103  0.142885  0.348470  1
  Si  Si565  1  0.759185  0.643840  0.336496  1
  Si  Si566  1  0.759051  0.856342  0.336432  1
  Si  Si567  1  0.893061  0.140727  0.307813  1
  Si  Si568  1  0.892324  0.360460  0.307743  1
  Si  Si569  1  0.756809  0.002260  0.316853  1
  Si  Si570  1  0.756757  0.497384  0.317004  1
  Si  Si571  1  0.603638  0.502542  0.335281  1
  Si  Si572  1  0.603422  0.997400  0.335122  1
  Si  Si573  1  0.892823  0.750446  0.350814  1
  Si  Si574  1  0.603765  0.250485  0.394388  1
  Si  Si575  1  0.502174  0.356418  0.348470  1
  Si  Si576  1  0.502563  0.249771  0.371684  1
  Si  Si577  1  0.809392  0.497695  0.291198  1
  Si  Si578  1  0.000000  0.358330  0.511610  1
  Si  Si579  1  0.103709  0.248934  0.557471  1
  Si  Si580  1  0.396960  0.748261  0.513961  1
  Si  Si581  1  0.398108  0.495273  0.574168  1
  Si  Si582  1  0.242048  0.142392  0.572370  1
  Si  Si583  1  0.240532  0.355598  0.572495  1
  Si  Si584  1  0.106361  0.639591  0.600824  1
  Si  Si585  1  0.105650  0.857816  0.600962  1
  Si  Si586  1  0.246628  0.497843  0.591403  1
  Si  Si587  1  0.243663  0.000000  0.592182  1
  Si  Si588  1  0.394408  0.005347  0.573741  1
  Si  Si589  1  0.191722  0.000000  0.617374  1
  Si  Si590  1  0.189940  0.500867  0.617312  1
  Si  Si591  1  0.000000  0.143580  0.511604  1
  Si  Si592  1  0.499940  0.752935  0.537473  1
  Si  Si593  1  0.259557  0.355994  0.408924  1
  Si  Si594  1  0.259438  0.644876  0.499764  1
  Si  Si595  1  0.259210  0.143777  0.408920  1
  Si  Si596  1  0.255840  0.859581  0.499404  1
  Si  Si597  1  0.393647  0.859222  0.437688  1
  Si  Si598  1  0.392990  0.140799  0.470749  1
  Si  Si599  1  0.393174  0.640925  0.437915  1
  Si  Si600  1  0.392798  0.359704  0.471104  1
  Si  Si601  1  0.253918  0.000000  0.428505  1
  Si  Si602  1  0.255153  0.000000  0.480185  1
  Si  Si603  1  0.254177  0.501144  0.428435  1
  Si  Si604  1  0.257442  0.498390  0.480179  1
  Si  Si605  1  0.105524  0.497454  0.410688  1
  Si  Si606  1  0.104489  0.502790  0.498493  1
  Si  Si607  1  0.104661  0.002833  0.410780  1
  Si  Si608  1  0.103242  0.996400  0.498718  1
  Si  Si609  1  0.308876  0.002585  0.454383  1
  Si  Si610  1  0.308817  0.502482  0.454222  1
  Si  Si611  1  0.393243  0.249690  0.394650  1
  Si  Si612  1  0.242904  0.856368  0.336319  1
  Si  Si613  1  0.241782  0.641050  0.336089  1
  Si  Si614  1  0.106929  0.360081  0.307995  1
  Si  Si615  1  0.106803  0.141210  0.307870  1
  Si  Si616  1  0.240240  0.499845  0.317009  1
  Si  Si617  1  0.242215  0.002478  0.316778  1
  Si  Si618  1  0.394453  0.994819  0.335109  1
  Si  Si619  1  0.394970  0.504983  0.335238  1
  Si  Si620  1  0.103425  0.750226  0.351098  1
  Si  Si621  1  0.002165  0.750407  0.373822  1
  Si  Si622  1  0.600130  0.749085  0.840451  1
  Si  Si623  1  0.893687  0.005146  0.737052  1
  Si  Si624  1  0.690734  0.997765  0.780680  1
  Si  Si625  1  0.692051  0.497851  0.781209  1
  Si  Si626  1  0.896714  0.498707  0.736825  1
  Si  Si627  1  0.895897  0.502260  0.824958  1
  Si  Si628  1  0.741709  0.856278  0.826125  1
  Si  Si629  1  0.743851  0.144190  0.735509  1
  Si  Si630  1  0.741803  0.643908  0.826057  1
  Si  Si631  1  0.741345  0.357676  0.735861  1
  Si  Si632  1  0.606364  0.359158  0.797309  1
  Si  Si633  1  0.606286  0.640867  0.764263  1
  Si  Si634  1  0.606113  0.140941  0.797416  1
  Si  Si635  1  0.606685  0.859283  0.764352  1
  Si  Si636  1  0.745027  0.500167  0.806397  1
  Si  Si637  1  0.743654  0.498834  0.755018  1
  Si  Si638  1  0.745379  0.000000  0.806538  1
  Si  Si639  1  0.746199  0.998645  0.754915  1
  Si  Si640  1  0.891512  0.995528  0.824629  1
  Si  Si641  1  0.000000  0.856156  0.723484  1
  Si  Si642  1  0.998379  0.643890  0.723559  1
  Si  Si643  1  0.502103  0.142885  0.674970  1
  Si  Si644  1  0.759185  0.643840  0.662996  1
  Si  Si645  1  0.759051  0.856342  0.662932  1
  Si  Si646  1  0.893061  0.140727  0.634312  1
  Si  Si647  1  0.892324  0.360460  0.634243  1
  Si  Si648  1  0.756809  0.002260  0.643353  1
  Si  Si649  1  0.756757  0.497384  0.643504  1
  Si  Si650  1  0.603638  0.502542  0.661781  1
  Si  Si651  1  0.603422  0.997400  0.661622  1
  Si  Si652  1  0.892823  0.750446  0.677313  1
  Si  Si653  1  0.603765  0.250485  0.720888  1
  Si  Si654  1  0.502174  0.356418  0.674970  1
  Si  Si655  1  0.502563  0.249771  0.698184  1
  Si  Si656  1  0.809392  0.497695  0.617698  1
  Si  Si657  1  0.000000  0.358330  0.838110  1
  Si  Si658  1  0.396960  0.748261  0.840461  1
  Si  Si659  1  0.000000  0.143580  0.838104  1
  Si  Si660  1  0.259557  0.355994  0.735423  1
  Si  Si661  1  0.259438  0.644876  0.826264  1
  Si  Si662  1  0.259210  0.143777  0.735420  1
  Si  Si663  1  0.255840  0.859581  0.825904  1
  Si  Si664  1  0.393647  0.859222  0.764187  1
  Si  Si665  1  0.392990  0.140799  0.797249  1
  Si  Si666  1  0.393174  0.640925  0.764415  1
  Si  Si667  1  0.392798  0.359704  0.797603  1
  Si  Si668  1  0.253918  0.000000  0.755005  1
  Si  Si669  1  0.255153  0.000000  0.806685  1
  Si  Si670  1  0.254177  0.501144  0.754934  1
  Si  Si671  1  0.257442  0.498390  0.806679  1
  Si  Si672  1  0.105524  0.497454  0.737187  1
  Si  Si673  1  0.104489  0.502790  0.824992  1
  Si  Si674  1  0.104661  0.002833  0.737280  1
  Si  Si675  1  0.103242  0.996400  0.825218  1
  Si  Si676  1  0.308876  0.002585  0.780883  1
  Si  Si677  1  0.308817  0.502482  0.780722  1
  Si  Si678  1  0.393243  0.249690  0.721149  1
  Si  Si679  1  0.242904  0.856368  0.662818  1
  Si  Si680  1  0.241782  0.641050  0.662589  1
  Si  Si681  1  0.106929  0.360081  0.634495  1
  Si  Si682  1  0.106803  0.141210  0.634369  1
  Si  Si683  1  0.240240  0.499845  0.643509  1
  Si  Si684  1  0.242215  0.002478  0.643278  1
  Si  Si685  1  0.394453  0.994819  0.661609  1
  Si  Si686  1  0.394970  0.504983  0.661737  1
  Si  Si687  1  0.103425  0.750226  0.677598  1
  Si  Si688  1  0.002165  0.750407  0.700322  1
  H  H689  1  0.588961  0.250573  0.045694  1
  H  H690  1  0.414823  0.249566  0.045811  1
  H  H691  1  0.001593  0.838105  0.048214  1
  H  H692  1  -0.000000  0.662542  0.048212  1
  H  H693  1  0.000000  0.337983  0.860566  1
  H  H694  1  0.584192  0.750958  0.862820  1
  H  H695  1  0.998835  0.162135  0.860474  1
  H  H696  1  0.414700  0.751135  0.862917  1
