# generated using pymatgen
data_Si40H2O81
_symmetry_space_group_name_H-M   'P 1'
_cell_length_a   6.71414898
_cell_length_b   7.77198770
_cell_length_c   64.08137225
_cell_angle_alpha   90.00000000
_cell_angle_beta   90.00000000
_cell_angle_gamma   95.82700000
_symmetry_Int_Tables_number   1
_chemical_formula_structural   Si40H2O81
_chemical_formula_sum   'Si40 H2 O81'
_cell_volume   3326.63424742
_cell_formula_units_Z   1
loop_
 _symmetry_equiv_pos_site_id
 _symmetry_equiv_pos_as_xyz
  1  'x, y, z'
loop_
 _atom_site_type_symbol
 _atom_site_label
 _atom_site_symmetry_multiplicity
 _atom_site_fract_x
 _atom_site_fract_y
 _atom_site_fract_z
 _atom_site_occupancy
  O  O1  1  0.619006  0.978842  0.264075  1
  O  O2  1  0.379315  0.021431  0.131990  1
  O  O3  1  0.619075  0.978728  0.183993  1
  O  O4  1  0.898322  0.231001  0.270038  1
  O  O5  1  0.101738  0.767604  0.137778  1
  O  O6  1  0.898381  0.230890  0.178029  1
  O  O7  1  0.425175  0.785393  0.158015  1
  O  O8  1  0.573478  0.215051  0.157964  1
  O  O9  1  0.565283  0.308873  0.253091  1
  O  O10  1  0.437066  0.691580  0.121073  1
  O  O11  1  0.565335  0.308758  0.194978  1
  O  O12  1  0.786181  0.749315  0.285475  1
  O  O13  1  0.212652  0.253864  0.153173  1
  O  O14  1  0.786242  0.749201  0.162589  1
  O  O15  1  0.535795  0.635010  0.257181  1
  O  O16  1  0.463806  0.364558  0.124980  1
  O  O17  1  0.535888  0.634889  0.190884  1
  O  O18  1  0.230615  0.415389  0.260311  1
  O  O19  1  0.770211  0.580758  0.128583  1
  O  O20  1  0.230682  0.415284  0.187752  1
  O  O21  1  0.398471  0.473905  0.224032  1
  O  O22  1  0.604927  0.526938  0.092070  1
  O  O23  1  0.000000  0.502774  0.289464  1
  O  O24  1  0.000000  0.502646  0.158600  1
  O  O25  1  0.619006  0.978842  0.527998  1
  O  O26  1  0.379315  0.021431  0.395913  1
  O  O27  1  0.379241  0.021546  0.316078  1
  O  O28  1  0.619075  0.978728  0.447916  1
  O  O29  1  0.898322  0.231001  0.533961  1
  O  O30  1  0.101738  0.767604  0.401701  1
  O  O31  1  0.101677  0.767713  0.310289  1
  O  O32  1  0.898381  0.230890  0.441952  1
  O  O33  1  0.573419  0.215170  0.290105  1
  O  O34  1  0.425175  0.785393  0.421938  1
  O  O35  1  0.425123  0.785511  0.290053  1
  O  O36  1  0.573478  0.215051  0.421887  1
  O  O37  1  0.565283  0.308873  0.517014  1
  O  O38  1  0.437066  0.691580  0.384996  1
  O  O39  1  0.437020  0.691703  0.326997  1
  O  O40  1  0.565335  0.308758  0.458901  1
  O  O41  1  0.786181  0.749315  0.549398  1
  O  O42  1  0.212652  0.253864  0.417096  1
  O  O43  1  0.212588  0.253984  0.294893  1
  O  O44  1  0.786242  0.749201  0.426512  1
  O  O45  1  0.535795  0.635010  0.521104  1
  O  O46  1  0.463806  0.364558  0.388903  1
  O  O47  1  0.463715  0.364682  0.323085  1
  O  O48  1  0.535888  0.634889  0.454807  1
  O  O49  1  0.230615  0.415389  0.524234  1
  O  O50  1  0.770211  0.580758  0.392506  1
  O  O51  1  0.770143  0.580862  0.319480  1
  O  O52  1  0.230682  0.415284  0.451675  1
  O  O53  1  0.398471  0.473905  0.487955  1
  O  O54  1  0.604927  0.526938  0.355993  1
  O  O55  1  0.000000  0.502774  0.553387  1
  O  O56  1  0.000000  0.502646  0.422523  1
  O  O57  1  0.379315  0.021431  0.659836  1
  O  O58  1  0.379241  0.021546  0.580001  1
  O  O59  1  0.619075  0.978728  0.711839  1
  O  O60  1  0.101738  0.767604  0.665625  1
  O  O61  1  0.101677  0.767713  0.574212  1
  O  O62  1  0.898381  0.230890  0.705875  1
  O  O63  1  0.573419  0.215170  0.554028  1
  O  O64  1  0.425175  0.785393  0.685861  1
  O  O65  1  0.425123  0.785511  0.553976  1
  O  O66  1  0.573478  0.215051  0.685810  1
  O  O67  1  0.437066  0.691580  0.648919  1
  O  O68  1  0.437020  0.691703  0.590920  1
  O  O69  1  0.565335  0.308758  0.722824  1
  O  O70  1  0.212652  0.253864  0.681019  1
  O  O71  1  0.212588  0.253984  0.558816  1
  O  O72  1  0.786242  0.749201  0.690435  1
  O  O73  1  0.463806  0.364558  0.652826  1
  O  O74  1  0.463715  0.364682  0.587008  1
  O  O75  1  0.535888  0.634889  0.718730  1
  O  O76  1  0.770211  0.580758  0.656429  1
  O  O77  1  0.770143  0.580862  0.583403  1
  O  O78  1  0.230682  0.415284  0.715598  1
  O  O79  1  0.398471  0.473905  0.751878  1
  O  O80  1  0.604927  0.526938  0.619916  1
  O  O81  1  0.000000  0.502646  0.686446  1
  Si  Si82  1  0.664926  0.180690  0.268032  1
  Si  Si83  1  0.334993  0.819348  0.135870  1
  Si  Si84  1  0.664985  0.180579  0.180037  1
  Si  Si85  1  0.592880  0.787062  0.272957  1
  Si  Si86  1  0.405872  0.213279  0.140840  1
  Si  Si87  1  0.592957  0.786951  0.175109  1
  Si  Si88  1  0.432332  0.460061  0.248116  1
  Si  Si89  1  0.569179  0.539655  0.116146  1
  Si  Si90  1  0.432386  0.459960  0.199949  1
  Si  Si91  1  0.086606  0.347631  0.278507  1
  Si  Si92  1  0.913775  0.652675  0.146618  1
  Si  Si93  1  0.086666  0.347509  0.169558  1
  Si  Si94  1  0.664926  0.180690  0.531955  1
  Si  Si95  1  0.334993  0.819348  0.399793  1
  Si  Si96  1  0.334935  0.819462  0.312198  1
  Si  Si97  1  0.664985  0.180579  0.443960  1
  Si  Si98  1  0.592880  0.787062  0.536880  1
  Si  Si99  1  0.405872  0.213279  0.404763  1
  Si  Si100  1  0.405796  0.213393  0.307227  1
  Si  Si101  1  0.592957  0.786951  0.439032  1
  Si  Si102  1  0.432332  0.460061  0.512039  1
  Si  Si103  1  0.569179  0.539655  0.380069  1
  Si  Si104  1  0.569127  0.539760  0.331920  1
  Si  Si105  1  0.432386  0.459960  0.463873  1
  Si  Si106  1  0.086606  0.347631  0.542430  1
  Si  Si107  1  0.913775  0.652675  0.410541  1
  Si  Si108  1  0.913718  0.652797  0.301447  1
  Si  Si109  1  0.086666  0.347509  0.433481  1
  Si  Si110  1  0.334993  0.819348  0.663716  1
  Si  Si111  1  0.334935  0.819462  0.576121  1
  Si  Si112  1  0.664985  0.180579  0.707883  1
  Si  Si113  1  0.405872  0.213279  0.668686  1
  Si  Si114  1  0.405796  0.213393  0.571150  1
  Si  Si115  1  0.592957  0.786951  0.702955  1
  Si  Si116  1  0.569179  0.539655  0.643992  1
  Si  Si117  1  0.569127  0.539760  0.595843  1
  Si  Si118  1  0.432386  0.459960  0.727796  1
  Si  Si119  1  0.913775  0.652675  0.674464  1
  Si  Si120  1  0.913718  0.652797  0.565370  1
  Si  Si121  1  0.086666  0.347509  0.697404  1
  H  H122  1  0.604927  0.526938  0.078026  1
  H  H123  1  0.398471  0.473905  0.765923  1
