# generated using pymatgen
data_Si13(H3O8)4
_symmetry_space_group_name_H-M   'P 1'
_cell_length_a   24.41204530
_cell_length_b   24.41160814
_cell_length_c   52.63152614
_cell_angle_alpha   45.00446172
_cell_angle_beta   90.00000000
_cell_angle_gamma   59.99544042
_symmetry_Int_Tables_number   1
_chemical_formula_structural   Si13(H3O8)4
_chemical_formula_sum   'Si52 H48 O128'
_cell_volume   15682.8250854
_cell_formula_units_Z   4
loop_
 _symmetry_equiv_pos_site_id
 _symmetry_equiv_pos_as_xyz
  1  'x, y, z'
loop_
 _atom_site_type_symbol
 _atom_site_label
 _atom_site_symmetry_multiplicity
 _atom_site_fract_x
 _atom_site_fract_y
 _atom_site_fract_z
 _atom_site_occupancy
  O  O1  1  0.180993  0.258076  0.259873  1
  O  O2  1  0.317325  0.245064  0.263674  1
  O  O3  1  0.438322  0.410054  0.263989  1
  O  O4  1  0.096518  0.216193  0.246234  1
  O  O5  1  0.311074  0.120791  0.286654  1
  O  O6  1  0.022553  0.102032  0.278700  1
  O  O7  1  0.374208  0.178781  0.242397  1
  O  O8  1  0.096572  0.592783  0.286171  1
  O  O9  1  0.151428  0.530936  0.264107  1
  O  O10  1  0.153109  0.665293  0.260105  1
  O  O11  1  0.020430  0.605510  0.242678  1
  O  O12  1  0.445800  0.531974  0.243214  1
  O  O13  1  0.476831  0.646328  0.264238  1
  O  O14  1  0.182043  0.877927  0.283152  1
  O  O15  1  0.093529  0.096075  0.240395  1
  O  O16  1  0.065992  0.836894  0.246303  1
  O  O17  1  0.304566  0.820684  0.278678  1
  O  O18  1  0.056979  0.918011  0.279692  1
  O  O19  1  0.224977  0.968182  0.264649  1
  O  O20  1  0.377827  0.850046  0.244117  1
  O  O21  1  0.560243  0.287700  0.260097  1
  O  O22  1  0.684886  0.373926  0.222320  1
  O  O23  1  0.813821  0.257299  0.241640  1
  O  O24  1  0.568423  0.337985  0.285647  1
  O  O25  1  0.938635  0.213889  0.283945  1
  O  O26  1  0.687853  0.242021  0.246252  1
  O  O27  1  0.804554  0.319257  0.265045  1
  O  O28  1  0.875904  0.069109  0.279979  1
  O  O29  1  0.725548  0.468867  0.181788  1
  O  O30  1  0.876843  0.352209  0.278455  1
  O  O31  1  0.772785  0.531665  0.242454  1
  O  O32  1  0.874767  0.569748  0.263998  1
  O  O33  1  0.848521  0.967370  0.285915  1
  O  O34  1  0.932818  0.968462  0.242840  1
  O  O35  1  0.937916  0.908383  0.220127  1
  O  O36  1  0.772271  0.922243  0.280294  1
  O  O37  1  0.805904  0.070946  0.181635  1
  O  O38  1  0.695240  0.931390  0.242799  1
  O  O39  1  0.874000  0.898245  0.263914  1
  O  O40  1  0.554546  0.968961  0.263688  1
  O  O41  1  0.063540  0.087929  0.370321  1
  O  O42  1  0.430712  0.975730  0.404338  1
  O  O43  1  0.151643  0.031715  0.304234  1
  O  O44  1  0.438354  0.911283  0.383152  1
  O  O45  1  0.068963  0.029588  0.346461  1
  O  O46  1  0.304258  0.071569  0.345438  1
  O  O47  1  0.124604  0.105540  0.324737  1
  O  O48  1  0.446097  0.034235  0.324321  1
  O  O49  1  0.228107  0.076248  0.310140  1
  O  O50  1  0.197701  0.926995  0.406921  1
  O  O51  1  0.376708  0.898180  0.428408  1
  O  O52  1  0.182103  0.378618  0.384302  1
  O  O53  1  0.311421  0.255675  0.406454  1
  O  O54  1  0.188512  0.242863  0.410617  1
  O  O55  1  0.055998  0.419700  0.362273  1
  O  O56  1  0.226554  0.468596  0.345589  1
  O  O57  1  0.124553  0.430257  0.324918  1
  O  O58  1  0.052772  0.967147  0.428263  1
  O  O59  1  0.061730  0.282626  0.425006  1
  O  O60  1  0.061056  0.781968  0.306575  1
  O  O61  1  0.311876  0.754992  0.342569  1
  O  O62  1  0.067253  0.335272  0.450582  1
  O  O63  1  0.438496  0.713239  0.329044  1
  O  O64  1  0.320080  0.616602  0.370083  1
  O  O65  1  0.190970  0.741168  0.347494  1
  O  O66  1  0.432443  0.664373  0.302493  1
  O  O67  1  0.271394  0.531784  0.407511  1
  O  O68  1  0.303240  0.319213  0.428481  1
  O  O69  1  0.123326  0.649805  0.308980  1
  O  O70  1  0.374657  0.571872  0.427791  1
  O  O71  1  0.194340  0.680138  0.325119  1
  O  O72  1  0.127039  0.929698  0.309201  1
  O  O73  1  0.448010  0.572615  0.393446  1
  O  O74  1  0.019752  0.354621  0.488909  1
  O  O75  1  0.848524  0.835274  0.368109  1
  O  O76  1  0.592954  0.597169  0.449656  1
  O  O77  1  0.568040  0.835186  0.409717  1
  O  O78  1  0.816131  0.125284  0.303757  1
  O  O79  1  0.650568  0.668080  0.423076  1
  O  O80  1  0.906969  0.904595  0.348784  1
  O  O81  1  0.932392  0.165752  0.342695  1
  O  O82  1  0.774622  0.031917  0.324663  1
  O  O83  1  0.622984  0.151964  0.345649  1
  O  O84  1  0.977432  0.647187  0.428217  1
  O  O85  1  0.693792  0.182370  0.309047  1
  O  O86  1  0.875891  0.850689  0.407530  1
  O  O87  1  0.946648  0.075362  0.311800  1
  O  O88  1  0.625317  0.431276  0.489297  1
  O  O89  1  0.521716  0.855613  0.359019  1
  O  O90  1  0.843854  0.474595  0.322655  1
  O  O91  1  0.682439  0.257237  0.424335  1
  O  O92  1  0.848302  0.331933  0.328872  1
  O  O93  1  0.597905  0.091214  0.407077  1
  O  O94  1  0.686830  0.382151  0.365502  1
  O  O95  1  0.902785  0.286497  0.386294  1
  O  O96  1  0.816269  0.243310  0.428948  1
  O  O97  1  0.656464  0.161933  0.385921  1
  O  O98  1  0.902293  0.407615  0.302552  1
  O  O99  1  0.597024  0.212657  0.411192  1
  O  O100  1  0.772869  0.421970  0.360921  1
  O  O101  1  0.624921  0.319603  0.361451  1
  O  O102  1  0.979708  0.145596  0.393467  1
  O  O103  1  0.727391  0.967996  0.428128  1
  O  O104  1  0.975787  0.397023  0.346828  1
  O  O105  1  0.553374  0.467067  0.346975  1
  O  O106  1  0.524754  0.347840  0.325882  1
  O  O107  1  0.875350  0.178391  0.407678  1
  O  O108  1  0.682428  0.756497  0.323939  1
  O  O109  1  0.562759  0.588319  0.325145  1
  O  O110  1  0.932933  0.469763  0.366894  1
  O  O111  1  0.906235  0.781288  0.343424  1
  O  O112  1  0.689858  0.877988  0.302587  1
  O  O113  1  0.651602  0.531947  0.428273  1
  O  O114  1  0.937058  0.410523  0.428653  1
  O  O115  1  0.819134  0.742285  0.328598  1
  O  O116  1  0.568554  0.528908  0.387621  1
  O  O117  1  0.812578  0.618786  0.387042  1
  O  O118  1  0.596680  0.715769  0.364559  1
  O  O119  1  0.803614  0.573095  0.359202  1
  O  O120  1  0.623638  0.604792  0.359597  1
  O  O121  1  0.522327  0.603420  0.407066  1
  O  O122  1  0.946929  0.532162  0.406524  1
  O  O123  1  0.627173  0.819189  0.346292  1
  O  O124  1  0.726826  0.577586  0.391528  1
  O  O125  1  0.697466  0.426725  0.393956  1
  O  O126  1  0.875191  0.398526  0.391432  1
  O  O127  1  0.978199  0.895312  0.310876  1
  O  O128  1  0.874915  0.680260  0.391418  1
  Si  Si129  1  0.097139  0.039838  0.282745  1
  Si  Si130  1  0.365513  0.140814  0.279721  1
  Si  Si131  1  0.095979  0.539661  0.279414  1
  Si  Si132  1  0.495504  0.407426  0.280061  1
  Si  Si133  1  0.254514  0.858493  0.290741  1
  Si  Si134  1  0.007218  0.892617  0.284905  1
  Si  Si135  1  0.386052  0.766732  0.287013  1
  Si  Si136  1  0.758772  0.354994  0.228392  1
  Si  Si137  1  0.865376  0.131982  0.283755  1
  Si  Si138  1  0.884632  0.268786  0.290286  1
  Si  Si139  1  0.848057  0.406361  0.287141  1
  Si  Si140  1  0.847972  0.893267  0.292464  1
  Si  Si141  1  0.745736  0.869643  0.287447  1
  Si  Si142  1  0.885723  0.961287  0.227063  1
  Si  Si143  1  0.254220  0.130769  0.301389  1
  Si  Si144  1  0.116989  0.036914  0.362383  1
  Si  Si145  1  0.493027  0.911947  0.367251  1
  Si  Si146  1  0.152531  0.104240  0.298683  1
  Si  Si147  1  0.386152  0.963627  0.390556  1
  Si  Si148  1  0.256003  0.358133  0.391061  1
  Si  Si149  1  0.006777  0.393896  0.374300  1
  Si  Si150  1  0.151987  0.592784  0.301259  1
  Si  Si151  1  0.135967  0.369237  0.369327  1
  Si  Si152  1  0.006741  0.089594  0.385468  1
  Si  Si153  1  0.112627  0.734365  0.298077  1
  Si  Si154  1  0.367501  0.626050  0.385164  1
  Si  Si155  1  0.245484  0.638315  0.363155  1
  Si  Si156  1  0.137687  0.868351  0.304979  1
  Si  Si157  1  0.493808  0.602728  0.380737  1
  Si  Si158  1  0.849831  0.907280  0.362274  1
  Si  Si159  1  0.612792  0.236455  0.301332  1
  Si  Si160  1  0.903244  0.733235  0.383360  1
  Si  Si161  1  0.743015  0.143689  0.297083  1
  Si  Si162  1  0.994446  0.102526  0.305230  1
  Si  Si163  1  0.596941  0.769423  0.371058  1
  Si  Si164  1  0.847317  0.397942  0.364903  1
  Si  Si165  1  0.634109  0.360670  0.372515  1
  Si  Si166  1  0.903709  0.231007  0.380534  1
  Si  Si167  1  0.743207  0.371343  0.387205  1
  Si  Si168  1  0.652842  0.092585  0.391454  1
  Si  Si169  1  0.900829  0.461962  0.309108  1
  Si  Si170  1  0.506230  0.589618  0.309503  1
  Si  Si171  1  0.599034  0.263648  0.370135  1
  Si  Si172  1  0.756340  0.629142  0.365485  1
  Si  Si173  1  0.616729  0.535886  0.366832  1
  Si  Si174  1  0.596771  0.541492  0.443954  1
  Si  Si175  1  0.993686  0.409415  0.444490  1
  Si  Si176  1  0.636039  0.858165  0.308955  1
  Si  Si177  1  0.651404  0.603729  0.386281  1
  Si  Si178  1  0.884294  0.463639  0.386810  1
  Si  Si179  1  0.904091  0.959179  0.306719  1
  Si  Si180  1  0.866064  0.638875  0.380436  1
  H  H181  1  0.180993  0.258076  0.242773  1
  H  H182  1  0.317325  0.245064  0.246574  1
  H  H183  1  0.438322  0.410054  0.246889  1
  H  H184  1  0.096518  0.216193  0.229134  1
  H  H185  1  0.374208  0.178781  0.225297  1
  H  H186  1  0.151428  0.530936  0.247007  1
  H  H187  1  0.153109  0.665293  0.243005  1
  H  H188  1  0.020430  0.605510  0.225578  1
  H  H189  1  0.445800  0.531974  0.226114  1
  H  H190  1  0.476831  0.646328  0.247138  1
  H  H191  1  0.093529  0.096075  0.223295  1
  H  H192  1  0.065992  0.836894  0.229203  1
  H  H193  1  0.224977  0.968182  0.247549  1
  H  H194  1  0.377827  0.850046  0.227017  1
  H  H195  1  0.560243  0.287700  0.242997  1
  H  H196  1  0.684886  0.373926  0.205220  1
  H  H197  1  0.687853  0.242021  0.229152  1
  H  H198  1  0.725548  0.468867  0.164688  1
  H  H199  1  0.772785  0.531665  0.225354  1
  H  H200  1  0.874767  0.569748  0.246898  1
  H  H201  1  0.937916  0.908383  0.203027  1
  H  H202  1  0.805904  0.070946  0.164534  1
  H  H203  1  0.695240  0.931390  0.225699  1
  H  H204  1  0.554546  0.968961  0.246588  1
  H  H205  1  0.430712  0.975730  0.421438  1
  H  H206  1  0.197701  0.926995  0.424021  1
  H  H207  1  0.376708  0.898180  0.445508  1
  H  H208  1  0.311421  0.255675  0.423554  1
  H  H209  1  0.188512  0.242863  0.427717  1
  H  H210  1  0.052772  0.967147  0.445363  1
  H  H211  1  0.061730  0.282626  0.442106  1
  H  H212  1  0.067253  0.335272  0.467682  1
  H  H213  1  0.271394  0.531784  0.424611  1
  H  H214  1  0.303240  0.319213  0.445581  1
  H  H215  1  0.374657  0.571872  0.444891  1
  H  H216  1  0.019752  0.354621  0.506009  1
  H  H217  1  0.592954  0.597169  0.466756  1
  H  H218  1  0.568040  0.835186  0.426817  1
  H  H219  1  0.650568  0.668080  0.440176  1
  H  H220  1  0.977432  0.647187  0.445317  1
  H  H221  1  0.875891  0.850689  0.424630  1
  H  H222  1  0.625317  0.431276  0.506397  1
  H  H223  1  0.682439  0.257237  0.441435  1
  H  H224  1  0.597905  0.091214  0.424177  1
  H  H225  1  0.816269  0.243310  0.446048  1
  H  H226  1  0.597024  0.212657  0.428292  1
  H  H227  1  0.727391  0.967996  0.445228  1
  H  H228  1  0.875350  0.178391  0.424778  1
