# generated using pymatgen
data_Si8H2O17
_symmetry_space_group_name_H-M   'P 1'
_cell_length_a   5.05429154
_cell_length_b   17.40165079
_cell_length_c   43.42179923
_cell_angle_alpha   115.09972516
_cell_angle_beta   90.00000000
_cell_angle_gamma   90.00000000
_symmetry_Int_Tables_number   1
_chemical_formula_structural   Si8H2O17
_chemical_formula_sum   'Si32 H8 O68'
_cell_volume   3458.44584783
_cell_formula_units_Z   4
loop_
 _symmetry_equiv_pos_site_id
 _symmetry_equiv_pos_as_xyz
  1  'x, y, z'
loop_
 _atom_site_type_symbol
 _atom_site_label
 _atom_site_symmetry_multiplicity
 _atom_site_fract_x
 _atom_site_fract_y
 _atom_site_fract_z
 _atom_site_occupancy
  O  O1  1  0.535599  0.741721  0.200782  1
  O  O2  1  0.535432  0.241740  0.200779  1
  O  O3  1  0.531882  0.741487  0.286683  1
  O  O4  1  0.531725  0.241504  0.286693  1
  O  O5  1  0.035432  0.258352  0.204908  1
  O  O6  1  0.035599  0.758372  0.204905  1
  O  O7  1  0.744262  0.884690  0.212159  1
  O  O8  1  0.744240  0.384694  0.212159  1
  O  O9  1  0.738342  0.884608  0.154244  1
  O  O10  1  0.738319  0.384612  0.154245  1
  O  O11  1  0.238320  0.115481  0.251442  1
  O  O12  1  0.238342  0.615485  0.251443  1
  O  O13  1  0.244240  0.115398  0.193527  1
  O  O14  1  0.244262  0.615403  0.193528  1
  O  O15  1  0.753029  0.823474  0.257803  1
  O  O16  1  0.752847  0.323473  0.257803  1
  O  O17  1  0.252847  0.176620  0.147884  1
  O  O18  1  0.253029  0.676618  0.147884  1
  O  O19  1  0.949693  0.009749  0.204140  1
  O  O20  1  0.949694  0.509753  0.204140  1
  O  O21  1  0.449694  0.990340  0.201547  1
  O  O22  1  0.449692  0.490344  0.201547  1
  O  O23  1  0.535599  0.741721  0.370781  1
  O  O24  1  0.535432  0.241740  0.370778  1
  O  O25  1  0.531882  0.741487  0.456683  1
  O  O26  1  0.531725  0.241504  0.456692  1
  O  O27  1  0.031725  0.258589  0.288994  1
  O  O28  1  0.031881  0.758606  0.289003  1
  O  O29  1  0.035432  0.258352  0.374908  1
  O  O30  1  0.035599  0.758372  0.374905  1
  O  O31  1  0.744262  0.884690  0.382159  1
  O  O32  1  0.744240  0.384694  0.382159  1
  O  O33  1  0.738342  0.884608  0.324244  1
  O  O34  1  0.738319  0.384612  0.324245  1
  O  O35  1  0.238320  0.115481  0.421442  1
  O  O36  1  0.238342  0.615485  0.421442  1
  O  O37  1  0.244240  0.115398  0.363527  1
  O  O38  1  0.244262  0.615403  0.363528  1
  O  O39  1  0.753029  0.823474  0.427803  1
  O  O40  1  0.752847  0.323473  0.427803  1
  O  O41  1  0.252847  0.176620  0.317884  1
  O  O42  1  0.253029  0.676618  0.317884  1
  O  O43  1  0.949693  0.009749  0.374139  1
  O  O44  1  0.949694  0.509753  0.374140  1
  O  O45  1  0.449694  0.990340  0.371546  1
  O  O46  1  0.449692  0.490344  0.371547  1
  O  O47  1  0.535599  0.741721  0.540781  1
  O  O48  1  0.535432  0.241740  0.540778  1
  O  O49  1  0.031725  0.258589  0.458993  1
  O  O50  1  0.031881  0.758606  0.459003  1
  O  O51  1  0.035432  0.258352  0.544907  1
  O  O52  1  0.035599  0.758372  0.544905  1
  O  O53  1  0.744262  0.884690  0.552158  1
  O  O54  1  0.744240  0.384694  0.552159  1
  O  O55  1  0.738342  0.884608  0.494244  1
  O  O56  1  0.738319  0.384612  0.494244  1
  O  O57  1  0.238320  0.115481  0.591441  1
  O  O58  1  0.238342  0.615485  0.591442  1
  O  O59  1  0.244240  0.115398  0.533527  1
  O  O60  1  0.244262  0.615403  0.533528  1
  O  O61  1  0.753029  0.823474  0.597803  1
  O  O62  1  0.752847  0.323473  0.597802  1
  O  O63  1  0.252847  0.176620  0.487883  1
  O  O64  1  0.253029  0.676618  0.487883  1
  O  O65  1  0.949693  0.009749  0.544139  1
  O  O66  1  0.949694  0.509753  0.544140  1
  O  O67  1  0.449694  0.990340  0.541546  1
  O  O68  1  0.449692  0.490344  0.541547  1
  Si  Si69  1  0.766818  0.803634  0.219036  1
  Si  Si70  1  0.766678  0.303635  0.219036  1
  Si  Si71  1  0.263225  0.196494  0.285855  1
  Si  Si72  1  0.263360  0.696495  0.285855  1
  Si  Si73  1  0.266678  0.196457  0.186650  1
  Si  Si74  1  0.266818  0.696459  0.186651  1
  Si  Si75  1  0.721101  0.943377  0.193202  1
  Si  Si76  1  0.721098  0.443381  0.193203  1
  Si  Si77  1  0.221099  0.056711  0.212484  1
  Si  Si78  1  0.221101  0.556716  0.212485  1
  Si  Si79  1  0.766818  0.803634  0.389036  1
  Si  Si80  1  0.766678  0.303635  0.389036  1
  Si  Si81  1  0.763360  0.803598  0.289832  1
  Si  Si82  1  0.763225  0.303599  0.289832  1
  Si  Si83  1  0.263225  0.196494  0.455855  1
  Si  Si84  1  0.263360  0.696495  0.455855  1
  Si  Si85  1  0.266678  0.196457  0.356650  1
  Si  Si86  1  0.266818  0.696459  0.356651  1
  Si  Si87  1  0.721101  0.943377  0.363202  1
  Si  Si88  1  0.721098  0.443381  0.363202  1
  Si  Si89  1  0.221099  0.056711  0.382484  1
  Si  Si90  1  0.221101  0.556716  0.382485  1
  Si  Si91  1  0.766818  0.803634  0.559036  1
  Si  Si92  1  0.766678  0.303635  0.559036  1
  Si  Si93  1  0.763360  0.803598  0.459831  1
  Si  Si94  1  0.763225  0.303599  0.459831  1
  Si  Si95  1  0.266678  0.196457  0.526650  1
  Si  Si96  1  0.266818  0.696459  0.526650  1
  Si  Si97  1  0.721101  0.943377  0.533201  1
  Si  Si98  1  0.721098  0.443381  0.533202  1
  Si  Si99  1  0.221099  0.056711  0.552484  1
  Si  Si100  1  0.221101  0.556716  0.552485  1
  H  H101  1  0.738342  0.884608  0.133518  1
  H  H102  1  0.738319  0.384612  0.133518  1
  H  H103  1  0.252847  0.176620  0.127157  1
  H  H104  1  0.253029  0.676618  0.127157  1
  H  H105  1  0.238320  0.115481  0.612168  1
  H  H106  1  0.238342  0.615485  0.612169  1
  H  H107  1  0.753029  0.823474  0.618529  1
  H  H108  1  0.752847  0.323473  0.618529  1
