# generated using pymatgen
data_Si28H2O57
_symmetry_space_group_name_H-M   'P 1'
_cell_length_a   13.20293025
_cell_length_b   13.18796789
_cell_length_c   47.49582100
_cell_angle_alpha   90.00000000
_cell_angle_beta   90.00000000
_cell_angle_gamma   120.00000000
_symmetry_Int_Tables_number   1
_chemical_formula_structural   Si28H2O57
_chemical_formula_sum   'Si56 H4 O114'
_cell_volume   7161.99874986
_cell_formula_units_Z   2
loop_
 _symmetry_equiv_pos_site_id
 _symmetry_equiv_pos_as_xyz
  1  'x, y, z'
loop_
 _atom_site_type_symbol
 _atom_site_label
 _atom_site_symmetry_multiplicity
 _atom_site_fract_x
 _atom_site_fract_y
 _atom_site_fract_z
 _atom_site_occupancy
  O  O1  1  0.430060  0.230953  0.209874  1
  O  O2  1  0.231890  0.428367  0.209989  1
  O  O3  1  0.198922  0.768910  0.209915  1
  O  O4  1  0.407479  0.406477  0.188505  1
  O  O5  1  0.350510  0.563870  0.169593  1
  O  O6  1  0.214890  0.649781  0.169418  1
  O  O7  1  0.436260  0.785340  0.169170  1
  O  O8  1  0.000000  0.593379  0.188545  1
  O  O9  1  0.332606  0.662510  0.124221  1
  O  O10  1  0.442919  0.585157  0.302128  1
  O  O11  1  0.143596  0.557612  0.302273  1
  O  O12  1  0.416075  0.856802  0.302450  1
  O  O13  1  0.443032  0.585158  0.216816  1
  O  O14  1  0.143703  0.557612  0.216682  1
  O  O15  1  0.416198  0.856796  0.216501  1
  O  O16  1  0.345225  0.000000  0.222101  1
  O  O17  1  0.345098  -0.000000  0.296837  1
  O  O18  1  0.292091  0.840558  0.259472  1
  O  O19  1  0.159934  0.449156  0.259482  1
  O  O20  1  0.451416  0.159356  0.259472  1
  O  O21  1  -0.000000  0.343032  0.222131  1
  O  O22  1  -0.000000  0.343034  0.296824  1
  O  O23  1  0.429943  0.230959  0.309067  1
  O  O24  1  0.231773  0.428363  0.308977  1
  O  O25  1  0.198798  0.768904  0.309026  1
  O  O26  1  0.407381  0.406482  0.330448  1
  O  O27  1  0.350431  0.563899  0.349355  1
  O  O28  1  0.214794  0.649807  0.349535  1
  O  O29  1  0.436160  0.785352  0.349777  1
  O  O30  1  -0.000000  0.593374  0.330408  1
  O  O31  1  0.770065  0.197407  0.209619  1
  O  O32  1  0.803352  0.571353  0.210001  1
  O  O33  1  0.572332  0.802237  0.209589  1
  O  O34  1  0.594000  -0.000000  0.188080  1
  O  O35  1  0.565200  0.350084  0.169375  1
  O  O36  1  0.651012  0.214465  0.169207  1
  O  O37  1  0.786671  0.435933  0.169599  1
  O  O38  1  0.670470  0.337143  0.124221  1
  O  O39  1  0.586021  0.442130  0.216648  1
  O  O40  1  0.559399  0.142981  0.216533  1
  O  O41  1  0.857839  0.414553  0.216817  1
  O  O42  1  0.585913  0.442130  0.302306  1
  O  O43  1  0.559270  0.142975  0.302418  1
  O  O44  1  0.857727  0.414554  0.302126  1
  O  O45  1  0.657354  0.656643  0.222142  1
  O  O46  1  0.657246  0.656640  0.296813  1
  O  O47  1  0.552135  0.711336  0.259471  1
  O  O48  1  0.710484  0.550385  0.259482  1
  O  O49  1  0.840881  0.288401  0.259471  1
  O  O50  1  0.769944  0.197404  0.309321  1
  O  O51  1  0.803239  0.571357  0.308966  1
  O  O52  1  0.572213  0.802240  0.309351  1
  O  O53  1  0.593889  -0.000000  0.330864  1
  O  O54  1  0.565077  0.350058  0.349578  1
  O  O55  1  0.650900  0.214452  0.349740  1
  O  O56  1  0.786562  0.435904  0.349349  1
  O  O57  1  0.430060  0.230953  0.480380  1
  O  O58  1  0.231890  0.428367  0.480495  1
  O  O59  1  0.198922  0.768910  0.480421  1
  O  O60  1  0.407479  0.406477  0.459011  1
  O  O61  1  0.350510  0.563870  0.440099  1
  O  O62  1  0.214890  0.649781  0.439924  1
  O  O63  1  0.436260  0.785340  0.439676  1
  O  O64  1  0.000000  0.593379  0.459051  1
  O  O65  1  0.332606  0.662510  0.394728  1
  O  O66  1  0.442919  0.585157  0.572634  1
  O  O67  1  0.143596  0.557612  0.572779  1
  O  O68  1  0.416075  0.856802  0.572956  1
  O  O69  1  0.443032  0.585158  0.487322  1
  O  O70  1  0.143703  0.557612  0.487188  1
  O  O71  1  0.416198  0.856796  0.487007  1
  O  O72  1  0.345225  -0.000000  0.492607  1
  O  O73  1  0.345098  -0.000000  0.567343  1
  O  O74  1  0.292091  0.840558  0.529978  1
  O  O75  1  0.159934  0.449156  0.529988  1
  O  O76  1  0.451416  0.159356  0.529978  1
  O  O77  1  -0.000000  0.343032  0.492638  1
  O  O78  1  0.000000  0.343034  0.567330  1
  O  O79  1  0.429943  0.230959  0.579573  1
  O  O80  1  0.231773  0.428363  0.579483  1
  O  O81  1  0.198798  0.768904  0.579532  1
  O  O82  1  0.407381  0.406482  0.600954  1
  O  O83  1  0.350431  0.563899  0.619861  1
  O  O84  1  0.214794  0.649807  0.620042  1
  O  O85  1  0.436160  0.785352  0.620283  1
  O  O86  1  -0.000000  0.593374  0.600914  1
  O  O87  1  0.770065  0.197407  0.480125  1
  O  O88  1  0.803352  0.571353  0.480507  1
  O  O89  1  0.572332  0.802237  0.480095  1
  O  O90  1  0.594000  -0.000000  0.458586  1
  O  O91  1  0.565200  0.350084  0.439881  1
  O  O92  1  0.651012  0.214465  0.439713  1
  O  O93  1  0.786671  0.435933  0.440105  1
  O  O94  1  0.670470  0.337143  0.394728  1
  O  O95  1  0.586021  0.442130  0.487154  1
  O  O96  1  0.559399  0.142981  0.487039  1
  O  O97  1  0.857839  0.414553  0.487323  1
  O  O98  1  0.585913  0.442130  0.572812  1
  O  O99  1  0.559270  0.142975  0.572924  1
  O  O100  1  0.857727  0.414554  0.572632  1
  O  O101  1  0.657354  0.656643  0.492648  1
  O  O102  1  0.657246  0.656640  0.567319  1
  O  O103  1  0.552135  0.711336  0.529977  1
  O  O104  1  0.710484  0.550385  0.529988  1
  O  O105  1  0.840881  0.288401  0.529977  1
  O  O106  1  0.769944  0.197404  0.579827  1
  O  O107  1  0.803239  0.571357  0.579472  1
  O  O108  1  0.572213  0.802240  0.579857  1
  O  O109  1  0.593889  0.000000  0.601370  1
  O  O110  1  0.565077  0.350058  0.620084  1
  O  O111  1  0.650900  0.214452  0.620246  1
  O  O112  1  0.786562  0.435904  0.619855  1
  O  O113  1  0.332606  0.662510  0.665234  1
  O  O114  1  0.670470  0.337143  0.665234  1
  Si  Si115  1  0.333622  0.665823  0.157042  1
  Si  Si116  1  0.491439  0.355714  0.195035  1
  Si  Si117  1  0.356670  0.490306  0.195218  1
  Si  Si118  1  0.135533  0.644127  0.195083  1
  Si  Si119  1  0.441567  0.133654  0.226876  1
  Si  Si120  1  0.307776  0.866216  0.226876  1
  Si  Si121  1  0.134249  0.439453  0.226900  1
  Si  Si122  1  0.307662  0.866214  0.292068  1
  Si  Si123  1  0.134149  0.439450  0.292059  1
  Si  Si124  1  0.441454  0.133655  0.292067  1
  Si  Si125  1  0.491325  0.355702  0.323917  1
  Si  Si126  1  0.356581  0.490319  0.323734  1
  Si  Si127  1  0.135432  0.644139  0.323869  1
  Si  Si128  1  0.333531  0.665839  0.361908  1
  Si  Si129  1  0.510439  0.865139  0.194768  1
  Si  Si130  1  0.667942  0.333991  0.157042  1
  Si  Si131  1  0.645316  0.134615  0.194806  1
  Si  Si132  1  0.866311  0.509465  0.195228  1
  Si  Si133  1  0.867008  0.305473  0.226890  1
  Si  Si134  1  0.561197  0.694193  0.226891  1
  Si  Si135  1  0.561096  0.694192  0.292055  1
  Si  Si136  1  0.694499  0.560215  0.292059  1
  Si  Si137  1  0.866908  0.305474  0.292056  1
  Si  Si138  1  0.694597  0.560213  0.226900  1
  Si  Si139  1  0.667835  0.333975  0.361907  1
  Si  Si140  1  0.645204  0.134614  0.324138  1
  Si  Si141  1  0.866209  0.509451  0.323724  1
  Si  Si142  1  0.510328  0.865140  0.324176  1
  Si  Si143  1  0.333622  0.665823  0.427548  1
  Si  Si144  1  0.491439  0.355714  0.465541  1
  Si  Si145  1  0.356670  0.490306  0.465724  1
  Si  Si146  1  0.135533  0.644127  0.465589  1
  Si  Si147  1  0.441567  0.133654  0.497382  1
  Si  Si148  1  0.307776  0.866216  0.497382  1
  Si  Si149  1  0.134249  0.439453  0.497406  1
  Si  Si150  1  0.307662  0.866214  0.562574  1
  Si  Si151  1  0.134149  0.439450  0.562565  1
  Si  Si152  1  0.441454  0.133655  0.562573  1
  Si  Si153  1  0.491325  0.355702  0.594423  1
  Si  Si154  1  0.356581  0.490319  0.594240  1
  Si  Si155  1  0.135432  0.644139  0.594375  1
  Si  Si156  1  0.333531  0.665839  0.632414  1
  Si  Si157  1  0.510439  0.865139  0.465274  1
  Si  Si158  1  0.667942  0.333991  0.427548  1
  Si  Si159  1  0.645316  0.134615  0.465312  1
  Si  Si160  1  0.866311  0.509465  0.465734  1
  Si  Si161  1  0.867008  0.305473  0.497396  1
  Si  Si162  1  0.561197  0.694193  0.497397  1
  Si  Si163  1  0.561096  0.694192  0.562561  1
  Si  Si164  1  0.694499  0.560215  0.562565  1
  Si  Si165  1  0.866908  0.305474  0.562562  1
  Si  Si166  1  0.694597  0.560213  0.497406  1
  Si  Si167  1  0.667835  0.333975  0.632413  1
  Si  Si168  1  0.645204  0.134614  0.594644  1
  Si  Si169  1  0.866209  0.509451  0.594230  1
  Si  Si170  1  0.510328  0.865140  0.594682  1
  H  H171  1  0.332606  0.662510  0.105272  1
  H  H172  1  0.670470  0.337143  0.105272  1
  H  H173  1  0.332606  0.662510  0.684183  1
  H  H174  1  0.670470  0.337143  0.684183  1
