# generated using pymatgen
data_Si31(HO16)4
_symmetry_space_group_name_H-M   'P 1'
_cell_length_a   12.60116802
_cell_length_b   28.93711615
_cell_length_c   50.16144479
_cell_angle_alpha   115.81692622
_cell_angle_beta   90.00000000
_cell_angle_gamma   90.00000000
_symmetry_Int_Tables_number   1
_chemical_formula_structural   Si31(HO16)4
_chemical_formula_sum   'Si124 H16 O256'
_cell_volume   16465.3264854
_cell_formula_units_Z   4
loop_
 _symmetry_equiv_pos_site_id
 _symmetry_equiv_pos_as_xyz
  1  'x, y, z'
loop_
 _atom_site_type_symbol
 _atom_site_label
 _atom_site_symmetry_multiplicity
 _atom_site_fract_x
 _atom_site_fract_y
 _atom_site_fract_z
 _atom_site_occupancy
  O  O1  1  0.159301  0.599290  0.128704  1
  O  O2  1  0.509275  0.598814  0.128672  1
  O  O3  1  0.162490  0.187170  0.231728  1
  O  O4  1  0.028779  0.188065  0.269322  1
  O  O5  1  0.162961  0.187873  0.306650  1
  O  O6  1  0.491811  0.097117  0.171329  1
  O  O7  1  0.363437  0.150753  0.215959  1
  O  O8  1  0.295526  0.183668  0.268257  1
  O  O9  1  0.324170  0.246933  0.247751  1
  O  O10  1  0.490467  0.098836  0.322677  1
  O  O11  1  0.363808  0.151208  0.303999  1
  O  O12  1  0.324329  0.247835  0.320577  1
  O  O13  1  0.437166  0.331622  0.262328  1
  O  O14  1  0.334888  0.313420  0.300634  1
  O  O15  1  0.496115  0.082717  0.268638  1
  O  O16  1  0.497157  0.084993  0.218266  1
  O  O17  1  0.436937  0.332737  0.348205  1
  O  O18  1  0.185653  0.562886  0.320307  1
  O  O19  1  0.185650  0.437171  0.207014  1
  O  O20  1  0.186785  0.500027  0.263663  1
  O  O21  1  0.035930  0.346797  0.265398  1
  O  O22  1  0.160004  0.596784  0.278909  1
  O  O23  1  0.035973  0.653273  0.261918  1
  O  O24  1  0.160016  0.403269  0.248411  1
  O  O25  1  0.334371  0.561989  0.286492  1
  O  O26  1  0.334374  0.438057  0.240826  1
  O  O27  1  0.482047  0.500021  0.263656  1
  O  O28  1  0.035252  0.347152  0.352895  1
  O  O29  1  0.035271  0.652894  0.174404  1
  O  O30  1  0.159301  0.599290  0.379933  1
  O  O31  1  0.159308  0.400764  0.147388  1
  O  O32  1  0.334553  0.566391  0.354613  1
  O  O33  1  0.334552  0.433664  0.172709  1
  O  O34  1  0.189666  0.503125  0.345916  1
  O  O35  1  0.189651  0.496935  0.181407  1
  O  O36  1  0.478637  0.502208  0.345723  1
  O  O37  1  0.478627  0.497828  0.181593  1
  O  O38  1  0.162920  0.581645  0.174311  1
  O  O39  1  0.162975  0.418427  0.353020  1
  O  O40  1  0.333638  0.563427  0.195412  1
  O  O41  1  0.333654  0.436624  0.331904  1
  O  O42  1  0.163672  0.584093  0.225698  1
  O  O43  1  0.163666  0.415958  0.301626  1
  O  O44  1  0.483166  0.562171  0.320239  1
  O  O45  1  0.483172  0.437867  0.207072  1
  O  O46  1  0.234155  0.334992  0.348480  1
  O  O47  1  0.234174  0.665057  0.178834  1
  O  O48  1  0.235077  0.665951  0.264201  1
  O  O49  1  0.235033  0.334093  0.263121  1
  O  O50  1  0.162543  0.812893  0.295594  1
  O  O51  1  0.028827  0.812034  0.258021  1
  O  O52  1  0.162969  0.812151  0.220651  1
  O  O53  1  0.491734  0.902902  0.355985  1
  O  O54  1  0.363474  0.849291  0.311349  1
  O  O55  1  0.295558  0.816380  0.259054  1
  O  O56  1  0.324203  0.753113  0.279559  1
  O  O57  1  0.363753  0.848837  0.223305  1
  O  O58  1  0.490490  0.901207  0.204642  1
  O  O59  1  0.324381  0.752199  0.206731  1
  O  O60  1  0.437211  0.668430  0.264986  1
  O  O61  1  0.334906  0.686623  0.226682  1
  O  O62  1  0.496044  0.917294  0.258681  1
  O  O63  1  0.497260  0.915048  0.309047  1
  O  O64  1  0.436956  0.667288  0.179104  1
  O  O65  1  0.814137  0.062857  0.364183  1
  O  O66  1  0.837220  0.312865  0.263315  1
  O  O67  1  -0.000000  0.250037  0.247813  1
  O  O68  1  0.839775  0.096795  0.171398  1
  O  O69  1  0.963791  0.153273  0.216769  1
  O  O70  1  0.970946  0.311988  0.300461  1
  O  O71  1  0.836784  0.312173  0.337889  1
  O  O72  1  0.964489  0.152884  0.304082  1
  O  O73  1  0.840430  0.099266  0.322857  1
  O  O74  1  0.665205  0.066354  0.331651  1
  O  O75  1  0.704186  0.316366  0.301604  1
  O  O76  1  0.810110  0.003089  0.308548  1
  O  O77  1  0.675518  0.253098  0.249300  1
  O  O78  1  0.521126  0.002199  0.308293  1
  O  O79  1  0.675416  0.252192  0.321670  1
  O  O80  1  0.836787  0.081606  0.268387  1
  O  O81  1  0.562584  0.168388  0.221300  1
  O  O82  1  0.666104  0.063403  0.238129  1
  O  O83  1  0.664772  0.186608  0.268762  1
  O  O84  1  0.836107  0.084087  0.218237  1
  O  O85  1  0.764714  0.165952  0.220871  1
  O  O86  1  0.562795  0.167309  0.306644  1
  O  O87  1  0.765572  0.165038  0.305766  1
  O  O88  1  0.516562  0.062160  0.363897  1
  O  O89  1  0.000000  0.250018  0.321976  1
  O  O90  1  0.507930  0.597095  0.279150  1
  O  O91  1  0.507935  0.402951  0.248166  1
  O  O92  1  0.636302  0.349283  0.265844  1
  O  O93  1  0.636334  0.650754  0.261476  1
  O  O94  1  0.635938  0.348825  0.353653  1
  O  O95  1  0.509275  0.598814  0.379902  1
  O  O96  1  0.635948  0.651196  0.173662  1
  O  O97  1  0.509260  0.401213  0.147409  1
  O  O98  1  0.503688  0.582720  0.174632  1
  O  O99  1  0.503705  0.417302  0.352678  1
  O  O100  1  0.502531  0.584990  0.226142  1
  O  O101  1  0.502518  0.415051  0.301174  1
  O  O102  1  0.814044  0.937160  0.163097  1
  O  O103  1  0.837290  0.687181  0.263994  1
  O  O104  1  -0.000000  0.750098  0.205362  1
  O  O105  1  0.963821  0.846800  0.310565  1
  O  O106  1  0.839648  0.903273  0.355906  1
  O  O107  1  0.665313  0.938100  0.380975  1
  O  O108  1  0.970985  0.688097  0.226867  1
  O  O109  1  0.836778  0.687866  0.189438  1
  O  O110  1  0.516570  0.937869  0.163394  1
  O  O111  1  0.964395  0.847091  0.223192  1
  O  O112  1  0.840434  0.900744  0.204427  1
  O  O113  1  0.665181  0.933655  0.195650  1
  O  O114  1  0.704229  0.683660  0.225715  1
  O  O115  1  0.810122  0.996912  0.218722  1
  O  O116  1  0.675587  0.746932  0.278013  1
  O  O117  1  0.521109  0.997827  0.219016  1
  O  O118  1  0.675356  0.747818  0.205636  1
  O  O119  1  0.562632  0.831642  0.306019  1
  O  O120  1  0.836835  0.918368  0.258896  1
  O  O121  1  0.664800  0.813411  0.258542  1
  O  O122  1  0.666134  0.936601  0.289148  1
  O  O123  1  0.764731  0.834081  0.306431  1
  O  O124  1  0.836101  0.915945  0.309066  1
  O  O125  1  0.562716  0.832702  0.220672  1
  O  O126  1  0.765488  0.834979  0.221514  1
  O  O127  1  0.000000  0.750044  0.279513  1
  O  O128  1  0.162490  0.187170  0.482958  1
  O  O129  1  0.028779  0.188065  0.520552  1
  O  O130  1  0.162961  0.187873  0.557879  1
  O  O131  1  0.491811  0.097117  0.422559  1
  O  O132  1  0.363437  0.150753  0.467188  1
  O  O133  1  0.295526  0.183668  0.519487  1
  O  O134  1  0.324170  0.246933  0.498981  1
  O  O135  1  0.490467  0.098836  0.573907  1
  O  O136  1  0.363808  0.151208  0.555229  1
  O  O137  1  0.324329  0.247835  0.571807  1
  O  O138  1  0.437166  0.331622  0.513557  1
  O  O139  1  0.334888  0.313420  0.551863  1
  O  O140  1  0.496115  0.082717  0.519867  1
  O  O141  1  0.497157  0.084993  0.469496  1
  O  O142  1  0.436937  0.332737  0.599434  1
  O  O143  1  0.185653  0.562886  0.571536  1
  O  O144  1  0.185650  0.437171  0.458243  1
  O  O145  1  0.186785  0.500027  0.514893  1
  O  O146  1  0.035930  0.346797  0.516628  1
  O  O147  1  0.160004  0.596784  0.530139  1
  O  O148  1  0.035973  0.653273  0.513147  1
  O  O149  1  0.160016  0.403269  0.499640  1
  O  O150  1  0.334371  0.561989  0.537722  1
  O  O151  1  0.334374  0.438057  0.492056  1
  O  O152  1  0.482047  0.500021  0.514886  1
  O  O153  1  0.035252  0.347152  0.604125  1
  O  O154  1  0.035271  0.652894  0.425633  1
  O  O155  1  0.159301  0.599290  0.631162  1
  O  O156  1  0.159308  0.400764  0.398617  1
  O  O157  1  0.334553  0.566391  0.605842  1
  O  O158  1  0.334552  0.433664  0.423939  1
  O  O159  1  0.189666  0.503125  0.597145  1
  O  O160  1  0.189651  0.496935  0.432636  1
  O  O161  1  0.478637  0.502208  0.596953  1
  O  O162  1  0.478627  0.497828  0.432822  1
  O  O163  1  0.162920  0.581645  0.425541  1
  O  O164  1  0.162975  0.418427  0.604249  1
  O  O165  1  0.333638  0.563427  0.446642  1
  O  O166  1  0.333654  0.436624  0.583134  1
  O  O167  1  0.163672  0.584093  0.476928  1
  O  O168  1  0.163666  0.415958  0.552855  1
  O  O169  1  0.483166  0.562171  0.571469  1
  O  O170  1  0.483172  0.437867  0.458302  1
  O  O171  1  0.234155  0.334992  0.599709  1
  O  O172  1  0.234174  0.665057  0.430063  1
  O  O173  1  0.235077  0.665951  0.515430  1
  O  O174  1  0.235033  0.334093  0.514350  1
  O  O175  1  0.162543  0.812893  0.546824  1
  O  O176  1  0.028827  0.812034  0.509250  1
  O  O177  1  0.162969  0.812151  0.471880  1
  O  O178  1  0.491734  0.902902  0.607214  1
  O  O179  1  0.363474  0.849291  0.562578  1
  O  O180  1  0.295558  0.816380  0.510283  1
  O  O181  1  0.324203  0.753113  0.530789  1
  O  O182  1  0.363753  0.848837  0.474535  1
  O  O183  1  0.490490  0.901207  0.455872  1
  O  O184  1  0.324381  0.752199  0.457961  1
  O  O185  1  0.437211  0.668430  0.516215  1
  O  O186  1  0.334906  0.686623  0.477912  1
  O  O187  1  0.496044  0.917294  0.509911  1
  O  O188  1  0.497260  0.915048  0.560276  1
  O  O189  1  0.436956  0.667288  0.430334  1
  O  O190  1  0.814137  0.062857  0.615413  1
  O  O191  1  0.837220  0.312865  0.514545  1
  O  O192  1  0.000000  0.250037  0.499043  1
  O  O193  1  0.839775  0.096795  0.422627  1
  O  O194  1  0.963791  0.153273  0.467998  1
  O  O195  1  0.665421  0.062042  0.397576  1
  O  O196  1  0.970946  0.311988  0.551690  1
  O  O197  1  0.836784  0.312173  0.589119  1
  O  O198  1  0.964489  0.152884  0.555311  1
  O  O199  1  0.840430  0.099266  0.574086  1
  O  O200  1  0.665205  0.066354  0.582881  1
  O  O201  1  0.704186  0.316366  0.552834  1
  O  O202  1  0.810110  0.003089  0.559777  1
  O  O203  1  0.675518  0.253098  0.500530  1
  O  O204  1  0.521126  0.002199  0.559523  1
  O  O205  1  0.675416  0.252192  0.572899  1
  O  O206  1  0.836787  0.081606  0.519617  1
  O  O207  1  0.562584  0.168388  0.472529  1
  O  O208  1  0.666104  0.063403  0.489358  1
  O  O209  1  0.664772  0.186608  0.519992  1
  O  O210  1  0.836107  0.084087  0.469466  1
  O  O211  1  0.764714  0.165952  0.472101  1
  O  O212  1  0.562795  0.167309  0.557873  1
  O  O213  1  0.765572  0.165038  0.556995  1
  O  O214  1  0.516562  0.062160  0.615126  1
  O  O215  1  0.000000  0.250018  0.573206  1
  O  O216  1  0.812976  -0.000000  0.389277  1
  O  O217  1  0.517752  -0.000000  0.389317  1
  O  O218  1  0.507930  0.597095  0.530379  1
  O  O219  1  0.507935  0.402951  0.499396  1
  O  O220  1  0.636302  0.349283  0.517074  1
  O  O221  1  0.636334  0.650754  0.512705  1
  O  O222  1  0.635938  0.348825  0.604882  1
  O  O223  1  0.509275  0.598814  0.631131  1
  O  O224  1  0.635948  0.651196  0.424891  1
  O  O225  1  0.509260  0.401213  0.398638  1
  O  O226  1  0.503688  0.582720  0.425861  1
  O  O227  1  0.503705  0.417302  0.603908  1
  O  O228  1  0.502531  0.584990  0.477372  1
  O  O229  1  0.502518  0.415051  0.552403  1
  O  O230  1  0.814044  0.937160  0.414326  1
  O  O231  1  0.837290  0.687181  0.515223  1
  O  O232  1  0.000000  0.750098  0.456591  1
  O  O233  1  0.963821  0.846800  0.561794  1
  O  O234  1  0.839648  0.903273  0.607135  1
  O  O235  1  0.970985  0.688097  0.478097  1
  O  O236  1  0.836778  0.687866  0.440667  1
  O  O237  1  0.516570  0.937869  0.414623  1
  O  O238  1  0.964395  0.847091  0.474421  1
  O  O239  1  0.840434  0.900744  0.455656  1
  O  O240  1  0.665181  0.933655  0.446880  1
  O  O241  1  0.704229  0.683660  0.476944  1
  O  O242  1  0.810122  0.996912  0.469951  1
  O  O243  1  0.675587  0.746932  0.529243  1
  O  O244  1  0.521109  0.997827  0.470245  1
  O  O245  1  0.675356  0.747818  0.456865  1
  O  O246  1  0.562632  0.831642  0.557249  1
  O  O247  1  0.836835  0.918368  0.510125  1
  O  O248  1  0.664800  0.813411  0.509772  1
  O  O249  1  0.666134  0.936601  0.540377  1
  O  O250  1  0.764731  0.834081  0.557660  1
  O  O251  1  0.836101  0.915945  0.560295  1
  O  O252  1  0.562716  0.832702  0.471901  1
  O  O253  1  0.765488  0.834979  0.472743  1
  O  O254  1  0.000000  0.750044  0.530742  1
  O  O255  1  0.159308  0.400764  0.649847  1
  O  O256  1  0.509260  0.401213  0.649868  1
  Si  Si257  1  0.475869  0.125018  0.301097  1
  Si  Si258  1  0.476425  0.125497  0.205950  1
  Si  Si259  1  0.334262  0.307082  0.330087  1
  Si  Si260  1  0.285457  0.191222  0.300966  1
  Si  Si261  1  0.334583  0.306169  0.267805  1
  Si  Si262  1  0.040595  0.194066  0.239958  1
  Si  Si263  1  0.040851  0.194071  0.301684  1
  Si  Si264  1  0.284872  0.190538  0.239132  1
  Si  Si265  1  0.211477  0.555990  0.287955  1
  Si  Si266  1  0.211483  0.444068  0.239366  1
  Si  Si267  1  0.457179  0.555943  0.288012  1
  Si  Si268  1  0.457183  0.444099  0.239301  1
  Si  Si269  1  0.211732  0.559512  0.350199  1
  Si  Si270  1  0.211731  0.440549  0.177122  1
  Si  Si271  1  0.457212  0.558809  0.350165  1
  Si  Si272  1  0.457215  0.441224  0.177147  1
  Si  Si273  1  0.210210  0.556171  0.193671  1
  Si  Si274  1  0.210230  0.443889  0.333650  1
  Si  Si275  1  0.457220  0.557073  0.193984  1
  Si  Si276  1  0.457237  0.442964  0.333335  1
  Si  Si277  1  0.144709  0.624524  0.163433  1
  Si  Si278  1  0.144722  0.375539  0.363888  1
  Si  Si279  1  0.145706  0.375033  0.268896  1
  Si  Si280  1  0.145723  0.625024  0.258426  1
  Si  Si281  1  0.475841  0.875018  0.226215  1
  Si  Si282  1  0.476469  0.874541  0.321358  1
  Si  Si283  1  0.334295  0.692952  0.197225  1
  Si  Si284  1  0.334614  0.693877  0.259512  1
  Si  Si285  1  0.284912  0.809508  0.288180  1
  Si  Si286  1  0.285461  0.808805  0.226340  1
  Si  Si287  1  0.040643  0.806016  0.287381  1
  Si  Si288  1  0.040874  0.805988  0.225648  1
  Si  Si289  1  0.959122  0.305999  0.268085  1
  Si  Si290  1  0.958888  0.305970  0.329802  1
  Si  Si291  1  0.788036  0.059473  0.332596  1
  Si  Si292  1  0.714844  0.309487  0.269025  1
  Si  Si293  1  0.542531  0.058800  0.332287  1
  Si  Si294  1  0.714287  0.308808  0.330516  1
  Si  Si295  1  0.789532  0.056147  0.236223  1
  Si  Si296  1  0.665132  0.193859  0.239577  1
  Si  Si297  1  0.542519  0.057073  0.236392  1
  Si  Si298  1  0.665461  0.192950  0.301402  1
  Si  Si299  1  0.855013  0.124498  0.300806  1
  Si  Si300  1  0.854046  0.125018  0.206072  1
  Si  Si301  1  0.523887  0.624996  0.163406  1
  Si  Si302  1  0.523876  0.375024  0.363904  1
  Si  Si303  1  0.523289  0.374530  0.268512  1
  Si  Si304  1  0.523314  0.625515  0.258804  1
  Si  Si305  1  0.788222  0.944090  0.385449  1
  Si  Si306  1  0.959176  0.694078  0.259239  1
  Si  Si307  1  0.542506  0.944137  0.385528  1
  Si  Si308  1  0.958883  0.694112  0.197521  1
  Si  Si309  1  0.787997  0.940525  0.194683  1
  Si  Si310  1  0.714904  0.690541  0.258293  1
  Si  Si311  1  0.542526  0.941224  0.195009  1
  Si  Si312  1  0.714285  0.691213  0.196802  1
  Si  Si313  1  0.665155  0.806165  0.287731  1
  Si  Si314  1  0.789565  0.943851  0.291059  1
  Si  Si315  1  0.665418  0.807063  0.225900  1
  Si  Si316  1  0.542554  0.942960  0.290912  1
  Si  Si317  1  0.854995  0.875490  0.226469  1
  Si  Si318  1  0.854030  0.875027  0.321238  1
  Si  Si319  1  0.475869  0.125018  0.552327  1
  Si  Si320  1  0.476425  0.125497  0.457179  1
  Si  Si321  1  0.334262  0.307082  0.581316  1
  Si  Si322  1  0.285457  0.191222  0.552195  1
  Si  Si323  1  0.334583  0.306169  0.519034  1
  Si  Si324  1  0.040595  0.194066  0.491188  1
  Si  Si325  1  0.040851  0.194071  0.552913  1
  Si  Si326  1  0.284872  0.190538  0.490362  1
  Si  Si327  1  0.211477  0.555990  0.539185  1
  Si  Si328  1  0.211483  0.444068  0.490595  1
  Si  Si329  1  0.457179  0.555943  0.539241  1
  Si  Si330  1  0.457183  0.444099  0.490531  1
  Si  Si331  1  0.211732  0.559512  0.601429  1
  Si  Si332  1  0.211731  0.440549  0.428351  1
  Si  Si333  1  0.457212  0.558809  0.601394  1
  Si  Si334  1  0.457215  0.441224  0.428377  1
  Si  Si335  1  0.210210  0.556171  0.444900  1
  Si  Si336  1  0.210230  0.443889  0.584879  1
  Si  Si337  1  0.457220  0.557073  0.445213  1
  Si  Si338  1  0.457237  0.442964  0.584565  1
  Si  Si339  1  0.144709  0.624524  0.414662  1
  Si  Si340  1  0.144722  0.375539  0.615117  1
  Si  Si341  1  0.145706  0.375033  0.520125  1
  Si  Si342  1  0.145723  0.625024  0.509656  1
  Si  Si343  1  0.475841  0.875018  0.477445  1
  Si  Si344  1  0.476469  0.874541  0.572588  1
  Si  Si345  1  0.334295  0.692952  0.448455  1
  Si  Si346  1  0.334614  0.693877  0.510741  1
  Si  Si347  1  0.284912  0.809508  0.539410  1
  Si  Si348  1  0.285461  0.808805  0.477569  1
  Si  Si349  1  0.040643  0.806016  0.538610  1
  Si  Si350  1  0.040874  0.805988  0.476878  1
  Si  Si351  1  0.788313  0.056007  0.393082  1
  Si  Si352  1  0.959122  0.305999  0.519314  1
  Si  Si353  1  0.542602  0.055993  0.393015  1
  Si  Si354  1  0.958888  0.305970  0.581031  1
  Si  Si355  1  0.788036  0.059473  0.583825  1
  Si  Si356  1  0.714844  0.309487  0.520255  1
  Si  Si357  1  0.542531  0.058800  0.583517  1
  Si  Si358  1  0.714287  0.308808  0.581745  1
  Si  Si359  1  0.789532  0.056147  0.487452  1
  Si  Si360  1  0.665132  0.193859  0.490806  1
  Si  Si361  1  0.542519  0.057073  0.487621  1
  Si  Si362  1  0.665461  0.192950  0.552631  1
  Si  Si363  1  0.855013  0.124498  0.552035  1
  Si  Si364  1  0.854046  0.125018  0.457302  1
  Si  Si365  1  0.523887  0.624996  0.414636  1
  Si  Si366  1  0.523876  0.375024  0.615133  1
  Si  Si367  1  0.523289  0.374530  0.519741  1
  Si  Si368  1  0.523314  0.625515  0.510033  1
  Si  Si369  1  0.959176  0.694078  0.510469  1
  Si  Si370  1  0.958883  0.694112  0.448750  1
  Si  Si371  1  0.787997  0.940525  0.445913  1
  Si  Si372  1  0.714904  0.690541  0.509522  1
  Si  Si373  1  0.542526  0.941224  0.446238  1
  Si  Si374  1  0.714285  0.691213  0.448031  1
  Si  Si375  1  0.665155  0.806165  0.538960  1
  Si  Si376  1  0.789565  0.943851  0.542288  1
  Si  Si377  1  0.665418  0.807063  0.477129  1
  Si  Si378  1  0.542554  0.942960  0.542141  1
  Si  Si379  1  0.854995  0.875490  0.477698  1
  Si  Si380  1  0.854030  0.875027  0.572468  1
  H  H381  1  0.159301  0.599290  0.110762  1
  H  H382  1  0.509275  0.598814  0.110730  1
  H  H383  1  0.491811  0.097117  0.153387  1
  H  H384  1  0.159308  0.400764  0.129446  1
  H  H385  1  0.839775  0.096795  0.153456  1
  H  H386  1  0.509260  0.401213  0.129467  1
  H  H387  1  0.814044  0.937160  0.145155  1
  H  H388  1  0.516570  0.937869  0.145452  1
  H  H389  1  0.159301  0.599290  0.649104  1
  H  H390  1  0.491734  0.902902  0.625156  1
  H  H391  1  0.814137  0.062857  0.633355  1
  H  H392  1  0.516562  0.062160  0.633068  1
  H  H393  1  0.509275  0.598814  0.649073  1
  H  H394  1  0.839648  0.903273  0.625077  1
  H  H395  1  0.159308  0.400764  0.667789  1
  H  H396  1  0.509260  0.401213  0.667810  1
