# generated using pymatgen
data_Si28H2O57
_symmetry_space_group_name_H-M   'P 1'
_cell_length_a   13.60370948
_cell_length_b   27.00625233
_cell_length_c   70.34974672
_cell_angle_alpha   120.51314596
_cell_angle_beta   90.00000000
_cell_angle_gamma   90.00000000
_symmetry_Int_Tables_number   1
_chemical_formula_structural   Si28H2O57
_chemical_formula_sum   'Si224 H16 O456'
_cell_volume   22266.1887279
_cell_formula_units_Z   8
loop_
 _symmetry_equiv_pos_site_id
 _symmetry_equiv_pos_as_xyz
  1  'x, y, z'
loop_
 _atom_site_type_symbol
 _atom_site_label
 _atom_site_symmetry_multiplicity
 _atom_site_fract_x
 _atom_site_fract_y
 _atom_site_fract_z
 _atom_site_occupancy
  O  O1  1  0.330440  0.608616  0.095292  1
  O  O2  1  0.669381  0.608611  0.095295  1
  O  O3  1  0.169356  0.108612  0.095292  1
  O  O4  1  0.830414  0.108607  0.095295  1
  O  O5  1  0.168956  0.192719  0.198715  1
  O  O6  1  0.168956  0.692719  0.358067  1
  O  O7  1  0.135002  0.304685  0.220782  1
  O  O8  1  0.135002  0.804685  0.380133  1
  O  O9  1  0.133859  0.097804  0.199470  1
  O  O10  1  0.133859  0.597804  0.358821  1
  O  O11  1  0.365965  0.402294  0.316828  1
  O  O12  1  0.365965  0.902294  0.157477  1
  O  O13  1  0.305822  0.111796  0.189713  1
  O  O14  1  0.305822  0.611796  0.349064  1
  O  O15  1  0.194005  0.388302  0.326585  1
  O  O16  1  0.194005  0.888302  0.167234  1
  O  O17  1  0.160766  0.096718  0.164095  1
  O  O18  1  0.160766  0.596718  0.323446  1
  O  O19  1  0.169381  0.391481  0.261654  1
  O  O20  1  0.169381  0.891481  0.102302  1
  O  O21  1  0.132514  0.409484  0.229592  1
  O  O22  1  0.132514  0.909483  0.388944  1
  O  O23  1  0.499915  0.444716  0.303630  1
  O  O24  1  0.499915  0.944716  0.144279  1
  O  O25  1  0.127717  0.490756  0.344390  1
  O  O26  1  0.127717  0.990755  0.185038  1
  O  O27  1  0.372108  0.009342  0.171907  1
  O  O28  1  0.372108  0.509342  0.331259  1
  O  O29  1  0.305488  0.441838  0.292987  1
  O  O30  1  0.305488  0.941837  0.133635  1
  O  O31  1  0.499915  0.087433  0.191264  1
  O  O32  1  0.499915  0.587433  0.350616  1
  O  O33  1  0.133335  0.428874  0.303066  1
  O  O34  1  0.133335  0.928874  0.143715  1
  O  O35  1  0.366489  0.071221  0.213231  1
  O  O36  1  0.366489  0.571221  0.372582  1
  O  O37  1  0.158870  0.498099  0.289398  1
  O  O38  1  0.158870  0.998099  0.130047  1
  O  O39  1  0.194339  0.058257  0.223310  1
  O  O40  1  0.194339  0.558256  0.382661  1
  O  O41  1  0.136172  0.250047  0.178473  1
  O  O42  1  0.136172  0.750047  0.337824  1
  O  O43  1  0.805488  0.058255  0.223313  1
  O  O44  1  0.805488  0.558254  0.382664  1
  O  O45  1  -0.000000  0.233829  0.198642  1
  O  O46  1  0.000000  0.733829  0.357994  1
  O  O47  1  0.830867  0.192714  0.198717  1
  O  O48  1  0.830867  0.692714  0.358069  1
  O  O49  1  0.864809  0.304680  0.220784  1
  O  O50  1  0.864809  0.804680  0.380136  1
  O  O51  1  0.633859  0.402289  0.316830  1
  O  O52  1  0.633859  0.902289  0.157479  1
  O  O53  1  0.865965  0.097798  0.199472  1
  O  O54  1  0.865965  0.597798  0.358823  1
  O  O55  1  0.805823  0.388296  0.326587  1
  O  O56  1  0.805823  0.888296  0.167235  1
  O  O57  1  0.694005  0.111790  0.189715  1
  O  O58  1  0.694005  0.611789  0.349066  1
  O  O59  1  0.839063  0.096713  0.164097  1
  O  O60  1  0.839063  0.596713  0.323448  1
  O  O61  1  0.830439  0.391477  0.261657  1
  O  O62  1  0.830439  0.891476  0.102305  1
  O  O63  1  0.867274  0.409479  0.229594  1
  O  O64  1  0.867274  0.909479  0.388945  1
  O  O65  1  0.000000  0.372674  0.243780  1
  O  O66  1  -0.000000  0.872674  0.403132  1
  O  O67  1  0.000000  0.056684  0.143442  1
  O  O68  1  0.000000  0.556684  0.302793  1
  O  O69  1  0.627716  0.009337  0.171911  1
  O  O70  1  0.627716  0.509337  0.331262  1
  O  O71  1  0.872108  0.490750  0.344393  1
  O  O72  1  0.872108  0.990750  0.185042  1
  O  O73  1  0.694338  0.441836  0.292990  1
  O  O74  1  0.694338  0.941836  0.133639  1
  O  O75  1  0.000000  0.412660  0.325036  1
  O  O76  1  -0.000000  0.912659  0.165684  1
  O  O77  1  0.633335  0.071219  0.213234  1
  O  O78  1  0.633335  0.571219  0.372585  1
  O  O79  1  0.866489  0.428872  0.303069  1
  O  O80  1  0.866489  0.928871  0.143718  1
  O  O81  1  0.840958  0.498095  0.289400  1
  O  O82  1  0.840958  0.998095  0.130049  1
  O  O83  1  0.863623  0.250045  0.178475  1
  O  O84  1  0.863623  0.750045  0.337826  1
  O  O85  1  0.000000  0.055376  0.212670  1
  O  O86  1  0.000000  0.555376  0.372021  1
  O  O87  1  0.363623  0.250048  0.337825  1
  O  O88  1  0.363623  0.750048  0.178474  1
  O  O89  1  0.499888  0.233833  0.357996  1
  O  O90  1  0.499888  0.733832  0.198645  1
  O  O91  1  0.330867  0.307378  0.317582  1
  O  O92  1  0.330867  0.807378  0.158231  1
  O  O93  1  0.330840  0.192722  0.358069  1
  O  O94  1  0.330840  0.692722  0.198717  1
  O  O95  1  0.364809  0.195411  0.295516  1
  O  O96  1  0.364809  0.695411  0.136164  1
  O  O97  1  0.364792  0.304689  0.380134  1
  O  O98  1  0.364792  0.804688  0.220783  1
  O  O99  1  0.339062  0.403379  0.352203  1
  O  O100  1  0.339062  0.903378  0.192851  1
  O  O101  1  0.339028  0.096723  0.323447  1
  O  O102  1  0.339028  0.596723  0.164096  1
  O  O103  1  0.330440  0.108616  0.254643  1
  O  O104  1  0.330440  0.608616  0.413995  1
  O  O105  1  0.330414  0.391486  0.102303  1
  O  O106  1  0.330414  0.891486  0.261654  1
  O  O107  1  0.367275  0.090614  0.286706  1
  O  O108  1  0.367275  0.590614  0.127355  1
  O  O109  1  0.367281  0.409487  0.388945  1
  O  O110  1  0.367281  0.909488  0.229593  1
  O  O111  1  0.499889  0.372678  0.403132  1
  O  O112  1  0.499889  0.872678  0.243781  1
  O  O113  1  0.499906  0.127418  0.272520  1
  O  O114  1  0.499906  0.627418  0.113169  1
  O  O115  1  0.499912  0.443408  0.372858  1
  O  O116  1  0.499912  0.943408  0.213506  1
  O  O117  1  0.340959  0.001997  0.226899  1
  O  O118  1  0.340959  0.501997  0.386251  1
  O  O119  1  0.340928  0.498104  0.130048  1
  O  O120  1  0.340928  0.998104  0.289399  1
  O  O121  1  0.499907  0.266263  0.317658  1
  O  O122  1  0.499907  0.766263  0.158306  1
  O  O123  1  0.499884  0.056690  0.302795  1
  O  O124  1  0.499884  0.556690  0.143444  1
  O  O125  1  0.636172  0.250045  0.337827  1
  O  O126  1  0.636172  0.750045  0.178476  1
  O  O127  1  0.668927  0.192717  0.358071  1
  O  O128  1  0.668927  0.692717  0.198720  1
  O  O129  1  0.668956  0.307374  0.317585  1
  O  O130  1  0.668956  0.807373  0.158234  1
  O  O131  1  0.634986  0.304685  0.380137  1
  O  O132  1  0.634986  0.804684  0.220785  1
  O  O133  1  0.635003  0.195408  0.295518  1
  O  O134  1  0.635003  0.695407  0.136167  1
  O  O135  1  0.660734  0.096719  0.323450  1
  O  O136  1  0.660734  0.596718  0.164098  1
  O  O137  1  0.660767  0.403374  0.352205  1
  O  O138  1  0.660767  0.903374  0.192854  1
  O  O139  1  0.669355  0.391481  0.102306  1
  O  O140  1  0.669355  0.891481  0.261657  1
  O  O141  1  0.669381  0.108611  0.254647  1
  O  O142  1  0.669381  0.608611  0.413998  1
  O  O143  1  0.632520  0.409483  0.388946  1
  O  O144  1  0.632520  0.909483  0.229595  1
  O  O145  1  0.632514  0.090610  0.286708  1
  O  O146  1  0.632514  0.590609  0.127357  1
  O  O147  1  0.658835  0.498100  0.130051  1
  O  O148  1  0.658835  0.998100  0.289402  1
  O  O149  1  0.658869  0.001993  0.226902  1
  O  O150  1  0.658869  0.501993  0.386253  1
  O  O151  1  0.168927  0.307376  0.158229  1
  O  O152  1  0.168927  0.807376  0.317580  1
  O  O153  1  0.134987  0.195409  0.136164  1
  O  O154  1  0.134987  0.695408  0.295515  1
  O  O155  1  0.133830  0.402295  0.157477  1
  O  O156  1  0.133830  0.902295  0.316828  1
  O  O157  1  0.365936  0.097804  0.358821  1
  O  O158  1  0.365936  0.597803  0.199470  1
  O  O159  1  0.305790  0.388301  0.167233  1
  O  O160  1  0.305790  0.888301  0.326584  1
  O  O161  1  0.193973  0.111798  0.349066  1
  O  O162  1  0.193973  0.611798  0.189714  1
  O  O163  1  0.160732  0.403374  0.192850  1
  O  O164  1  0.160732  0.903374  0.352202  1
  O  O165  1  0.169356  0.108612  0.413994  1
  O  O166  1  0.169356  0.608612  0.254643  1
  O  O167  1  0.132521  0.090609  0.127354  1
  O  O168  1  0.132521  0.590610  0.286705  1
  O  O169  1  0.194308  0.441841  0.133636  1
  O  O170  1  0.194308  0.941841  0.292987  1
  O  O171  1  0.127687  0.009344  0.331259  1
  O  O172  1  0.127687  0.509343  0.171907  1
  O  O173  1  0.372079  0.490754  0.185038  1
  O  O174  1  0.372079  0.990754  0.344389  1
  O  O175  1  0.305456  0.058253  0.382661  1
  O  O176  1  0.305456  0.558253  0.223310  1
  O  O177  1  0.499880  0.412659  0.165684  1
  O  O178  1  0.499880  0.912658  0.325035  1
  O  O179  1  0.133306  0.071219  0.372582  1
  O  O180  1  0.133306  0.571219  0.213231  1
  O  O181  1  0.366460  0.428876  0.143715  1
  O  O182  1  0.366460  0.928876  0.303066  1
  O  O183  1  0.158835  0.001993  0.386250  1
  O  O184  1  0.158835  0.501993  0.226898  1
  O  O185  1  0.499880  0.055375  0.372021  1
  O  O186  1  0.499880  0.555375  0.212670  1
  O  O187  1  -0.000000  0.266260  0.158304  1
  O  O188  1  0.000000  0.766260  0.317656  1
  O  O189  1  0.830840  0.307371  0.158231  1
  O  O190  1  0.830840  0.807371  0.317583  1
  O  O191  1  0.864792  0.195404  0.136166  1
  O  O192  1  0.864792  0.695404  0.295517  1
  O  O193  1  0.633830  0.097798  0.358823  1
  O  O194  1  0.633830  0.597798  0.199472  1
  O  O195  1  0.865937  0.402289  0.157479  1
  O  O196  1  0.865937  0.902289  0.316830  1
  O  O197  1  0.805790  0.111791  0.349067  1
  O  O198  1  0.805790  0.611792  0.189716  1
  O  O199  1  0.693973  0.388294  0.167235  1
  O  O200  1  0.693973  0.888294  0.326586  1
  O  O201  1  0.839028  0.403369  0.192852  1
  O  O202  1  0.839028  0.903370  0.352204  1
  O  O203  1  0.830414  0.108607  0.413997  1
  O  O204  1  0.830414  0.608607  0.254646  1
  O  O205  1  -0.000000  0.127415  0.113168  1
  O  O206  1  0.000000  0.627415  0.272519  1
  O  O207  1  0.805456  0.441839  0.133639  1
  O  O208  1  0.805456  0.941839  0.292991  1
  O  O209  1  0.627687  0.490749  0.185042  1
  O  O210  1  0.627687  0.990749  0.344393  1
  O  O211  1  0.872079  0.009338  0.331262  1
  O  O212  1  0.872079  0.509338  0.171911  1
  O  O213  1  0.694307  0.058252  0.382664  1
  O  O214  1  0.694307  0.558252  0.223313  1
  O  O215  1  -0.000000  0.087434  0.350616  1
  O  O216  1  0.000000  0.587434  0.191265  1
  O  O217  1  0.633307  0.428874  0.143718  1
  O  O218  1  0.633307  0.928874  0.303070  1
  O  O219  1  0.866460  0.071217  0.372585  1
  O  O220  1  0.866460  0.571216  0.213234  1
  O  O221  1  0.000000  0.444718  0.144279  1
  O  O222  1  -0.000000  0.944718  0.303630  1
  O  O223  1  0.840926  0.001989  0.386252  1
  O  O224  1  0.840926  0.501988  0.226901  1
  O  O225  1  0.867281  0.090606  0.127356  1
  O  O226  1  0.867281  0.590606  0.286707  1
  O  O227  1  -0.000000  0.443403  0.213505  1
  O  O228  1  0.000000  0.943403  0.372857  1
  O  O229  1  0.168956  0.192719  0.517418  1
  O  O230  1  0.168956  0.692719  0.676769  1
  O  O231  1  0.135002  0.304685  0.539485  1
  O  O232  1  0.135002  0.804685  0.698836  1
  O  O233  1  0.133859  0.097804  0.518173  1
  O  O234  1  0.133859  0.597804  0.677524  1
  O  O235  1  0.365965  0.402294  0.635531  1
  O  O236  1  0.365965  0.902294  0.476180  1
  O  O237  1  0.305822  0.111796  0.508416  1
  O  O238  1  0.305822  0.611796  0.667767  1
  O  O239  1  0.194005  0.388303  0.645288  1
  O  O240  1  0.194005  0.888302  0.485937  1
  O  O241  1  0.160766  0.096718  0.482798  1
  O  O242  1  0.160766  0.596718  0.642149  1
  O  O243  1  0.169381  0.391481  0.580356  1
  O  O244  1  0.169381  0.891481  0.421005  1
  O  O245  1  0.132514  0.409483  0.548295  1
  O  O246  1  0.132514  0.909483  0.707646  1
  O  O247  1  0.499915  0.444716  0.622333  1
  O  O248  1  0.499915  0.944716  0.462982  1
  O  O249  1  0.127717  0.490756  0.663092  1
  O  O250  1  0.127717  0.990755  0.503741  1
  O  O251  1  0.372108  0.009342  0.490610  1
  O  O252  1  0.372108  0.509342  0.649961  1
  O  O253  1  0.305488  0.441837  0.611689  1
  O  O254  1  0.305488  0.941837  0.452338  1
  O  O255  1  0.499915  0.087433  0.509967  1
  O  O256  1  0.499915  0.587433  0.669318  1
  O  O257  1  0.133335  0.428874  0.621769  1
  O  O258  1  0.133335  0.928874  0.462417  1
  O  O259  1  0.366489  0.071221  0.531934  1
  O  O260  1  0.366489  0.571221  0.691285  1
  O  O261  1  0.158870  0.498099  0.608101  1
  O  O262  1  0.158870  0.998099  0.448750  1
  O  O263  1  0.194339  0.058257  0.542013  1
  O  O264  1  0.194339  0.558257  0.701364  1
  O  O265  1  0.136172  0.250048  0.497175  1
  O  O266  1  0.136172  0.750047  0.656527  1
  O  O267  1  0.805488  0.058255  0.542016  1
  O  O268  1  0.805488  0.558255  0.701367  1
  O  O269  1  0.000000  0.233829  0.517345  1
  O  O270  1  0.000000  0.733829  0.676696  1
  O  O271  1  0.830867  0.192714  0.517420  1
  O  O272  1  0.830867  0.692714  0.676771  1
  O  O273  1  0.864809  0.304681  0.539487  1
  O  O274  1  0.864809  0.804680  0.698838  1
  O  O275  1  0.633859  0.402289  0.635533  1
  O  O276  1  0.633859  0.902289  0.476182  1
  O  O277  1  0.865965  0.097798  0.518174  1
  O  O278  1  0.865965  0.597798  0.677526  1
  O  O279  1  0.805823  0.388296  0.645289  1
  O  O280  1  0.805823  0.888296  0.485938  1
  O  O281  1  0.694005  0.111789  0.508418  1
  O  O282  1  0.694005  0.611789  0.667769  1
  O  O283  1  0.839063  0.096713  0.482800  1
  O  O284  1  0.839063  0.596713  0.642151  1
  O  O285  1  0.830439  0.391477  0.580359  1
  O  O286  1  0.830439  0.891477  0.421008  1
  O  O287  1  0.867274  0.409479  0.548297  1
  O  O288  1  0.867274  0.909479  0.707648  1
  O  O289  1  -0.000000  0.372674  0.562483  1
  O  O290  1  -0.000000  0.872674  0.721834  1
  O  O291  1  0.000000  0.056684  0.462145  1
  O  O292  1  0.000000  0.556684  0.621496  1
  O  O293  1  0.627716  0.009337  0.490613  1
  O  O294  1  0.627716  0.509337  0.649965  1
  O  O295  1  0.872108  0.490750  0.663096  1
  O  O296  1  0.872108  0.990750  0.503744  1
  O  O297  1  0.694338  0.441836  0.611693  1
  O  O298  1  0.694338  0.941836  0.452342  1
  O  O299  1  -0.000000  0.412659  0.643738  1
  O  O300  1  -0.000000  0.912659  0.484387  1
  O  O301  1  0.633335  0.071219  0.531937  1
  O  O302  1  0.633335  0.571219  0.691288  1
  O  O303  1  0.866489  0.428872  0.621772  1
  O  O304  1  0.866489  0.928871  0.462420  1
  O  O305  1  0.840958  0.498095  0.608103  1
  O  O306  1  0.840958  0.998095  0.448752  1
  O  O307  1  0.863623  0.250045  0.497178  1
  O  O308  1  0.863623  0.750045  0.656529  1
  O  O309  1  -0.000000  0.055376  0.531373  1
  O  O310  1  -0.000000  0.555376  0.690724  1
  O  O311  1  0.363623  0.250048  0.656528  1
  O  O312  1  0.363623  0.750048  0.497176  1
  O  O313  1  0.499888  0.233833  0.676699  1
  O  O314  1  0.499888  0.733833  0.517347  1
  O  O315  1  0.330867  0.307378  0.636285  1
  O  O316  1  0.330867  0.807378  0.476934  1
  O  O317  1  0.330840  0.192722  0.676771  1
  O  O318  1  0.330840  0.692722  0.517420  1
  O  O319  1  0.364809  0.195411  0.614219  1
  O  O320  1  0.364809  0.695411  0.454867  1
  O  O321  1  0.364792  0.304688  0.698837  1
  O  O322  1  0.364792  0.804689  0.539486  1
  O  O323  1  0.339062  0.403379  0.670905  1
  O  O324  1  0.339062  0.903378  0.511554  1
  O  O325  1  0.339028  0.096723  0.642150  1
  O  O326  1  0.339028  0.596723  0.482799  1
  O  O327  1  0.330440  0.108616  0.573346  1
  O  O328  1  0.330440  0.608616  0.732697  1
  O  O329  1  0.330414  0.391486  0.421006  1
  O  O330  1  0.330414  0.891486  0.580357  1
  O  O331  1  0.367275  0.090614  0.605409  1
  O  O332  1  0.367275  0.590613  0.446057  1
  O  O333  1  0.367281  0.409488  0.707647  1
  O  O334  1  0.367281  0.909487  0.548296  1
  O  O335  1  0.499889  0.372678  0.721835  1
  O  O336  1  0.499889  0.872678  0.562484  1
  O  O337  1  0.499906  0.127419  0.591223  1
  O  O338  1  0.499906  0.627418  0.431871  1
  O  O339  1  0.499912  0.443408  0.691561  1
  O  O340  1  0.499912  0.943408  0.532209  1
  O  O341  1  0.340959  0.001997  0.545602  1
  O  O342  1  0.340959  0.501997  0.704954  1
  O  O343  1  0.340928  0.498104  0.448751  1
  O  O344  1  0.340928  0.998104  0.608102  1
  O  O345  1  0.499907  0.266263  0.636360  1
  O  O346  1  0.499907  0.766263  0.477009  1
  O  O347  1  0.499884  0.056691  0.621498  1
  O  O348  1  0.499884  0.556690  0.462146  1
  O  O349  1  0.636172  0.250045  0.656530  1
  O  O350  1  0.636172  0.750045  0.497179  1
  O  O351  1  0.668927  0.192717  0.676774  1
  O  O352  1  0.668927  0.692717  0.517423  1
  O  O353  1  0.668956  0.307374  0.636288  1
  O  O354  1  0.668956  0.807373  0.476936  1
  O  O355  1  0.634986  0.304685  0.698840  1
  O  O356  1  0.634986  0.804684  0.539488  1
  O  O357  1  0.635003  0.195408  0.614221  1
  O  O358  1  0.635003  0.695407  0.454869  1
  O  O359  1  0.660734  0.096719  0.642153  1
  O  O360  1  0.660734  0.596719  0.482801  1
  O  O361  1  0.660767  0.403374  0.670908  1
  O  O362  1  0.660767  0.903374  0.511556  1
  O  O363  1  0.669355  0.391481  0.421009  1
  O  O364  1  0.669355  0.891481  0.580360  1
  O  O365  1  0.669381  0.108611  0.573349  1
  O  O366  1  0.669381  0.608611  0.732701  1
  O  O367  1  0.632520  0.409483  0.707649  1
  O  O368  1  0.632520  0.909483  0.548298  1
  O  O369  1  0.632514  0.090610  0.605411  1
  O  O370  1  0.632514  0.590610  0.446060  1
  O  O371  1  0.658835  0.498100  0.448753  1
  O  O372  1  0.658835  0.998100  0.608105  1
  O  O373  1  0.658869  0.001993  0.545604  1
  O  O374  1  0.658869  0.501993  0.704956  1
  O  O375  1  0.168927  0.307376  0.476932  1
  O  O376  1  0.168927  0.807376  0.636283  1
  O  O377  1  0.134987  0.195409  0.454866  1
  O  O378  1  0.134987  0.695409  0.614218  1
  O  O379  1  0.133830  0.402295  0.476179  1
  O  O380  1  0.133830  0.902295  0.635531  1
  O  O381  1  0.365936  0.097804  0.677524  1
  O  O382  1  0.365936  0.597803  0.518173  1
  O  O383  1  0.305790  0.388302  0.485936  1
  O  O384  1  0.305790  0.888302  0.645287  1
  O  O385  1  0.193973  0.111798  0.667768  1
  O  O386  1  0.193973  0.611798  0.508417  1
  O  O387  1  0.160732  0.403374  0.511553  1
  O  O388  1  0.160732  0.903375  0.670904  1
  O  O389  1  0.169356  0.108612  0.732697  1
  O  O390  1  0.169356  0.608612  0.573346  1
  O  O391  1  0.132521  0.090610  0.446056  1
  O  O392  1  0.132521  0.590610  0.605408  1
  O  O393  1  0.194308  0.441841  0.452339  1
  O  O394  1  0.194308  0.941841  0.611690  1
  O  O395  1  0.127687  0.009344  0.649961  1
  O  O396  1  0.127687  0.509344  0.490610  1
  O  O397  1  0.372079  0.490754  0.503741  1
  O  O398  1  0.372079  0.990754  0.663092  1
  O  O399  1  0.305456  0.058253  0.701364  1
  O  O400  1  0.305456  0.558254  0.542012  1
  O  O401  1  0.499880  0.412658  0.484386  1
  O  O402  1  0.499880  0.912658  0.643738  1
  O  O403  1  0.133306  0.071219  0.691285  1
  O  O404  1  0.133306  0.571219  0.531934  1
  O  O405  1  0.366460  0.428876  0.462418  1
  O  O406  1  0.366460  0.928876  0.621769  1
  O  O407  1  0.158835  0.001993  0.704952  1
  O  O408  1  0.158835  0.501993  0.545601  1
  O  O409  1  0.499880  0.055375  0.690724  1
  O  O410  1  0.499880  0.555375  0.531373  1
  O  O411  1  -0.000000  0.266260  0.477007  1
  O  O412  1  -0.000000  0.766260  0.636358  1
  O  O413  1  0.830840  0.307371  0.476934  1
  O  O414  1  0.830840  0.807371  0.636285  1
  O  O415  1  0.864792  0.195404  0.454868  1
  O  O416  1  0.864792  0.695404  0.614220  1
  O  O417  1  0.633830  0.097798  0.677526  1
  O  O418  1  0.633830  0.597798  0.518175  1
  O  O419  1  0.865937  0.402289  0.476182  1
  O  O420  1  0.865937  0.902289  0.635533  1
  O  O421  1  0.805790  0.111792  0.667770  1
  O  O422  1  0.805790  0.611792  0.508419  1
  O  O423  1  0.693973  0.388294  0.485937  1
  O  O424  1  0.693973  0.888294  0.645289  1
  O  O425  1  0.839028  0.403369  0.511555  1
  O  O426  1  0.839028  0.903370  0.670907  1
  O  O427  1  0.830414  0.108607  0.732700  1
  O  O428  1  0.830414  0.608607  0.573349  1
  O  O429  1  -0.000000  0.127415  0.431870  1
  O  O430  1  0.000000  0.627415  0.591222  1
  O  O431  1  0.805456  0.441839  0.452342  1
  O  O432  1  0.805456  0.941839  0.611693  1
  O  O433  1  0.627687  0.490749  0.503744  1
  O  O434  1  0.627687  0.990749  0.663096  1
  O  O435  1  0.872079  0.009338  0.649965  1
  O  O436  1  0.872079  0.509338  0.490613  1
  O  O437  1  0.694307  0.058252  0.701367  1
  O  O438  1  0.694307  0.558252  0.542016  1
  O  O439  1  -0.000000  0.087435  0.669319  1
  O  O440  1  0.000000  0.587434  0.509968  1
  O  O441  1  0.633307  0.428874  0.462421  1
  O  O442  1  0.633307  0.928874  0.621772  1
  O  O443  1  0.866460  0.071217  0.691288  1
  O  O444  1  0.866460  0.571216  0.531937  1
  O  O445  1  0.000000  0.444718  0.462982  1
  O  O446  1  -0.000000  0.944718  0.622333  1
  O  O447  1  0.840926  0.001989  0.704955  1
  O  O448  1  0.840926  0.501988  0.545603  1
  O  O449  1  0.867281  0.090606  0.446059  1
  O  O450  1  0.867281  0.590606  0.605410  1
  O  O451  1  -0.000000  0.443403  0.532208  1
  O  O452  1  0.000000  0.943403  0.691559  1
  O  O453  1  0.169381  0.891481  0.739708  1
  O  O454  1  0.830439  0.891477  0.739711  1
  O  O455  1  0.330414  0.391486  0.739709  1
  O  O456  1  0.669355  0.391481  0.739711  1
  Si  Si457  1  0.193623  0.438927  0.286252  1
  Si  Si458  1  0.193623  0.938927  0.126900  1
  Si  Si459  1  0.113509  0.245084  0.199408  1
  Si  Si460  1  0.113509  0.745084  0.358759  1
  Si  Si461  1  0.194081  0.127001  0.188683  1
  Si  Si462  1  0.194081  0.627001  0.348035  1
  Si  Si463  1  0.113267  0.368740  0.239094  1
  Si  Si464  1  0.113267  0.868740  0.398445  1
  Si  Si465  1  0.112360  0.051392  0.206211  1
  Si  Si466  1  0.112360  0.551392  0.365562  1
  Si  Si467  1  0.387466  0.448705  0.310087  1
  Si  Si468  1  0.387466  0.948704  0.150735  1
  Si  Si469  1  0.112445  0.427594  0.324797  1
  Si  Si470  1  0.112445  0.927595  0.165445  1
  Si  Si471  1  0.387382  0.072502  0.191500  1
  Si  Si472  1  0.387382  0.572502  0.350852  1
  Si  Si473  1  0.113864  0.059843  0.140858  1
  Si  Si474  1  0.113864  0.559843  0.300209  1
  Si  Si475  1  0.806202  0.438924  0.286255  1
  Si  Si476  1  0.806202  0.938924  0.126903  1
  Si  Si477  1  0.885958  0.059839  0.140859  1
  Si  Si478  1  0.885958  0.559839  0.300211  1
  Si  Si479  1  0.886303  0.245080  0.199409  1
  Si  Si480  1  0.886303  0.745080  0.358761  1
  Si  Si481  1  0.805746  0.126996  0.188685  1
  Si  Si482  1  0.805746  0.626996  0.348037  1
  Si  Si483  1  0.886541  0.368737  0.239096  1
  Si  Si484  1  0.886541  0.868736  0.398447  1
  Si  Si485  1  0.612360  0.448701  0.310089  1
  Si  Si486  1  0.612360  0.948700  0.150738  1
  Si  Si487  1  0.887466  0.051388  0.206213  1
  Si  Si488  1  0.887466  0.551388  0.365564  1
  Si  Si489  1  0.612445  0.072498  0.191503  1
  Si  Si490  1  0.612445  0.572498  0.350855  1
  Si  Si491  1  0.887382  0.427590  0.324799  1
  Si  Si492  1  0.887382  0.927590  0.165448  1
  Si  Si493  1  0.306173  0.438931  0.126901  1
  Si  Si494  1  0.306173  0.938932  0.286252  1
  Si  Si495  1  0.306202  0.061168  0.230045  1
  Si  Si496  1  0.306202  0.561168  0.389397  1
  Si  Si497  1  0.386303  0.255012  0.316891  1
  Si  Si498  1  0.386303  0.755011  0.157539  1
  Si  Si499  1  0.386286  0.245087  0.358761  1
  Si  Si500  1  0.386286  0.745086  0.199409  1
  Si  Si501  1  0.305746  0.373096  0.327614  1
  Si  Si502  1  0.305746  0.873096  0.168263  1
  Si  Si503  1  0.305715  0.127004  0.348036  1
  Si  Si504  1  0.305715  0.627003  0.188685  1
  Si  Si505  1  0.386541  0.131356  0.277204  1
  Si  Si506  1  0.386541  0.631355  0.117853  1
  Si  Si507  1  0.386527  0.368744  0.398446  1
  Si  Si508  1  0.386527  0.868744  0.239095  1
  Si  Si509  1  0.385958  0.440253  0.375440  1
  Si  Si510  1  0.385958  0.940253  0.216089  1
  Si  Si511  1  0.385931  0.059848  0.300211  1
  Si  Si512  1  0.385931  0.559848  0.140859  1
  Si  Si513  1  0.613864  0.440249  0.375442  1
  Si  Si514  1  0.613864  0.940249  0.216091  1
  Si  Si515  1  0.613838  0.059845  0.300212  1
  Si  Si516  1  0.613838  0.559844  0.140861  1
  Si  Si517  1  0.693623  0.061165  0.230048  1
  Si  Si518  1  0.693623  0.561165  0.389400  1
  Si  Si519  1  0.693593  0.438928  0.126904  1
  Si  Si520  1  0.693593  0.938928  0.286256  1
  Si  Si521  1  0.613492  0.245084  0.358763  1
  Si  Si522  1  0.613492  0.745084  0.199411  1
  Si  Si523  1  0.613509  0.255008  0.316892  1
  Si  Si524  1  0.613509  0.755008  0.157541  1
  Si  Si525  1  0.694049  0.126998  0.348038  1
  Si  Si526  1  0.694049  0.626998  0.188687  1
  Si  Si527  1  0.694081  0.373091  0.327616  1
  Si  Si528  1  0.694081  0.873091  0.168265  1
  Si  Si529  1  0.613254  0.368741  0.398448  1
  Si  Si530  1  0.613254  0.868740  0.239097  1
  Si  Si531  1  0.613268  0.131352  0.277206  1
  Si  Si532  1  0.613268  0.631352  0.117855  1
  Si  Si533  1  0.113493  0.255009  0.157537  1
  Si  Si534  1  0.113493  0.755010  0.316889  1
  Si  Si535  1  0.194049  0.373095  0.168262  1
  Si  Si536  1  0.194049  0.873095  0.327613  1
  Si  Si537  1  0.113254  0.131353  0.117852  1
  Si  Si538  1  0.113254  0.631352  0.277204  1
  Si  Si539  1  0.112329  0.448706  0.150735  1
  Si  Si540  1  0.112329  0.948706  0.310087  1
  Si  Si541  1  0.387435  0.051391  0.365562  1
  Si  Si542  1  0.387435  0.551391  0.206211  1
  Si  Si543  1  0.112413  0.072503  0.350852  1
  Si  Si544  1  0.112413  0.572503  0.191501  1
  Si  Si545  1  0.387351  0.427594  0.165445  1
  Si  Si546  1  0.387351  0.927594  0.324797  1
  Si  Si547  1  0.113837  0.440248  0.216088  1
  Si  Si548  1  0.113837  0.940248  0.375439  1
  Si  Si549  1  0.193593  0.061164  0.389396  1
  Si  Si550  1  0.193593  0.561165  0.230045  1
  Si  Si551  1  0.886286  0.255006  0.157539  1
  Si  Si552  1  0.886286  0.755006  0.316890  1
  Si  Si553  1  0.805715  0.373089  0.168264  1
  Si  Si554  1  0.805715  0.873089  0.327615  1
  Si  Si555  1  0.886528  0.131349  0.117854  1
  Si  Si556  1  0.886528  0.631349  0.277205  1
  Si  Si557  1  0.612329  0.051387  0.365565  1
  Si  Si558  1  0.612329  0.551387  0.206213  1
  Si  Si559  1  0.887436  0.448701  0.150738  1
  Si  Si560  1  0.887436  0.948701  0.310089  1
  Si  Si561  1  0.612413  0.427590  0.165448  1
  Si  Si562  1  0.612413  0.927590  0.324799  1
  Si  Si563  1  0.887351  0.072498  0.350855  1
  Si  Si564  1  0.887351  0.572499  0.191503  1
  Si  Si565  1  0.885931  0.440244  0.216089  1
  Si  Si566  1  0.885931  0.940244  0.375441  1
  Si  Si567  1  0.806172  0.061161  0.389399  1
  Si  Si568  1  0.806172  0.561161  0.230048  1
  Si  Si569  1  0.193623  0.438927  0.604954  1
  Si  Si570  1  0.193623  0.938927  0.445603  1
  Si  Si571  1  0.113509  0.245084  0.518110  1
  Si  Si572  1  0.113509  0.745084  0.677462  1
  Si  Si573  1  0.194081  0.127001  0.507386  1
  Si  Si574  1  0.194081  0.627001  0.666737  1
  Si  Si575  1  0.113267  0.368740  0.557797  1
  Si  Si576  1  0.113267  0.868740  0.717148  1
  Si  Si577  1  0.112360  0.051392  0.524913  1
  Si  Si578  1  0.112360  0.551392  0.684265  1
  Si  Si579  1  0.387466  0.448705  0.628789  1
  Si  Si580  1  0.387466  0.948705  0.469438  1
  Si  Si581  1  0.112445  0.427595  0.643499  1
  Si  Si582  1  0.112445  0.927595  0.484148  1
  Si  Si583  1  0.387382  0.072502  0.510203  1
  Si  Si584  1  0.387382  0.572502  0.669554  1
  Si  Si585  1  0.113864  0.059843  0.459561  1
  Si  Si586  1  0.113864  0.559843  0.618912  1
  Si  Si587  1  0.806202  0.438924  0.604958  1
  Si  Si588  1  0.806202  0.938924  0.445606  1
  Si  Si589  1  0.885958  0.059839  0.459562  1
  Si  Si590  1  0.885958  0.559839  0.618914  1
  Si  Si591  1  0.886303  0.245081  0.518112  1
  Si  Si592  1  0.886303  0.745080  0.677464  1
  Si  Si593  1  0.805746  0.126996  0.507388  1
  Si  Si594  1  0.805746  0.626996  0.666740  1
  Si  Si595  1  0.886541  0.368736  0.557798  1
  Si  Si596  1  0.886541  0.868736  0.717150  1
  Si  Si597  1  0.612360  0.448701  0.628792  1
  Si  Si598  1  0.612360  0.948700  0.469441  1
  Si  Si599  1  0.887466  0.051388  0.524916  1
  Si  Si600  1  0.887466  0.551387  0.684267  1
  Si  Si601  1  0.612445  0.072498  0.510206  1
  Si  Si602  1  0.612445  0.572498  0.669557  1
  Si  Si603  1  0.887382  0.427590  0.643502  1
  Si  Si604  1  0.887382  0.927590  0.484151  1
  Si  Si605  1  0.306173  0.438931  0.445604  1
  Si  Si606  1  0.306173  0.938931  0.604955  1
  Si  Si607  1  0.306202  0.061169  0.548748  1
  Si  Si608  1  0.306202  0.561168  0.708099  1
  Si  Si609  1  0.386303  0.255012  0.635593  1
  Si  Si610  1  0.386303  0.755012  0.476242  1
  Si  Si611  1  0.386286  0.245086  0.677464  1
  Si  Si612  1  0.386286  0.745086  0.518112  1
  Si  Si613  1  0.305746  0.373096  0.646317  1
  Si  Si614  1  0.305746  0.873096  0.486966  1
  Si  Si615  1  0.305715  0.127004  0.666739  1
  Si  Si616  1  0.305715  0.627003  0.507388  1
  Si  Si617  1  0.386541  0.131356  0.595907  1
  Si  Si618  1  0.386541  0.631355  0.436556  1
  Si  Si619  1  0.386527  0.368744  0.717149  1
  Si  Si620  1  0.386527  0.868744  0.557798  1
  Si  Si621  1  0.385958  0.440253  0.694143  1
  Si  Si622  1  0.385958  0.940253  0.534792  1
  Si  Si623  1  0.385931  0.059848  0.618914  1
  Si  Si624  1  0.385931  0.559848  0.459562  1
  Si  Si625  1  0.613864  0.440250  0.694145  1
  Si  Si626  1  0.613864  0.940249  0.534793  1
  Si  Si627  1  0.613838  0.059845  0.618915  1
  Si  Si628  1  0.613838  0.559844  0.459564  1
  Si  Si629  1  0.693623  0.061165  0.548751  1
  Si  Si630  1  0.693623  0.561165  0.708102  1
  Si  Si631  1  0.693593  0.438928  0.445607  1
  Si  Si632  1  0.693593  0.938928  0.604958  1
  Si  Si633  1  0.613492  0.245084  0.677465  1
  Si  Si634  1  0.613492  0.745083  0.518114  1
  Si  Si635  1  0.613509  0.255009  0.635595  1
  Si  Si636  1  0.613509  0.755008  0.476244  1
  Si  Si637  1  0.694049  0.126998  0.666741  1
  Si  Si638  1  0.694049  0.626998  0.507390  1
  Si  Si639  1  0.694081  0.373091  0.646319  1
  Si  Si640  1  0.694081  0.873091  0.486968  1
  Si  Si641  1  0.613254  0.368741  0.717151  1
  Si  Si642  1  0.613254  0.868741  0.557799  1
  Si  Si643  1  0.613268  0.131353  0.595909  1
  Si  Si644  1  0.613268  0.631352  0.436557  1
  Si  Si645  1  0.113493  0.255009  0.476240  1
  Si  Si646  1  0.113493  0.755010  0.635591  1
  Si  Si647  1  0.194049  0.373095  0.486965  1
  Si  Si648  1  0.194049  0.873095  0.646316  1
  Si  Si649  1  0.113254  0.131353  0.436555  1
  Si  Si650  1  0.113254  0.631352  0.595907  1
  Si  Si651  1  0.112329  0.448706  0.469438  1
  Si  Si652  1  0.112329  0.948706  0.628789  1
  Si  Si653  1  0.387435  0.051391  0.684265  1
  Si  Si654  1  0.387435  0.551391  0.524913  1
  Si  Si655  1  0.112413  0.072503  0.669555  1
  Si  Si656  1  0.112413  0.572503  0.510204  1
  Si  Si657  1  0.387351  0.427594  0.484148  1
  Si  Si658  1  0.387351  0.927594  0.643499  1
  Si  Si659  1  0.113837  0.440248  0.534791  1
  Si  Si660  1  0.113837  0.940248  0.694142  1
  Si  Si661  1  0.193593  0.061164  0.708099  1
  Si  Si662  1  0.193593  0.561164  0.548747  1
  Si  Si663  1  0.886286  0.255006  0.476242  1
  Si  Si664  1  0.886286  0.755006  0.635593  1
  Si  Si665  1  0.805715  0.373089  0.486966  1
  Si  Si666  1  0.805715  0.873089  0.646318  1
  Si  Si667  1  0.886528  0.131349  0.436557  1
  Si  Si668  1  0.886528  0.631349  0.595908  1
  Si  Si669  1  0.612329  0.051387  0.684267  1
  Si  Si670  1  0.612329  0.551387  0.524916  1
  Si  Si671  1  0.887436  0.448702  0.469441  1
  Si  Si672  1  0.887436  0.948702  0.628792  1
  Si  Si673  1  0.612413  0.427590  0.484150  1
  Si  Si674  1  0.612413  0.927590  0.643502  1
  Si  Si675  1  0.887351  0.072499  0.669557  1
  Si  Si676  1  0.887351  0.572498  0.510206  1
  Si  Si677  1  0.885931  0.440244  0.534792  1
  Si  Si678  1  0.885931  0.940244  0.694143  1
  Si  Si679  1  0.806172  0.061161  0.708102  1
  Si  Si680  1  0.806172  0.561161  0.548750  1
  H  H681  1  0.330440  0.608616  0.082499  1
  H  H682  1  0.669381  0.608611  0.082502  1
  H  H683  1  0.169356  0.108612  0.082498  1
  H  H684  1  0.830414  0.108607  0.082501  1
  H  H685  1  0.169381  0.891481  0.089509  1
  H  H686  1  0.830439  0.891477  0.089512  1
  H  H687  1  0.330414  0.391486  0.089510  1
  H  H688  1  0.669355  0.391481  0.089513  1
  H  H689  1  0.330440  0.608616  0.745491  1
  H  H690  1  0.669381  0.608611  0.745494  1
  H  H691  1  0.169356  0.108612  0.745490  1
  H  H692  1  0.830414  0.108607  0.745493  1
  H  H693  1  0.169381  0.891481  0.752501  1
  H  H694  1  0.830439  0.891477  0.752504  1
  H  H695  1  0.330414  0.391486  0.752502  1
  H  H696  1  0.669355  0.391481  0.752505  1
