# generated using pymatgen
data_Si18H2O37
_symmetry_space_group_name_H-M   'P 1'
_cell_length_a   15.61262590
_cell_length_b   7.47100763
_cell_length_c   38.56728678
_cell_angle_alpha   90.00000000
_cell_angle_beta   90.00000000
_cell_angle_gamma   96.07000000
_symmetry_Int_Tables_number   1
_chemical_formula_structural   Si18H2O37
_chemical_formula_sum   'Si36 H4 O74'
_cell_volume   4473.3458325
_cell_formula_units_Z   2
loop_
 _symmetry_equiv_pos_site_id
 _symmetry_equiv_pos_as_xyz
  1  'x, y, z'
loop_
 _atom_site_type_symbol
 _atom_site_label
 _atom_site_symmetry_multiplicity
 _atom_site_fract_x
 _atom_site_fract_y
 _atom_site_fract_z
 _atom_site_occupancy
  O  O1  1  0.966725  0.655753  0.267243  1
  O  O2  1  0.466707  0.655767  0.484619  1
  O  O3  1  0.033136  0.343896  0.267242  1
  O  O4  1  0.533118  0.343909  0.484620  1
  O  O5  1  0.033118  0.343909  0.473470  1
  O  O6  1  0.533132  0.343900  0.256093  1
  O  O7  1  0.966710  0.655763  0.473470  1
  O  O8  1  0.466725  0.655753  0.256093  1
  O  O9  1  0.419530  0.411793  0.439764  1
  O  O10  1  0.919552  0.411786  0.222385  1
  O  O11  1  0.580290  0.587877  0.439762  1
  O  O12  1  0.080312  0.587870  0.222387  1
  O  O13  1  0.580312  0.587869  0.300949  1
  O  O14  1  0.080290  0.587877  0.518328  1
  O  O15  1  0.419552  0.411786  0.300951  1
  O  O16  1  0.919530  0.411793  0.518326  1
  O  O17  1  0.730444  0.793307  0.324512  1
  O  O18  1  0.230425  0.793303  0.541893  1
  O  O19  1  0.269417  0.206359  0.324516  1
  O  O20  1  0.769398  0.206356  0.541889  1
  O  O21  1  0.269398  0.206356  0.416201  1
  O  O22  1  0.769417  0.206359  0.198820  1
  O  O23  1  0.730425  0.793304  0.416197  1
  O  O24  1  0.230444  0.793307  0.198824  1
  O  O25  1  0.722391  0.451994  0.307568  1
  O  O26  1  0.222367  0.451992  0.524948  1
  O  O27  1  0.277476  0.547670  0.307571  1
  O  O28  1  0.777451  0.547668  0.524945  1
  O  O29  1  0.277451  0.547669  0.433145  1
  O  O30  1  0.777476  0.547670  0.215764  1
  O  O31  1  0.722367  0.451992  0.433141  1
  O  O32  1  0.222391  0.451994  0.215768  1
  O  O33  1  0.704559  0.699177  0.263529  1
  O  O34  1  0.204538  0.699181  0.480910  1
  O  O35  1  0.295304  0.300481  0.263533  1
  O  O36  1  0.795284  0.300485  0.480906  1
  O  O37  1  0.295284  0.300485  0.477184  1
  O  O38  1  0.795304  0.300481  0.259803  1
  O  O39  1  0.704538  0.699181  0.477180  1
  O  O40  1  0.204558  0.699177  0.259807  1
  O  O41  1  0.349986  0.831222  0.461270  1
  O  O42  1  0.850008  0.831220  0.243893  1
  O  O43  1  0.649834  0.168443  0.461270  1
  O  O44  1  0.149856  0.168440  0.243893  1
  O  O45  1  0.649859  0.168435  0.279443  1
  O  O46  1  0.149834  0.168443  0.496820  1
  O  O47  1  0.350008  0.831219  0.279443  1
  O  O48  1  0.849983  0.831228  0.496820  1
  O  O49  1  0.885204  0.881439  0.306640  1
  O  O50  1  0.385183  0.881446  0.524017  1
  O  O51  1  0.114659  0.118216  0.306640  1
  O  O52  1  0.614638  0.118223  0.524017  1
  O  O53  1  0.114638  0.118223  0.434073  1
  O  O54  1  0.614659  0.118216  0.216696  1
  O  O55  1  0.885183  0.881446  0.434073  1
  O  O56  1  0.385204  0.881439  0.216696  1
  O  O57  1  -0.000000  -0.000000  0.262070  1
  O  O58  1  0.499910  0.000000  0.479447  1
  O  O59  1  -0.000000  -0.000000  0.478643  1
  O  O60  1  0.499933  -0.000000  0.261266  1
  O  O61  1  0.783675  0.126579  0.317644  1
  O  O62  1  0.283650  0.126578  0.535024  1
  O  O63  1  0.216192  0.873085  0.317647  1
  O  O64  1  0.716167  0.873084  0.535021  1
  O  O65  1  0.216167  0.873084  0.423069  1
  O  O66  1  0.716192  0.873085  0.205689  1
  O  O67  1  0.783650  0.126578  0.423066  1
  O  O68  1  0.283675  0.126579  0.205692  1
  O  O69  1  0.833085  0.945711  0.370356  1
  O  O70  1  0.333086  0.945711  0.152979  1
  O  O71  1  0.166757  0.053952  0.370356  1
  O  O72  1  0.666757  0.053952  0.152979  1
  O  O73  1  0.333086  0.945711  0.587734  1
  O  O74  1  0.666757  0.053952  0.587734  1
  Si  Si75  1  0.189282  0.059980  0.410143  1
  Si  Si76  1  0.689300  0.059979  0.192763  1
  Si  Si77  1  0.810542  0.939683  0.410141  1
  Si  Si78  1  0.310560  0.939682  0.192765  1
  Si  Si79  1  0.810560  0.939682  0.330570  1
  Si  Si80  1  0.310542  0.939683  0.547949  1
  Si  Si81  1  0.189300  0.059979  0.330572  1
  Si  Si82  1  0.689282  0.059980  0.547948  1
  Si  Si83  1  0.927636  0.842256  0.270511  1
  Si  Si84  1  0.427615  0.842266  0.487888  1
  Si  Si85  1  0.072227  0.157396  0.270511  1
  Si  Si86  1  0.572206  0.157407  0.487888  1
  Si  Si87  1  0.072206  0.157407  0.470202  1
  Si  Si88  1  0.572227  0.157397  0.252825  1
  Si  Si89  1  0.927615  0.842266  0.470202  1
  Si  Si90  1  0.427636  0.842256  0.252825  1
  Si  Si91  1  0.682129  0.636996  0.301998  1
  Si  Si92  1  0.182109  0.636999  0.519379  1
  Si  Si93  1  0.317734  0.362665  0.302002  1
  Si  Si94  1  0.817714  0.362667  0.519375  1
  Si  Si95  1  0.317712  0.362666  0.438715  1
  Si  Si96  1  0.817735  0.362666  0.221334  1
  Si  Si97  1  0.682108  0.636997  0.438711  1
  Si  Si98  1  0.182130  0.636997  0.221338  1
  Si  Si99  1  0.739484  0.259823  0.293403  1
  Si  Si100  1  0.239460  0.259822  0.510783  1
  Si  Si101  1  0.260383  0.739840  0.293406  1
  Si  Si102  1  0.760358  0.739840  0.510780  1
  Si  Si103  1  0.260359  0.739840  0.447310  1
  Si  Si104  1  0.760382  0.739840  0.229930  1
  Si  Si105  1  0.739460  0.259823  0.447307  1
  Si  Si106  1  0.239484  0.259823  0.229933  1
  Si  Si107  1  -0.000000  0.499825  0.244421  1
  Si  Si108  1  0.499912  0.499837  0.461798  1
  Si  Si109  1  -0.000000  0.499836  0.496292  1
  Si  Si110  1  0.499931  0.499826  0.278915  1
  H  H111  1  0.333086  0.945711  0.129644  1
  H  H112  1  0.666757  0.053952  0.129644  1
  H  H113  1  0.333086  0.945711  0.611069  1
  H  H114  1  0.666757  0.053952  0.611069  1
