# generated using pymatgen
data_Si16H6O35
_symmetry_space_group_name_H-M   'P 1'
_cell_length_a   15.01225698
_cell_length_b   16.36465187
_cell_length_c   67.77622627
_cell_angle_alpha   30.07656819
_cell_angle_beta   90.00000000
_cell_angle_gamma   90.00000000
_symmetry_Int_Tables_number   1
_chemical_formula_structural   Si16H6O35
_chemical_formula_sum   'Si64 H24 O140'
_cell_volume   8344.56770184
_cell_formula_units_Z   4
loop_
 _symmetry_equiv_pos_site_id
 _symmetry_equiv_pos_as_xyz
  1  'x, y, z'
loop_
 _atom_site_type_symbol
 _atom_site_label
 _atom_site_symmetry_multiplicity
 _atom_site_fract_x
 _atom_site_fract_y
 _atom_site_fract_z
 _atom_site_occupancy
  O  O1  1  0.663956  0.812102  0.231310  1
  O  O2  1  0.330186  0.441817  0.186381  1
  O  O3  1  0.002081  0.557598  0.233089  1
  O  O4  1  0.335418  0.249320  0.186947  1
  O  O5  1  0.163509  0.189726  0.195074  1
  O  O6  1  0.831204  0.557181  0.241722  1
  O  O7  1  0.497246  0.250577  0.274808  1
  O  O8  1  0.501550  0.441597  0.194638  1
  O  O9  1  0.835194  0.753809  0.239166  1
  O  O10  1  0.168932  0.806105  0.275408  1
  O  O11  1  0.772940  0.022692  0.171919  1
  O  O12  1  0.439752  0.226593  0.217210  1
  O  O13  1  0.106367  0.751408  0.181559  1
  O  O14  1  0.892060  0.767511  0.174086  1
  O  O15  1  0.225226  0.247460  0.216617  1
  O  O16  1  0.558697  0.981223  0.180705  1
  O  O17  1  0.273160  0.980775  0.253794  1
  O  O18  1  0.941660  0.781725  0.207938  1
  O  O19  1  0.605807  0.247158  0.245708  1
  O  O20  1  0.391931  0.231188  0.253324  1
  O  O21  1  0.725974  0.753633  0.210163  1
  O  O22  1  0.059125  0.015811  0.246381  1
  O  O23  1  0.549233  0.649247  0.249231  1
  O  O24  1  0.215865  0.406612  0.219004  1
  O  O25  1  0.882456  0.943331  0.241960  1
  O  O26  1  0.120431  0.588435  0.250757  1
  O  O27  1  0.451016  0.054546  0.219015  1
  O  O28  1  0.786211  0.353916  0.241595  1
  O  O29  1  0.048781  0.350772  0.177671  1
  O  O30  1  0.717396  0.591014  0.208879  1
  O  O31  1  0.380011  0.057664  0.185321  1
  O  O32  1  0.619781  0.412275  0.176293  1
  O  O33  1  0.953133  0.943831  0.208770  1
  O  O34  1  0.286368  0.644872  0.185637  1
  O  O35  1  0.494417  0.837993  0.238858  1
  O  O36  1  0.161932  0.524495  0.160483  1
  O  O37  1  0.829486  0.640182  0.170787  1
  O  O38  1  0.171188  0.479162  0.239205  1
  O  O39  1  0.505509  0.358528  0.160792  1
  O  O40  1  0.837499  0.161246  0.171363  1
  O  O41  1  0.995516  0.166259  0.186742  1
  O  O42  1  0.663151  0.475115  0.266951  1
  O  O43  1  0.329980  0.359956  0.256291  1
  O  O44  1  0.670929  0.520272  0.188244  1
  O  O45  1  0.004289  0.640700  0.266058  1
  O  O46  1  0.336715  0.833440  0.256259  1
  O  O47  1  0.663956  0.812102  0.370390  1
  O  O48  1  0.330186  0.441817  0.325461  1
  O  O49  1  0.997782  0.746366  0.292056  1
  O  O50  1  0.002081  0.557598  0.372168  1
  O  O51  1  0.335418  0.249320  0.326026  1
  O  O52  1  0.667885  0.192408  0.290756  1
  O  O53  1  0.163509  0.189726  0.334153  1
  O  O54  1  0.831204  0.557181  0.380802  1
  O  O55  1  0.497246  0.250577  0.413887  1
  O  O56  1  0.501550  0.441597  0.333717  1
  O  O57  1  0.835194  0.753809  0.378246  1
  O  O58  1  0.168932  0.806105  0.414487  1
  O  O59  1  0.772940  0.022692  0.310998  1
  O  O60  1  0.439752  0.226593  0.356289  1
  O  O61  1  0.106367  0.751408  0.320638  1
  O  O62  1  0.892060  0.767511  0.313165  1
  O  O63  1  0.225226  0.247460  0.355696  1
  O  O64  1  0.558697  0.981223  0.319784  1
  O  O65  1  0.273160  0.980775  0.392873  1
  O  O66  1  0.941660  0.781725  0.347017  1
  O  O67  1  0.605807  0.247158  0.384787  1
  O  O68  1  0.391931  0.231188  0.392403  1
  O  O69  1  0.725974  0.753633  0.349242  1
  O  O70  1  0.059125  0.015811  0.385460  1
  O  O71  1  0.549233  0.649247  0.388310  1
  O  O72  1  0.215865  0.406612  0.358084  1
  O  O73  1  0.882456  0.943331  0.381039  1
  O  O74  1  0.120431  0.588435  0.389836  1
  O  O75  1  0.451016  0.054546  0.358094  1
  O  O76  1  0.786211  0.353916  0.380675  1
  O  O77  1  0.048781  0.350772  0.316750  1
  O  O78  1  0.717396  0.591014  0.347958  1
  O  O79  1  0.380011  0.057664  0.324400  1
  O  O80  1  0.619781  0.412275  0.315372  1
  O  O81  1  0.953133  0.943831  0.347849  1
  O  O82  1  0.286368  0.644872  0.324716  1
  O  O83  1  0.494417  0.837993  0.377937  1
  O  O84  1  0.161932  0.524495  0.299562  1
  O  O85  1  0.829486  0.640182  0.309866  1
  O  O86  1  0.171188  0.479162  0.378284  1
  O  O87  1  0.505509  0.358528  0.299871  1
  O  O88  1  0.837499  0.161246  0.310442  1
  O  O89  1  0.995516  0.166259  0.325821  1
  O  O90  1  0.663151  0.475115  0.406031  1
  O  O91  1  0.329980  0.359956  0.395370  1
  O  O92  1  0.670929  0.520272  0.327323  1
  O  O93  1  0.004289  0.640700  0.405137  1
  O  O94  1  0.336715  0.833440  0.395338  1
  O  O95  1  0.663956  0.812102  0.509469  1
  O  O96  1  0.330186  0.441817  0.464540  1
  O  O97  1  0.997782  0.746366  0.431135  1
  O  O98  1  0.002081  0.557598  0.511247  1
  O  O99  1  0.335418  0.249320  0.465105  1
  O  O100  1  0.667885  0.192408  0.429836  1
  O  O101  1  0.163509  0.189726  0.473232  1
  O  O102  1  0.831204  0.557181  0.519881  1
  O  O103  1  0.501550  0.441597  0.472796  1
  O  O104  1  0.835194  0.753809  0.517325  1
  O  O105  1  0.772940  0.022692  0.450077  1
  O  O106  1  0.439752  0.226593  0.495368  1
  O  O107  1  0.106367  0.751408  0.459717  1
  O  O108  1  0.892060  0.767511  0.452244  1
  O  O109  1  0.225226  0.247460  0.494775  1
  O  O110  1  0.558697  0.981223  0.458863  1
  O  O111  1  0.273160  0.980775  0.531953  1
  O  O112  1  0.941660  0.781725  0.486096  1
  O  O113  1  0.605807  0.247158  0.523866  1
  O  O114  1  0.391931  0.231188  0.531482  1
  O  O115  1  0.725974  0.753633  0.488321  1
  O  O116  1  0.059125  0.015811  0.524540  1
  O  O117  1  0.549233  0.649247  0.527389  1
  O  O118  1  0.215865  0.406612  0.497163  1
  O  O119  1  0.882456  0.943331  0.520119  1
  O  O120  1  0.120431  0.588435  0.528915  1
  O  O121  1  0.451016  0.054546  0.497173  1
  O  O122  1  0.786211  0.353916  0.519754  1
  O  O123  1  0.048781  0.350772  0.455829  1
  O  O124  1  0.717396  0.591014  0.487037  1
  O  O125  1  0.380011  0.057664  0.463479  1
  O  O126  1  0.619781  0.412275  0.454451  1
  O  O127  1  0.953133  0.943831  0.486929  1
  O  O128  1  0.286368  0.644872  0.463796  1
  O  O129  1  0.494417  0.837993  0.517016  1
  O  O130  1  0.161932  0.524495  0.438641  1
  O  O131  1  0.829486  0.640182  0.448945  1
  O  O132  1  0.171188  0.479162  0.517363  1
  O  O133  1  0.505509  0.358528  0.438950  1
  O  O134  1  0.837499  0.161246  0.449521  1
  O  O135  1  0.995516  0.166259  0.464900  1
  O  O136  1  0.663151  0.475115  0.545110  1
  O  O137  1  0.329980  0.359956  0.534450  1
  O  O138  1  0.670929  0.520272  0.466402  1
  O  O139  1  0.004289  0.640700  0.544216  1
  O  O140  1  0.336715  0.833440  0.534417  1
  Si  Si141  1  0.561731  0.812652  0.226811  1
  Si  Si142  1  0.227395  0.410484  0.194917  1
  Si  Si143  1  0.103995  0.589692  0.227661  1
  Si  Si144  1  0.438023  0.220859  0.195337  1
  Si  Si145  1  0.060406  0.186573  0.199868  1
  Si  Si146  1  0.729027  0.588496  0.232717  1
  Si  Si147  1  0.394312  0.224408  0.278035  1
  Si  Si148  1  0.603983  0.410299  0.199572  1
  Si  Si149  1  0.937603  0.780603  0.230895  1
  Si  Si150  1  0.271974  0.810783  0.278342  1
  Si  Si151  1  0.585287  0.472122  0.282131  1
  Si  Si152  1  0.251677  0.465891  0.227350  1
  Si  Si153  1  0.918093  0.062890  0.200510  1
  Si  Si154  1  0.414646  0.936760  0.227147  1
  Si  Si155  1  0.751874  0.532191  0.200271  1
  Si  Si156  1  0.749747  0.836398  0.213332  1
  Si  Si157  1  0.415680  0.337788  0.212228  1
  Si  Si158  1  0.916733  0.663166  0.215585  1
  Si  Si159  1  0.249117  0.168121  0.212573  1
  Si  Si160  1  0.582061  0.168713  0.282804  1
  Si  Si161  1  0.561731  0.812652  0.365890  1
  Si  Si162  1  0.227395  0.410484  0.333996  1
  Si  Si163  1  0.894770  0.774817  0.288221  1
  Si  Si164  1  0.103995  0.589692  0.366740  1
  Si  Si165  1  0.438023  0.220859  0.334416  1
  Si  Si166  1  0.770162  0.189691  0.287212  1
  Si  Si167  1  0.060406  0.186573  0.338948  1
  Si  Si168  1  0.729027  0.588496  0.371796  1
  Si  Si169  1  0.394312  0.224408  0.417115  1
  Si  Si170  1  0.603983  0.410299  0.338652  1
  Si  Si171  1  0.937603  0.780603  0.369974  1
  Si  Si172  1  0.271974  0.810783  0.417421  1
  Si  Si173  1  0.585287  0.472122  0.421210  1
  Si  Si174  1  0.251677  0.465891  0.366429  1
  Si  Si175  1  0.918093  0.062890  0.339589  1
  Si  Si176  1  0.085034  0.528333  0.283940  1
  Si  Si177  1  0.414646  0.936760  0.366226  1
  Si  Si178  1  0.751874  0.532191  0.339350  1
  Si  Si179  1  0.749747  0.836398  0.352411  1
  Si  Si180  1  0.415680  0.337788  0.351307  1
  Si  Si181  1  0.083528  0.827906  0.283837  1
  Si  Si182  1  0.916733  0.663166  0.354664  1
  Si  Si183  1  0.249117  0.168121  0.351652  1
  Si  Si184  1  0.582061  0.168713  0.421884  1
  Si  Si185  1  0.561731  0.812652  0.504969  1
  Si  Si186  1  0.227395  0.410484  0.473075  1
  Si  Si187  1  0.894770  0.774817  0.427300  1
  Si  Si188  1  0.103995  0.589692  0.505819  1
  Si  Si189  1  0.438023  0.220859  0.473495  1
  Si  Si190  1  0.770162  0.189691  0.426291  1
  Si  Si191  1  0.060406  0.186573  0.478027  1
  Si  Si192  1  0.729027  0.588496  0.510875  1
  Si  Si193  1  0.603983  0.410299  0.477731  1
  Si  Si194  1  0.937603  0.780603  0.509053  1
  Si  Si195  1  0.251677  0.465891  0.505509  1
  Si  Si196  1  0.918093  0.062890  0.478668  1
  Si  Si197  1  0.085034  0.528333  0.423019  1
  Si  Si198  1  0.414646  0.936760  0.505305  1
  Si  Si199  1  0.751874  0.532191  0.478430  1
  Si  Si200  1  0.749747  0.836398  0.491491  1
  Si  Si201  1  0.415680  0.337788  0.490386  1
  Si  Si202  1  0.083528  0.827906  0.422916  1
  Si  Si203  1  0.916733  0.663166  0.493743  1
  Si  Si204  1  0.249117  0.168121  0.490731  1
  H  H205  1  0.772940  0.022692  0.158640  1
  H  H206  1  0.106367  0.751408  0.168280  1
  H  H207  1  0.892060  0.767511  0.160807  1
  H  H208  1  0.558697  0.981223  0.167426  1
  H  H209  1  0.048781  0.350772  0.164392  1
  H  H210  1  0.380011  0.057664  0.172042  1
  H  H211  1  0.619781  0.412275  0.163014  1
  H  H212  1  0.286368  0.644872  0.172358  1
  H  H213  1  0.161932  0.524495  0.147204  1
  H  H214  1  0.829486  0.640182  0.157508  1
  H  H215  1  0.505509  0.358528  0.147513  1
  H  H216  1  0.837499  0.161246  0.158084  1
  H  H217  1  0.273160  0.980775  0.545232  1
  H  H218  1  0.605807  0.247158  0.537145  1
  H  H219  1  0.391931  0.231188  0.544761  1
  H  H220  1  0.059125  0.015811  0.537819  1
  H  H221  1  0.549233  0.649247  0.540668  1
  H  H222  1  0.882456  0.943331  0.533398  1
  H  H223  1  0.120431  0.588435  0.542194  1
  H  H224  1  0.786211  0.353916  0.533033  1
  H  H225  1  0.663151  0.475115  0.558389  1
  H  H226  1  0.329980  0.359956  0.547729  1
  H  H227  1  0.004289  0.640700  0.557495  1
  H  H228  1  0.336715  0.833440  0.547696  1
