# generated using pymatgen
data_Si36H2O73
_symmetry_space_group_name_H-M   'P 1'
_cell_length_a   15.61262590
_cell_length_b   7.47100763
_cell_length_c   55.33457356
_cell_angle_alpha   90.00000000
_cell_angle_beta   90.00000000
_cell_angle_gamma   96.07000000
_symmetry_Int_Tables_number   1
_chemical_formula_structural   Si36H2O73
_chemical_formula_sum   'Si72 H4 O146'
_cell_volume   6418.15135817
_cell_formula_units_Z   2
loop_
 _symmetry_equiv_pos_site_id
 _symmetry_equiv_pos_as_xyz
  1  'x, y, z'
loop_
 _atom_site_type_symbol
 _atom_site_label
 _atom_site_symmetry_multiplicity
 _atom_site_fract_x
 _atom_site_fract_y
 _atom_site_fract_z
 _atom_site_occupancy
  O  O1  1  0.966725  0.655753  0.186264  1
  O  O2  1  0.466707  0.655767  0.337772  1
  O  O3  1  0.033136  0.343896  0.186264  1
  O  O4  1  0.533118  0.343909  0.337772  1
  O  O5  1  0.033118  0.343909  0.330001  1
  O  O6  1  0.533132  0.343900  0.178492  1
  O  O7  1  0.966710  0.655763  0.330001  1
  O  O8  1  0.466725  0.655753  0.178493  1
  O  O9  1  0.419530  0.411793  0.306508  1
  O  O10  1  0.919552  0.411786  0.154999  1
  O  O11  1  0.580290  0.587877  0.306507  1
  O  O12  1  0.080312  0.587870  0.155000  1
  O  O13  1  0.580312  0.587869  0.209756  1
  O  O14  1  0.080290  0.587877  0.361266  1
  O  O15  1  0.419552  0.411786  0.209758  1
  O  O16  1  0.919530  0.411793  0.361265  1
  O  O17  1  0.730444  0.793307  0.226179  1
  O  O18  1  0.230425  0.793303  0.377691  1
  O  O19  1  0.269417  0.206359  0.226182  1
  O  O20  1  0.769398  0.206356  0.377687  1
  O  O21  1  0.269398  0.206356  0.290085  1
  O  O22  1  0.769417  0.206359  0.138574  1
  O  O23  1  0.730425  0.793304  0.290082  1
  O  O24  1  0.230444  0.793307  0.138577  1
  O  O25  1  0.722391  0.451994  0.214370  1
  O  O26  1  0.222367  0.451992  0.365880  1
  O  O27  1  0.277476  0.547670  0.214372  1
  O  O28  1  0.777451  0.547668  0.365878  1
  O  O29  1  0.277451  0.547669  0.301895  1
  O  O30  1  0.777476  0.547670  0.150384  1
  O  O31  1  0.722367  0.451992  0.301892  1
  O  O32  1  0.222391  0.451994  0.150387  1
  O  O33  1  0.704559  0.699177  0.183675  1
  O  O34  1  0.204538  0.699181  0.335186  1
  O  O35  1  0.295304  0.300481  0.183678  1
  O  O36  1  0.795284  0.300485  0.335183  1
  O  O37  1  0.295284  0.300485  0.332590  1
  O  O38  1  0.795304  0.300481  0.181078  1
  O  O39  1  0.704538  0.699181  0.332587  1
  O  O40  1  0.204558  0.699177  0.181081  1
  O  O41  1  0.349986  0.831222  0.321498  1
  O  O42  1  0.850008  0.831220  0.169989  1
  O  O43  1  0.649834  0.168443  0.321497  1
  O  O44  1  0.149856  0.168440  0.169990  1
  O  O45  1  0.649859  0.168435  0.194767  1
  O  O46  1  0.149834  0.168443  0.346276  1
  O  O47  1  0.350008  0.831219  0.194767  1
  O  O48  1  0.849983  0.831228  0.346275  1
  O  O49  1  0.885204  0.881439  0.213723  1
  O  O50  1  0.385183  0.881446  0.365231  1
  O  O51  1  0.114659  0.118216  0.213723  1
  O  O52  1  0.614638  0.118223  0.365231  1
  O  O53  1  0.114638  0.118223  0.302542  1
  O  O54  1  0.614659  0.118216  0.151034  1
  O  O55  1  0.885183  0.881446  0.302542  1
  O  O56  1  0.385204  0.881439  0.151034  1
  O  O57  1  -0.000000  -0.000000  0.182659  1
  O  O58  1  0.499910  -0.000000  0.334167  1
  O  O59  1  -0.000000  -0.000000  0.333606  1
  O  O60  1  0.499933  0.000000  0.182098  1
  O  O61  1  0.783675  0.126579  0.221393  1
  O  O62  1  0.283650  0.126578  0.372903  1
  O  O63  1  0.216192  0.873085  0.221395  1
  O  O64  1  0.716167  0.873084  0.372901  1
  O  O65  1  0.216167  0.873084  0.294872  1
  O  O66  1  0.716192  0.873085  0.143362  1
  O  O67  1  0.783650  0.126578  0.294870  1
  O  O68  1  0.283675  0.126579  0.143364  1
  O  O69  1  0.833085  0.945711  0.258132  1
  O  O70  1  0.333086  0.945711  0.106624  1
  O  O71  1  0.166757  0.053952  0.258132  1
  O  O72  1  0.666757  0.053952  0.106624  1
  O  O73  1  0.966725  0.655753  0.489280  1
  O  O74  1  0.466707  0.655767  0.640788  1
  O  O75  1  0.033136  0.343896  0.489280  1
  O  O76  1  0.533118  0.343909  0.640789  1
  O  O77  1  0.033118  0.343909  0.633017  1
  O  O78  1  0.533132  0.343900  0.481509  1
  O  O79  1  0.966710  0.655763  0.633017  1
  O  O80  1  0.466725  0.655753  0.481509  1
  O  O81  1  0.419530  0.411793  0.609525  1
  O  O82  1  0.919552  0.411786  0.458015  1
  O  O83  1  0.580290  0.587877  0.609523  1
  O  O84  1  0.080312  0.587870  0.458017  1
  O  O85  1  0.580312  0.587869  0.512773  1
  O  O86  1  0.080290  0.587877  0.664283  1
  O  O87  1  0.419552  0.411786  0.512774  1
  O  O88  1  0.919530  0.411793  0.664281  1
  O  O89  1  0.730444  0.793307  0.529196  1
  O  O90  1  0.230425  0.793303  0.680707  1
  O  O91  1  0.269417  0.206359  0.529199  1
  O  O92  1  0.769398  0.206356  0.680704  1
  O  O93  1  0.269398  0.206356  0.593102  1
  O  O94  1  0.769417  0.206359  0.441591  1
  O  O95  1  0.730425  0.793304  0.593099  1
  O  O96  1  0.230444  0.793307  0.441594  1
  O  O97  1  0.722391  0.451994  0.517386  1
  O  O98  1  0.222367  0.451992  0.668897  1
  O  O99  1  0.277476  0.547670  0.517389  1
  O  O100  1  0.777451  0.547668  0.668894  1
  O  O101  1  0.277451  0.547669  0.604911  1
  O  O102  1  0.777476  0.547670  0.453401  1
  O  O103  1  0.722367  0.451992  0.604909  1
  O  O104  1  0.222391  0.451994  0.453403  1
  O  O105  1  0.704559  0.699177  0.486692  1
  O  O106  1  0.204538  0.699181  0.638203  1
  O  O107  1  0.295304  0.300481  0.486695  1
  O  O108  1  0.795284  0.300485  0.638200  1
  O  O109  1  0.295284  0.300485  0.635606  1
  O  O110  1  0.795304  0.300481  0.484095  1
  O  O111  1  0.704538  0.699181  0.635603  1
  O  O112  1  0.204558  0.699177  0.484098  1
  O  O113  1  0.349986  0.831222  0.624514  1
  O  O114  1  0.850008  0.831220  0.473006  1
  O  O115  1  0.649834  0.168443  0.624514  1
  O  O116  1  0.149856  0.168440  0.473006  1
  O  O117  1  0.649859  0.168435  0.497784  1
  O  O118  1  0.149834  0.168443  0.649292  1
  O  O119  1  0.350008  0.831219  0.497784  1
  O  O120  1  0.849983  0.831228  0.649292  1
  O  O121  1  0.885204  0.881439  0.516739  1
  O  O122  1  0.385183  0.881446  0.668248  1
  O  O123  1  0.114659  0.118216  0.516739  1
  O  O124  1  0.614638  0.118223  0.668248  1
  O  O125  1  0.114638  0.118223  0.605558  1
  O  O126  1  0.614659  0.118216  0.454050  1
  O  O127  1  0.885183  0.881446  0.605558  1
  O  O128  1  0.385204  0.881439  0.454050  1
  O  O129  1  0.000000  -0.000000  0.485675  1
  O  O130  1  0.499910  0.000000  0.637183  1
  O  O131  1  -0.000000  0.000000  0.636623  1
  O  O132  1  0.499933  -0.000000  0.485114  1
  O  O133  1  0.783675  0.126579  0.524409  1
  O  O134  1  0.283650  0.126578  0.675919  1
  O  O135  1  0.216192  0.873085  0.524411  1
  O  O136  1  0.716167  0.873084  0.675917  1
  O  O137  1  0.216167  0.873084  0.597889  1
  O  O138  1  0.716192  0.873085  0.446378  1
  O  O139  1  0.783650  0.126578  0.597887  1
  O  O140  1  0.283675  0.126579  0.446380  1
  O  O141  1  0.833085  0.945711  0.561149  1
  O  O142  1  0.333086  0.945711  0.409641  1
  O  O143  1  0.166757  0.053952  0.561149  1
  O  O144  1  0.666757  0.053952  0.409641  1
  O  O145  1  0.333086  0.945711  0.712657  1
  O  O146  1  0.666757  0.053952  0.712657  1
  Si  Si147  1  0.189282  0.059980  0.285863  1
  Si  Si148  1  0.689300  0.059979  0.134353  1
  Si  Si149  1  0.810542  0.939683  0.285861  1
  Si  Si150  1  0.310560  0.939682  0.134354  1
  Si  Si151  1  0.810560  0.939682  0.230402  1
  Si  Si152  1  0.310542  0.939683  0.381912  1
  Si  Si153  1  0.189300  0.059979  0.230403  1
  Si  Si154  1  0.689282  0.059980  0.381911  1
  Si  Si155  1  0.927636  0.842256  0.188542  1
  Si  Si156  1  0.427615  0.842266  0.340050  1
  Si  Si157  1  0.072227  0.157396  0.188542  1
  Si  Si158  1  0.572206  0.157407  0.340050  1
  Si  Si159  1  0.072206  0.157407  0.327723  1
  Si  Si160  1  0.572227  0.157397  0.176215  1
  Si  Si161  1  0.927615  0.842266  0.327723  1
  Si  Si162  1  0.427636  0.842256  0.176215  1
  Si  Si163  1  0.682129  0.636996  0.210488  1
  Si  Si164  1  0.182109  0.636999  0.361999  1
  Si  Si165  1  0.317734  0.362665  0.210490  1
  Si  Si166  1  0.817714  0.362667  0.361996  1
  Si  Si167  1  0.317712  0.362666  0.305777  1
  Si  Si168  1  0.817735  0.362666  0.154266  1
  Si  Si169  1  0.682108  0.636997  0.305774  1
  Si  Si170  1  0.182130  0.636997  0.154269  1
  Si  Si171  1  0.739484  0.259823  0.204497  1
  Si  Si172  1  0.239460  0.259822  0.356007  1
  Si  Si173  1  0.260383  0.739840  0.204499  1
  Si  Si174  1  0.760358  0.739840  0.356005  1
  Si  Si175  1  0.260359  0.739840  0.311768  1
  Si  Si176  1  0.760382  0.739840  0.160257  1
  Si  Si177  1  0.739460  0.259823  0.311766  1
  Si  Si178  1  0.239484  0.259823  0.160260  1
  Si  Si179  1  -0.000000  0.499825  0.170358  1
  Si  Si180  1  0.499912  0.499837  0.321866  1
  Si  Si181  1  -0.000000  0.499836  0.345907  1
  Si  Si182  1  0.499931  0.499826  0.194399  1
  Si  Si183  1  0.189282  0.059980  0.588879  1
  Si  Si184  1  0.689300  0.059979  0.437369  1
  Si  Si185  1  0.810542  0.939683  0.588878  1
  Si  Si186  1  0.310560  0.939682  0.437371  1
  Si  Si187  1  0.810560  0.939682  0.533419  1
  Si  Si188  1  0.310542  0.939683  0.684928  1
  Si  Si189  1  0.189300  0.059979  0.533420  1
  Si  Si190  1  0.689282  0.059980  0.684927  1
  Si  Si191  1  0.927636  0.842256  0.491558  1
  Si  Si192  1  0.427615  0.842266  0.643067  1
  Si  Si193  1  0.072227  0.157396  0.491558  1
  Si  Si194  1  0.572206  0.157407  0.643067  1
  Si  Si195  1  0.072206  0.157407  0.630739  1
  Si  Si196  1  0.572227  0.157397  0.479231  1
  Si  Si197  1  0.927615  0.842266  0.630739  1
  Si  Si198  1  0.427636  0.842256  0.479231  1
  Si  Si199  1  0.682129  0.636996  0.513504  1
  Si  Si200  1  0.182109  0.636999  0.665015  1
  Si  Si201  1  0.317734  0.362665  0.513507  1
  Si  Si202  1  0.817714  0.362667  0.665012  1
  Si  Si203  1  0.317712  0.362666  0.608794  1
  Si  Si204  1  0.817735  0.362666  0.457283  1
  Si  Si205  1  0.682108  0.636997  0.608791  1
  Si  Si206  1  0.182130  0.636997  0.457285  1
  Si  Si207  1  0.739484  0.259823  0.507513  1
  Si  Si208  1  0.239460  0.259822  0.659024  1
  Si  Si209  1  0.260383  0.739840  0.507516  1
  Si  Si210  1  0.760358  0.739840  0.659022  1
  Si  Si211  1  0.260359  0.739840  0.614784  1
  Si  Si212  1  0.760382  0.739840  0.463274  1
  Si  Si213  1  0.739460  0.259823  0.614782  1
  Si  Si214  1  0.239484  0.259823  0.463276  1
  Si  Si215  1  -0.000000  0.499825  0.473374  1
  Si  Si216  1  0.499912  0.499837  0.624882  1
  Si  Si217  1  0.000000  0.499836  0.648924  1
  Si  Si218  1  0.499931  0.499826  0.497415  1
  H  H219  1  0.333086  0.945711  0.090359  1
  H  H220  1  0.666757  0.053952  0.090359  1
  H  H221  1  0.333086  0.945711  0.728922  1
  H  H222  1  0.666757  0.053952  0.728922  1
