# generated using pymatgen
data_Si6H2O13
_symmetry_space_group_name_H-M   'P 1'
_cell_length_a   5.07185669
_cell_length_b   13.91779927
_cell_length_c   30.09360700
_cell_angle_alpha   90.00000000
_cell_angle_beta   90.00000000
_cell_angle_gamma   90.00000000
_symmetry_Int_Tables_number   1
_chemical_formula_structural   Si6H2O13
_chemical_formula_sum   'Si12 H4 O26'
_cell_volume   2124.28013242
_cell_formula_units_Z   2
loop_
 _symmetry_equiv_pos_site_id
 _symmetry_equiv_pos_as_xyz
  1  'x, y, z'
loop_
 _atom_site_type_symbol
 _atom_site_label
 _atom_site_symmetry_multiplicity
 _atom_site_fract_x
 _atom_site_fract_y
 _atom_site_fract_z
 _atom_site_occupancy
  O  O1  1  0.990821  0.826327  0.397159  1
  O  O2  1  0.491976  0.325898  0.398321  1
  O  O3  1  0.991768  0.173667  0.270469  1
  O  O4  1  0.491135  0.674048  0.269634  1
  O  O5  1  0.284166  0.749592  0.338317  1
  O  O6  1  0.707862  0.253456  0.329723  1
  O  O7  1  0.784143  0.750280  0.328684  1
  O  O8  1  0.207765  0.247419  0.338685  1
  O  O9  1  -0.000000  0.639993  0.384826  1
  O  O10  1  0.498021  0.139751  0.384972  1
  O  O11  1  -0.000000  0.360009  0.282908  1
  O  O12  1  0.497102  0.860393  0.282498  1
  O  O13  1  0.733008  0.981027  0.407580  1
  O  O14  1  0.232940  0.480849  0.409428  1
  O  O15  1  0.227887  0.986279  0.402953  1
  O  O16  1  0.727139  0.486611  0.400055  1
  O  O17  1  0.220017  0.012224  0.265506  1
  O  O18  1  0.730695  0.513913  0.267250  1
  O  O19  1  0.725131  0.020691  0.259558  1
  O  O20  1  0.236485  0.518527  0.258358  1
  O  O21  1  0.005756  0.085478  0.196110  1
  O  O22  1  0.531982  0.582569  0.196055  1
  O  O23  1  0.003456  0.914243  0.471649  1
  O  O24  1  0.531730  0.418235  0.471640  1
  O  O25  1  0.507299  0.000000  0.333832  1
  O  O26  1  0.029949  0.500080  0.333826  1
  Si  Si27  1  0.014142  0.742585  0.362901  1
  Si  Si28  1  0.477113  0.242679  0.363592  1
  Si  Si29  1  0.977201  0.257562  0.304774  1
  Si  Si30  1  0.514031  0.757561  0.304105  1
  Si  Si31  1  0.989979  0.926572  0.420333  1
  Si  Si32  1  0.495953  0.427496  0.420383  1
  Si  Si33  1  0.986320  0.073308  0.247393  1
  Si  Si34  1  0.497906  0.572726  0.247311  1
  Si  Si35  1  0.490741  0.026701  0.383897  1
  Si  Si36  1  0.996858  0.526888  0.383762  1
  Si  Si37  1  0.486682  0.973365  0.283776  1
  Si  Si38  1  -0.000000  0.473132  0.283868  1
  H  H39  1  0.005756  0.085478  0.166203  1
  H  H40  1  0.531982  0.582569  0.166148  1
  H  H41  1  0.003456  0.914243  0.501555  1
  H  H42  1  0.531730  0.418235  0.501546  1
