# generated using pymatgen
data_Si30H2O61
_symmetry_space_group_name_H-M   'P 1'
_cell_length_a   13.80974137
_cell_length_b   5.09810601
_cell_length_c   68.67698544
_cell_angle_alpha   90.00000000
_cell_angle_beta   90.00000000
_cell_angle_gamma   90.00000000
_symmetry_Int_Tables_number   1
_chemical_formula_structural   Si30H2O61
_chemical_formula_sum   'Si60 H4 O122'
_cell_volume   4835.10189402
_cell_formula_units_Z   2
loop_
 _symmetry_equiv_pos_site_id
 _symmetry_equiv_pos_as_xyz
  1  'x, y, z'
loop_
 _atom_site_type_symbol
 _atom_site_label
 _atom_site_symmetry_multiplicity
 _atom_site_fract_x
 _atom_site_fract_y
 _atom_site_fract_z
 _atom_site_occupancy
  O  O1  1  0.500021  0.755817  0.257632  1
  O  O2  1  0.000000  0.759033  0.410011  1
  O  O3  1  0.500056  0.255875  0.223293  1
  O  O4  1  0.093190  0.247920  0.118580  1
  O  O5  1  0.592930  0.745218  0.305365  1
  O  O6  1  0.907245  0.247845  0.118565  1
  O  O7  1  0.406962  0.745283  0.305369  1
  O  O8  1  0.906979  0.748557  0.362352  1
  O  O9  1  0.407231  0.244518  0.175567  1
  O  O10  1  0.092933  0.748539  0.362353  1
  O  O11  1  0.593200  0.244502  0.175555  1
  O  O12  1  0.000000  0.446076  0.146436  1
  O  O13  1  0.499981  0.051297  0.327617  1
  O  O14  1  0.000000  0.943979  0.140818  1
  O  O15  1  0.499967  0.549736  0.333239  1
  O  O16  1  0.000000  0.444701  0.340104  1
  O  O17  1  0.500158  0.048962  0.147691  1
  O  O18  1  0.000000  0.946790  0.334492  1
  O  O19  1  0.500165  0.550519  0.153307  1
  O  O20  1  0.631765  0.502827  0.240680  1
  O  O21  1  0.368308  0.502941  0.240664  1
  O  O22  1  0.131756  0.508137  0.427084  1
  O  O23  1  0.631748  0.002828  0.240251  1
  O  O24  1  0.868311  0.508050  0.427084  1
  O  O25  1  0.368325  0.002941  0.240255  1
  O  O26  1  0.170822  0.259954  0.085909  1
  O  O27  1  0.670497  0.757674  0.272667  1
  O  O28  1  0.829334  0.260026  0.085922  1
  O  O29  1  0.329516  0.757531  0.272659  1
  O  O30  1  0.829262  0.760184  0.395015  1
  O  O31  1  0.329587  0.257417  0.208256  1
  O  O32  1  0.170749  0.760156  0.395007  1
  O  O33  1  0.670581  0.257539  0.208268  1
  O  O34  1  0.250315  0.759768  0.147044  1
  O  O35  1  0.749819  0.260080  0.333871  1
  O  O36  1  0.750003  0.759833  0.147082  1
  O  O37  1  0.250142  0.260070  0.333854  1
  O  O38  1  0.099350  0.747751  0.167644  1
  O  O39  1  0.599040  0.250371  0.354499  1
  O  O40  1  0.901040  0.747835  0.167659  1
  O  O41  1  0.400886  0.250345  0.354493  1
  O  O42  1  0.900803  0.248395  0.313276  1
  O  O43  1  0.401117  0.749710  0.126424  1
  O  O44  1  0.099117  0.248368  0.313270  1
  O  O45  1  0.599275  0.749725  0.126438  1
  O  O46  1  0.251725  0.482833  0.116089  1
  O  O47  1  0.748166  0.998255  0.302305  1
  O  O48  1  0.748660  0.482659  0.116139  1
  O  O49  1  0.251854  0.998825  0.302263  1
  O  O50  1  0.245419  0.982716  0.114073  1
  O  O51  1  0.748863  0.498038  0.301365  1
  O  O52  1  0.755014  0.982544  0.114101  1
  O  O53  1  0.250933  0.498598  0.301371  1
  O  O54  1  0.754790  0.483120  0.366836  1
  O  O55  1  0.251264  0.997499  0.179562  1
  O  O56  1  0.245104  0.482970  0.366824  1
  O  O57  1  0.749104  0.997367  0.179607  1
  O  O58  1  0.748391  0.983248  0.364833  1
  O  O59  1  0.252017  0.497715  0.178599  1
  O  O60  1  0.251552  0.983096  0.364811  1
  O  O61  1  0.748425  0.497582  0.178627  1
  O  O62  1  0.000000  0.259113  0.444383  1
  O  O63  1  0.500021  0.755817  0.631098  1
  O  O64  1  0.500056  0.255875  0.596759  1
  O  O65  1  0.093190  0.247920  0.492046  1
  O  O66  1  0.592930  0.745218  0.678831  1
  O  O67  1  0.907245  0.247845  0.492032  1
  O  O68  1  0.406962  0.745283  0.678836  1
  O  O69  1  0.906979  0.748557  0.735818  1
  O  O70  1  0.407231  0.244518  0.549033  1
  O  O71  1  0.092933  0.748539  0.735820  1
  O  O72  1  0.593200  0.244502  0.549021  1
  O  O73  1  0.000000  0.446076  0.519903  1
  O  O74  1  0.499981  0.051297  0.701083  1
  O  O75  1  0.000000  0.943979  0.514284  1
  O  O76  1  0.499967  0.549736  0.706706  1
  O  O77  1  0.000000  0.444701  0.713570  1
  O  O78  1  0.500158  0.048962  0.521157  1
  O  O79  1  0.000000  0.946790  0.707959  1
  O  O80  1  0.500165  0.550519  0.526773  1
  O  O81  1  0.131731  0.008137  0.427303  1
  O  O82  1  0.631765  0.502827  0.614146  1
  O  O83  1  0.868334  0.008050  0.427315  1
  O  O84  1  0.368308  0.502941  0.614130  1
  O  O85  1  0.631748  0.002828  0.613717  1
  O  O86  1  0.368325  0.002941  0.613721  1
  O  O87  1  0.170822  0.259954  0.459376  1
  O  O88  1  0.670497  0.757674  0.646133  1
  O  O89  1  0.829334  0.260026  0.459388  1
  O  O90  1  0.329516  0.757531  0.646125  1
  O  O91  1  0.829262  0.760184  0.768481  1
  O  O92  1  0.329587  0.257417  0.581722  1
  O  O93  1  0.170749  0.760156  0.768473  1
  O  O94  1  0.670581  0.257539  0.581734  1
  O  O95  1  0.250315  0.759768  0.520510  1
  O  O96  1  0.749819  0.260080  0.707337  1
  O  O97  1  0.750003  0.759833  0.520549  1
  O  O98  1  0.250142  0.260070  0.707320  1
  O  O99  1  0.099350  0.747751  0.541111  1
  O  O100  1  0.599040  0.250371  0.727965  1
  O  O101  1  0.901040  0.747835  0.541125  1
  O  O102  1  0.400886  0.250345  0.727959  1
  O  O103  1  0.900803  0.248395  0.686743  1
  O  O104  1  0.401117  0.749710  0.499890  1
  O  O105  1  0.099117  0.248368  0.686736  1
  O  O106  1  0.599275  0.749725  0.499905  1
  O  O107  1  0.251725  0.482833  0.489555  1
  O  O108  1  0.748166  0.998255  0.675772  1
  O  O109  1  0.748660  0.482659  0.489605  1
  O  O110  1  0.251854  0.998825  0.675730  1
  O  O111  1  0.245419  0.982716  0.487540  1
  O  O112  1  0.748863  0.498038  0.674831  1
  O  O113  1  0.755014  0.982544  0.487567  1
  O  O114  1  0.250933  0.498598  0.674837  1
  O  O115  1  0.754790  0.483120  0.740303  1
  O  O116  1  0.251264  0.997499  0.553028  1
  O  O117  1  0.245104  0.482970  0.740291  1
  O  O118  1  0.749104  0.997367  0.553074  1
  O  O119  1  0.748391  0.983248  0.738299  1
  O  O120  1  0.252017  0.497715  0.552065  1
  O  O121  1  0.251552  0.983096  0.738277  1
  O  O122  1  0.748425  0.497582  0.552093  1
  Si  Si123  1  0.611574  0.754785  0.253091  1
  Si  Si124  1  0.388472  0.754805  0.253087  1
  Si  Si125  1  0.888463  0.759123  0.414569  1
  Si  Si126  1  0.388502  0.254806  0.227834  1
  Si  Si127  1  0.111578  0.759154  0.414564  1
  Si  Si128  1  0.611604  0.254786  0.227838  1
  Si  Si129  1  0.000000  0.721268  0.156480  1
  Si  Si130  1  0.499970  0.274579  0.343264  1
  Si  Si131  1  -0.000000  0.221948  0.324445  1
  Si  Si132  1  0.500176  0.773835  0.137663  1
  Si  Si133  1  0.286909  0.743537  0.125582  1
  Si  Si134  1  0.786641  0.250939  0.312408  1
  Si  Si135  1  0.713486  0.743472  0.125616  1
  Si  Si136  1  0.213275  0.251195  0.312395  1
  Si  Si137  1  0.713247  0.243969  0.355334  1
  Si  Si138  1  0.213512  0.750439  0.168507  1
  Si  Si139  1  0.286679  0.243884  0.355320  1
  Si  Si140  1  0.786881  0.750413  0.168541  1
  Si  Si141  1  -0.000000  0.220488  0.131120  1
  Si  Si142  1  0.499956  0.774652  0.317898  1
  Si  Si143  1  0.000000  0.721178  0.349806  1
  Si  Si144  1  0.500198  0.273897  0.163030  1
  Si  Si145  1  0.193385  0.243152  0.108270  1
  Si  Si146  1  0.693093  0.750330  0.295046  1
  Si  Si147  1  0.806958  0.243081  0.108291  1
  Si  Si148  1  0.306841  0.750590  0.295035  1
  Si  Si149  1  0.806757  0.743594  0.372651  1
  Si  Si150  1  0.307042  0.249814  0.185876  1
  Si  Si151  1  0.193187  0.743509  0.372640  1
  Si  Si152  1  0.693305  0.249783  0.185896  1
  Si  Si153  1  0.111606  0.259153  0.439824  1
  Si  Si154  1  0.611574  0.754785  0.626557  1
  Si  Si155  1  0.888490  0.259124  0.439828  1
  Si  Si156  1  0.388472  0.754805  0.626553  1
  Si  Si157  1  0.388502  0.254806  0.601300  1
  Si  Si158  1  0.611604  0.254786  0.601304  1
  Si  Si159  1  0.000000  0.721268  0.529946  1
  Si  Si160  1  0.499970  0.274579  0.716731  1
  Si  Si161  1  -0.000000  0.221948  0.697912  1
  Si  Si162  1  0.500176  0.773835  0.511129  1
  Si  Si163  1  0.286909  0.743537  0.499049  1
  Si  Si164  1  0.786641  0.250939  0.685875  1
  Si  Si165  1  0.713486  0.743472  0.499082  1
  Si  Si166  1  0.213275  0.251195  0.685861  1
  Si  Si167  1  0.713247  0.243969  0.728801  1
  Si  Si168  1  0.213512  0.750439  0.541974  1
  Si  Si169  1  0.286679  0.243884  0.728786  1
  Si  Si170  1  0.786881  0.750413  0.542007  1
  Si  Si171  1  0.000000  0.220488  0.504586  1
  Si  Si172  1  0.499956  0.774652  0.691364  1
  Si  Si173  1  0.000000  0.721178  0.723272  1
  Si  Si174  1  0.500198  0.273897  0.536496  1
  Si  Si175  1  0.193385  0.243152  0.481736  1
  Si  Si176  1  0.693093  0.750330  0.668512  1
  Si  Si177  1  0.806958  0.243081  0.481757  1
  Si  Si178  1  0.306841  0.750590  0.668501  1
  Si  Si179  1  0.806757  0.743594  0.746117  1
  Si  Si180  1  0.307042  0.249814  0.559342  1
  Si  Si181  1  0.193187  0.743509  0.746107  1
  Si  Si182  1  0.693305  0.249783  0.559362  1
  H  H183  1  0.170822  0.259954  0.072805  1
  H  H184  1  0.829334  0.260026  0.072817  1
  H  H185  1  0.829262  0.760184  0.781586  1
  H  H186  1  0.170749  0.760156  0.781578  1
