# generated using pymatgen
data_Si8H6O19
_symmetry_space_group_name_H-M   'P 1'
_cell_length_a   15.01225698
_cell_length_b   16.36465187
_cell_length_c   56.76755342
_cell_angle_alpha   30.07656819
_cell_angle_beta   90.00000000
_cell_angle_gamma   90.00000000
_symmetry_Int_Tables_number   1
_chemical_formula_structural   Si8H6O19
_chemical_formula_sum   'Si32 H24 O76'
_cell_volume   6989.18660474
_cell_formula_units_Z   4
loop_
 _symmetry_equiv_pos_site_id
 _symmetry_equiv_pos_as_xyz
  1  'x, y, z'
loop_
 _atom_site_type_symbol
 _atom_site_label
 _atom_site_symmetry_multiplicity
 _atom_site_fract_x
 _atom_site_fract_y
 _atom_site_fract_z
 _atom_site_occupancy
  O  O1  1  0.497246  0.250577  0.231258  1
  O  O2  1  0.168932  0.806105  0.231974  1
  O  O3  1  0.273160  0.980775  0.206169  1
  O  O4  1  0.605807  0.247158  0.196514  1
  O  O5  1  0.391931  0.231188  0.205607  1
  O  O6  1  0.059125  0.015811  0.197319  1
  O  O7  1  0.549233  0.649247  0.200721  1
  O  O8  1  0.882456  0.943331  0.192040  1
  O  O9  1  0.120431  0.588435  0.202543  1
  O  O10  1  0.786211  0.353916  0.191604  1
  O  O11  1  0.663151  0.475115  0.221878  1
  O  O12  1  0.329980  0.359956  0.209150  1
  O  O13  1  0.004289  0.640700  0.220811  1
  O  O14  1  0.336715  0.833440  0.209112  1
  O  O15  1  0.663956  0.812102  0.345375  1
  O  O16  1  0.330186  0.441817  0.291733  1
  O  O17  1  0.997782  0.746366  0.251851  1
  O  O18  1  0.002081  0.557598  0.347499  1
  O  O19  1  0.335418  0.249320  0.292408  1
  O  O20  1  0.667885  0.192408  0.250299  1
  O  O21  1  0.163509  0.189726  0.302112  1
  O  O22  1  0.831204  0.557181  0.357806  1
  O  O23  1  0.497246  0.250577  0.397308  1
  O  O24  1  0.501550  0.441597  0.301590  1
  O  O25  1  0.835194  0.753809  0.354755  1
  O  O26  1  0.168932  0.806105  0.398024  1
  O  O27  1  0.772940  0.022692  0.274466  1
  O  O28  1  0.439752  0.226593  0.328540  1
  O  O29  1  0.106367  0.751408  0.285976  1
  O  O30  1  0.892060  0.767511  0.277053  1
  O  O31  1  0.225226  0.247460  0.327832  1
  O  O32  1  0.558697  0.981223  0.284956  1
  O  O33  1  0.273160  0.980775  0.372219  1
  O  O34  1  0.941660  0.781725  0.317470  1
  O  O35  1  0.605807  0.247158  0.362564  1
  O  O36  1  0.391931  0.231188  0.371657  1
  O  O37  1  0.725974  0.753633  0.320126  1
  O  O38  1  0.059125  0.015811  0.363369  1
  O  O39  1  0.549233  0.649247  0.366771  1
  O  O40  1  0.215865  0.406612  0.330683  1
  O  O41  1  0.882456  0.943331  0.358090  1
  O  O42  1  0.120431  0.588435  0.368593  1
  O  O43  1  0.451016  0.054546  0.330695  1
  O  O44  1  0.786211  0.353916  0.357655  1
  O  O45  1  0.048781  0.350772  0.281334  1
  O  O46  1  0.717396  0.591014  0.318593  1
  O  O47  1  0.380011  0.057664  0.290467  1
  O  O48  1  0.619781  0.412275  0.279689  1
  O  O49  1  0.953133  0.943831  0.318464  1
  O  O50  1  0.286368  0.644872  0.290845  1
  O  O51  1  0.494417  0.837993  0.354386  1
  O  O52  1  0.161932  0.524495  0.260812  1
  O  O53  1  0.829486  0.640182  0.273114  1
  O  O54  1  0.171188  0.479162  0.354801  1
  O  O55  1  0.505509  0.358528  0.261182  1
  O  O56  1  0.837499  0.161246  0.273802  1
  O  O57  1  0.995516  0.166259  0.292164  1
  O  O58  1  0.663151  0.475115  0.387928  1
  O  O59  1  0.329980  0.359956  0.375200  1
  O  O60  1  0.670929  0.520272  0.293957  1
  O  O61  1  0.004289  0.640700  0.386861  1
  O  O62  1  0.336715  0.833440  0.375162  1
  O  O63  1  0.997782  0.746366  0.417901  1
  O  O64  1  0.667885  0.192408  0.416349  1
  O  O65  1  0.772940  0.022692  0.440516  1
  O  O66  1  0.106367  0.751408  0.452026  1
  O  O67  1  0.892060  0.767511  0.443103  1
  O  O68  1  0.558697  0.981223  0.451006  1
  O  O69  1  0.048781  0.350772  0.447384  1
  O  O70  1  0.380011  0.057664  0.456517  1
  O  O71  1  0.619781  0.412275  0.445739  1
  O  O72  1  0.286368  0.644872  0.456895  1
  O  O73  1  0.161932  0.524495  0.426862  1
  O  O74  1  0.829486  0.640182  0.439165  1
  O  O75  1  0.505509  0.358528  0.427232  1
  O  O76  1  0.837499  0.161246  0.439852  1
  Si  Si77  1  0.394312  0.224408  0.235111  1
  Si  Si78  1  0.271974  0.810783  0.235477  1
  Si  Si79  1  0.585287  0.472122  0.240001  1
  Si  Si80  1  0.582061  0.168713  0.240805  1
  Si  Si81  1  0.561731  0.812652  0.340003  1
  Si  Si82  1  0.227395  0.410484  0.301924  1
  Si  Si83  1  0.894770  0.774817  0.247272  1
  Si  Si84  1  0.103995  0.589692  0.341018  1
  Si  Si85  1  0.438023  0.220859  0.302425  1
  Si  Si86  1  0.770162  0.189691  0.246067  1
  Si  Si87  1  0.060406  0.186573  0.307836  1
  Si  Si88  1  0.729027  0.588496  0.347055  1
  Si  Si89  1  0.394312  0.224408  0.401161  1
  Si  Si90  1  0.603983  0.410299  0.307482  1
  Si  Si91  1  0.937603  0.780603  0.344879  1
  Si  Si92  1  0.271974  0.810783  0.401527  1
  Si  Si93  1  0.585287  0.472122  0.406051  1
  Si  Si94  1  0.251677  0.465891  0.340647  1
  Si  Si95  1  0.918093  0.062890  0.308601  1
  Si  Si96  1  0.085034  0.528333  0.242160  1
  Si  Si97  1  0.414646  0.936760  0.340404  1
  Si  Si98  1  0.751874  0.532191  0.308317  1
  Si  Si99  1  0.749747  0.836398  0.323911  1
  Si  Si100  1  0.415680  0.337788  0.322592  1
  Si  Si101  1  0.083528  0.827906  0.242038  1
  Si  Si102  1  0.916733  0.663166  0.326600  1
  Si  Si103  1  0.249117  0.168121  0.323004  1
  Si  Si104  1  0.582061  0.168713  0.406855  1
  Si  Si105  1  0.894770  0.774817  0.413322  1
  Si  Si106  1  0.770162  0.189691  0.412117  1
  Si  Si107  1  0.085034  0.528333  0.408211  1
  Si  Si108  1  0.083528  0.827906  0.408088  1
  H  H109  1  0.273160  0.980775  0.190315  1
  H  H110  1  0.605807  0.247158  0.180660  1
  H  H111  1  0.391931  0.231188  0.189753  1
  H  H112  1  0.059125  0.015811  0.181464  1
  H  H113  1  0.549233  0.649247  0.184867  1
  H  H114  1  0.882456  0.943331  0.176186  1
  H  H115  1  0.120431  0.588435  0.186689  1
  H  H116  1  0.786211  0.353916  0.175750  1
  H  H117  1  0.663151  0.475115  0.206024  1
  H  H118  1  0.329980  0.359956  0.193296  1
  H  H119  1  0.004289  0.640700  0.204957  1
  H  H120  1  0.336715  0.833440  0.193258  1
  H  H121  1  0.772940  0.022692  0.456370  1
  H  H122  1  0.106367  0.751408  0.467880  1
  H  H123  1  0.892060  0.767511  0.458957  1
  H  H124  1  0.558697  0.981223  0.466860  1
  H  H125  1  0.048781  0.350772  0.463238  1
  H  H126  1  0.380011  0.057664  0.472372  1
  H  H127  1  0.619781  0.412275  0.461593  1
  H  H128  1  0.286368  0.644872  0.472749  1
  H  H129  1  0.161932  0.524495  0.442716  1
  H  H130  1  0.829486  0.640182  0.455019  1
  H  H131  1  0.505509  0.358528  0.443086  1
  H  H132  1  0.837499  0.161246  0.455706  1
