# generated using pymatgen
data_Si16H2O33
_symmetry_space_group_name_H-M   'P 1'
_cell_length_a   12.23055356
_cell_length_b   5.14927914
_cell_length_c   56.54411905
_cell_angle_alpha   90.00000000
_cell_angle_beta   120.00000000
_cell_angle_gamma   90.00000000
_symmetry_Int_Tables_number   1
_chemical_formula_structural   Si16H2O33
_chemical_formula_sum   'Si32 H4 O66'
_cell_volume   3083.97339691
_cell_formula_units_Z   2
loop_
 _symmetry_equiv_pos_site_id
 _symmetry_equiv_pos_as_xyz
  1  'x, y, z'
loop_
 _atom_site_type_symbol
 _atom_site_label
 _atom_site_symmetry_multiplicity
 _atom_site_fract_x
 _atom_site_fract_y
 _atom_site_fract_z
 _atom_site_occupancy
  O  O1  1  0.645958  0.515041  0.214405  1
  O  O2  1  0.993640  0.487026  0.148810  1
  O  O3  1  0.348241  0.991891  0.150014  1
  O  O4  1  0.000000  0.998533  0.213998  1
  O  O5  1  0.000000  0.498498  0.213500  1
  O  O6  1  0.354150  0.491893  0.148738  1
  O  O7  1  0.006163  0.987191  0.149910  1
  O  O8  1  0.651562  0.015048  0.213180  1
  O  O9  1  0.348551  0.986889  0.288424  1
  O  O10  1  0.413079  0.765196  0.118099  1
  O  O11  1  0.793488  0.742700  0.200442  1
  O  O12  1  0.793838  0.758125  0.118023  1
  O  O13  1  0.586605  0.242236  0.245022  1
  O  O14  1  0.206289  0.265267  0.162686  1
  O  O15  1  0.206290  0.259170  0.245114  1
  O  O16  1  0.554943  0.753626  0.169734  1
  O  O17  1  0.890090  0.751238  0.169661  1
  O  O18  1  0.444834  0.250949  0.266014  1
  O  O19  1  0.445006  0.253680  0.193429  1
  O  O20  1  0.109890  0.246902  0.193439  1
  O  O21  1  0.353617  0.487051  0.291119  1
  O  O22  1  0.645958  0.515041  0.430730  1
  O  O23  1  0.993640  0.487026  0.365136  1
  O  O24  1  0.647688  0.998701  0.289649  1
  O  O25  1  0.348241  0.991891  0.366339  1
  O  O26  1  0.000000  0.998533  0.430323  1
  O  O27  1  0.000000  0.498498  0.429825  1
  O  O28  1  0.354150  0.491893  0.365063  1
  O  O29  1  0.649668  0.498748  0.289766  1
  O  O30  1  0.006163  0.987191  0.366235  1
  O  O31  1  0.651562  0.015048  0.429505  1
  O  O32  1  0.348551  0.986889  0.504749  1
  O  O33  1  0.413079  0.765196  0.334424  1
  O  O34  1  0.793488  0.742700  0.416767  1
  O  O35  1  0.793838  0.758125  0.334348  1
  O  O36  1  0.586605  0.242236  0.461347  1
  O  O37  1  0.206289  0.265267  0.379011  1
  O  O38  1  0.206290  0.259170  0.461440  1
  O  O39  1  0.554941  0.746667  0.313518  1
  O  O40  1  0.554943  0.753626  0.386059  1
  O  O41  1  0.890090  0.751238  0.385987  1
  O  O42  1  0.444834  0.250949  0.482339  1
  O  O43  1  0.445006  0.253680  0.409755  1
  O  O44  1  0.109890  0.246902  0.409764  1
  O  O45  1  0.353617  0.487051  0.507444  1
  O  O46  1  0.645958  0.515041  0.647055  1
  O  O47  1  0.993640  0.487026  0.581461  1
  O  O48  1  0.647688  0.998701  0.505975  1
  O  O49  1  0.348241  0.991891  0.582664  1
  O  O50  1  0.000000  0.998533  0.646648  1
  O  O51  1  0.000000  0.498498  0.646150  1
  O  O52  1  0.354150  0.491893  0.581389  1
  O  O53  1  0.649668  0.498748  0.506091  1
  O  O54  1  0.006163  0.987191  0.582560  1
  O  O55  1  0.651562  0.015048  0.645830  1
  O  O56  1  0.413079  0.765196  0.550749  1
  O  O57  1  0.793488  0.742700  0.633092  1
  O  O58  1  0.793838  0.758125  0.550673  1
  O  O59  1  0.586605  0.242236  0.677672  1
  O  O60  1  0.206289  0.265267  0.595336  1
  O  O61  1  0.206290  0.259170  0.677765  1
  O  O62  1  0.554941  0.746667  0.529844  1
  O  O63  1  0.554943  0.753626  0.602384  1
  O  O64  1  0.890090  0.751238  0.602312  1
  O  O65  1  0.445006  0.253680  0.626080  1
  O  O66  1  0.109890  0.246902  0.626090  1
  Si  Si67  1  0.665583  0.757444  0.200158  1
  Si  Si68  1  0.920193  0.745533  0.145739  1
  Si  Si69  1  0.585388  0.249101  0.272435  1
  Si  Si70  1  0.334331  0.249871  0.163004  1
  Si  Si71  1  0.079877  0.249240  0.217375  1
  Si  Si72  1  0.920013  0.749253  0.200082  1
  Si  Si73  1  0.414327  0.749865  0.145767  1
  Si  Si74  1  0.079817  0.245479  0.162999  1
  Si  Si75  1  0.585602  0.257436  0.217394  1
  Si  Si76  1  0.334198  0.245425  0.272510  1
  Si  Si77  1  0.414249  0.745319  0.307042  1
  Si  Si78  1  0.665583  0.757444  0.416484  1
  Si  Si79  1  0.920193  0.745533  0.362064  1
  Si  Si80  1  0.585388  0.249101  0.488761  1
  Si  Si81  1  0.334331  0.249871  0.379329  1
  Si  Si82  1  0.079877  0.249240  0.433700  1
  Si  Si83  1  0.920013  0.749253  0.416407  1
  Si  Si84  1  0.414327  0.749865  0.362092  1
  Si  Si85  1  0.665538  0.749070  0.307008  1
  Si  Si86  1  0.079817  0.245479  0.379324  1
  Si  Si87  1  0.585602  0.257436  0.433719  1
  Si  Si88  1  0.334198  0.245425  0.488835  1
  Si  Si89  1  0.414249  0.745319  0.523367  1
  Si  Si90  1  0.665583  0.757444  0.632809  1
  Si  Si91  1  0.920193  0.745533  0.578389  1
  Si  Si92  1  0.334331  0.249871  0.595655  1
  Si  Si93  1  0.079877  0.249240  0.650025  1
  Si  Si94  1  0.920013  0.749253  0.632732  1
  Si  Si95  1  0.414327  0.749865  0.578417  1
  Si  Si96  1  0.665538  0.749070  0.523333  1
  Si  Si97  1  0.079817  0.245479  0.595649  1
  Si  Si98  1  0.585602  0.257436  0.650044  1
  H  H99  1  0.413079  0.765196  0.102182  1
  H  H100  1  0.793838  0.758125  0.102106  1
  H  H101  1  0.586605  0.242236  0.693589  1
  H  H102  1  0.206290  0.259170  0.693682  1
