# generated using pymatgen
data_Si6H2O13
_symmetry_space_group_name_H-M   'P 1'
_cell_length_a   13.52203314
_cell_length_b   20.02277416
_cell_length_c   44.80499488
_cell_angle_alpha   132.48095289
_cell_angle_beta   120.00000000
_cell_angle_gamma   70.26486427
_symmetry_Int_Tables_number   1
_chemical_formula_structural   Si6H2O13
_chemical_formula_sum   'Si36 H12 O78'
_cell_volume   7747.9434758
_cell_formula_units_Z   6
loop_
 _symmetry_equiv_pos_site_id
 _symmetry_equiv_pos_as_xyz
  1  'x, y, z'
loop_
 _atom_site_type_symbol
 _atom_site_label
 _atom_site_symmetry_multiplicity
 _atom_site_fract_x
 _atom_site_fract_y
 _atom_site_fract_z
 _atom_site_occupancy
  O  O1  1  0.232893  0.218228  0.331225  1
  O  O2  1  0.232850  0.218134  0.240105  1
  O  O3  1  0.027934  0.166577  0.184729  1
  O  O4  1  0.027945  0.166949  0.293773  1
  O  O5  1  0.304850  0.166720  0.184564  1
  O  O6  1  0.099650  0.207380  0.262316  1
  O  O7  1  0.450263  0.207291  0.262070  1
  O  O8  1  0.361422  0.500211  0.184642  1
  O  O9  1  0.361093  0.500188  0.293657  1
  O  O10  1  0.216205  0.459538  0.302959  1
  O  O11  1  0.432476  0.540755  0.262133  1
  O  O12  1  0.333077  0.333445  0.258516  1
  O  O13  1  0.078437  0.333365  0.258660  1
  O  O14  1  0.200700  0.884780  0.330962  1
  O  O15  1  0.333210  0.833597  0.293659  1
  O  O16  1  0.116906  0.874102  0.262096  1
  O  O17  1  0.411603  0.666889  0.258549  1
  O  O18  1  0.533998  0.218038  0.330972  1
  O  O19  1  0.666571  0.166748  0.293727  1
  O  O20  1  0.882830  0.126308  0.303002  1
  O  O21  1  0.000000  -0.000000  0.258555  1
  O  O22  1  0.745039  -0.000000  0.258647  1
  O  O23  1  0.565890  0.551583  0.331029  1
  O  O24  1  0.867376  0.551335  0.331035  1
  O  O25  1  0.566128  0.551522  0.240053  1
  O  O26  1  0.638688  0.499882  0.184547  1
  O  O27  1  0.783527  0.540401  0.262071  1
  O  O28  1  0.000000  0.499894  0.293690  1
  O  O29  1  0.666664  0.666573  0.258456  1
  O  O30  1  0.899416  0.884800  0.331017  1
  O  O31  1  0.899381  0.884839  0.239997  1
  O  O32  1  0.694477  0.833630  0.184591  1
  O  O33  1  0.694668  0.833246  0.293546  1
  O  O34  1  0.971763  0.833544  0.184560  1
  O  O35  1  0.549514  0.792832  0.302813  1
  O  O36  1  0.765972  0.873953  0.262086  1
  O  O37  1  0.100248  0.115445  0.339989  1
  O  O38  1  0.099945  0.115244  0.431002  1
  O  O39  1  0.305169  0.166928  0.377531  1
  O  O40  1  0.027934  0.166577  0.486532  1
  O  O41  1  0.304850  0.166720  0.486367  1
  O  O42  1  0.233227  0.126246  0.408868  1
  O  O43  1  0.450305  0.207259  0.368141  1
  O  O44  1  0.254710  0.000000  0.335564  1
  O  O45  1  0.254475  0.000000  0.412388  1
  O  O46  1  0.433649  0.448645  0.339906  1
  O  O47  1  0.132403  0.448787  0.340079  1
  O  O48  1  0.433905  0.448661  0.430941  1
  O  O49  1  0.361422  0.500211  0.486445  1
  O  O50  1  0.216365  0.459632  0.408975  1
  O  O51  1  0.078447  0.333580  0.335651  1
  O  O52  1  0.333519  0.333510  0.412579  1
  O  O53  1  0.465571  0.782175  0.339928  1
  O  O54  1  0.333152  0.833493  0.377287  1
  O  O55  1  0.116800  0.873873  0.368011  1
  O  O56  1  0.411487  0.666870  0.335454  1
  O  O57  1  0.799092  0.115416  0.340095  1
  O  O58  1  0.666440  0.166620  0.377300  1
  O  O59  1  0.882602  0.126040  0.408996  1
  O  O60  1  0.588236  0.333279  0.412370  1
  O  O61  1  0.638361  0.500140  0.377310  1
  O  O62  1  0.638688  0.499882  0.486350  1
  O  O63  1  0.567323  0.459446  0.408828  1
  O  O64  1  0.783464  0.540760  0.368139  1
  O  O65  1  0.921339  0.666475  0.335425  1
  O  O66  1  0.000000  0.500213  0.377444  1
  O  O67  1  0.588120  0.333346  0.335450  1
  O  O68  1  0.766961  0.781857  0.339841  1
  O  O69  1  0.766915  0.782098  0.430917  1
  O  O70  1  0.971815  0.833010  0.377164  1
  O  O71  1  0.694477  0.833630  0.486394  1
  O  O72  1  0.971763  0.833544  0.486363  1
  O  O73  1  0.900410  0.792777  0.408784  1
  O  O74  1  0.549435  0.792993  0.408835  1
  O  O75  1  -0.000000  0.000000  0.412480  1
  O  O76  1  0.921401  0.666813  0.412454  1
  O  O77  1  0.666314  0.666915  0.412443  1
  O  O78  1  0.744884  -0.000000  0.335463  1
  Si  Si79  1  0.105739  0.229249  0.235410  1
  Si  Si80  1  0.105794  0.229455  0.304318  1
  Si  Si81  1  0.332961  0.229323  0.235288  1
  Si  Si82  1  0.438957  0.562784  0.235340  1
  Si  Si83  1  0.333328  0.437568  0.298179  1
  Si  Si84  1  0.438690  0.562731  0.304125  1
  Si  Si85  1  0.105440  0.437506  0.298283  1
  Si  Si86  1  0.227710  0.896062  0.304123  1
  Si  Si87  1  0.438648  0.771022  0.298172  1
  Si  Si88  1  0.561029  0.229232  0.304104  1
  Si  Si89  1  0.772066  0.104301  0.298332  1
  Si  Si90  1  -0.000000  0.104311  0.294829  1
  Si  Si91  1  0.666438  0.562476  0.235240  1
  Si  Si92  1  0.894328  0.562367  0.304099  1
  Si  Si93  1  0.772218  0.896042  0.235282  1
  Si  Si94  1  0.666754  0.770713  0.298081  1
  Si  Si95  1  0.772250  0.895895  0.304081  1
  Si  Si96  1  0.000000  0.896063  0.235264  1
  Si  Si97  1  0.333197  0.229352  0.372956  1
  Si  Si98  1  0.227361  0.104317  0.366937  1
  Si  Si99  1  0.227045  0.104182  0.435691  1
  Si  Si100  1  0.333667  0.437593  0.435752  1
  Si  Si101  1  0.105416  0.437711  0.366993  1
  Si  Si102  1  0.438607  0.770974  0.366803  1
  Si  Si103  1  0.227590  0.895928  0.372715  1
  Si  Si104  1  0.561027  0.229172  0.372737  1
  Si  Si105  1  0.771993  0.104145  0.366923  1
  Si  Si106  1  0.000000  0.104022  0.435808  1
  Si  Si107  1  0.666141  0.562774  0.372799  1
  Si  Si108  1  0.894388  0.562664  0.372850  1
  Si  Si109  1  0.560844  0.437477  0.366797  1
  Si  Si110  1  0.561079  0.437413  0.435654  1
  Si  Si111  1  0.000000  0.895785  0.372740  1
  Si  Si112  1  0.894097  0.770618  0.366738  1
  Si  Si113  1  0.666613  0.771025  0.435685  1
  Si  Si114  1  0.894090  0.770925  0.435664  1
  H  H115  1  0.027934  0.166577  0.164642  1
  H  H116  1  0.304850  0.166720  0.164477  1
  H  H117  1  0.361422  0.500211  0.164555  1
  H  H118  1  0.638688  0.499882  0.164460  1
  H  H119  1  0.694477  0.833630  0.164504  1
  H  H120  1  0.971763  0.833544  0.164473  1
  H  H121  1  0.027934  0.166577  0.506619  1
  H  H122  1  0.304850  0.166720  0.506454  1
  H  H123  1  0.361422  0.500211  0.506532  1
  H  H124  1  0.638688  0.499882  0.506437  1
  H  H125  1  0.694477  0.833630  0.506481  1
  H  H126  1  0.971763  0.833544  0.506450  1
