# generated using pymatgen
data_Si10H2O21
_symmetry_space_group_name_H-M   'P 1'
_cell_length_a   13.02202298
_cell_length_b   9.37740949
_cell_length_c   34.09787793
_cell_angle_alpha   92.35000000
_cell_angle_beta   104.50000000
_cell_angle_gamma   107.30000000
_symmetry_Int_Tables_number   1
_chemical_formula_structural   Si10H2O21
_chemical_formula_sum   'Si20 H4 O42'
_cell_volume   3818.65225849
_cell_formula_units_Z   2
loop_
 _symmetry_equiv_pos_site_id
 _symmetry_equiv_pos_as_xyz
  1  'x, y, z'
loop_
 _atom_site_type_symbol
 _atom_site_label
 _atom_site_symmetry_multiplicity
 _atom_site_fract_x
 _atom_site_fract_y
 _atom_site_fract_z
 _atom_site_occupancy
  O  O1  1  0.659249  0.327104  0.179051  1
  O  O2  1  0.765470  0.937981  0.341306  1
  O  O3  1  0.234503  0.062066  0.353381  1
  O  O4  1  0.636258  0.735335  0.370257  1
  O  O5  1  0.363715  0.264711  0.324430  1
  O  O6  1  0.665076  0.671529  0.301999  1
  O  O7  1  0.334897  0.328517  0.392687  1
  O  O8  1  0.824661  0.701211  0.364282  1
  O  O9  1  0.175313  0.298836  0.330404  1
  O  O10  1  0.632862  0.046301  0.294524  1
  O  O11  1  0.367112  0.953745  0.400162  1
  O  O12  1  0.830735  0.211853  0.315445  1
  O  O13  1  0.169239  0.788194  0.379241  1
  O  O14  1  0.712465  0.169247  0.366763  1
  O  O15  1  0.287509  0.830799  0.327923  1
  O  O16  1  0.659433  0.290895  0.428506  1
  O  O17  1  0.340541  0.709151  0.266180  1
  O  O18  1  0.575993  0.314240  0.352910  1
  O  O19  1  0.423981  0.685806  0.341777  1
  O  O20  1  0.786184  0.445874  0.388154  1
  O  O21  1  0.213790  0.554173  0.306532  1
  O  O22  1  0.865417  0.487741  0.328219  1
  O  O23  1  0.134557  0.512305  0.366467  1
  O  O24  1  -0.000000  0.604667  0.396269  1
  O  O25  1  -0.000000  0.395379  0.298418  1
  O  O26  1  0.659249  0.327104  0.507466  1
  O  O27  1  0.340724  0.672943  0.187221  1
  O  O28  1  0.504928  0.357688  0.450655  1
  O  O29  1  0.495046  0.642359  0.244032  1
  O  O30  1  0.534281  0.094311  0.457179  1
  O  O31  1  0.465692  0.905735  0.237507  1
  O  O32  1  0.588810  0.188028  0.234325  1
  O  O33  1  0.411164  0.812019  0.460362  1
  O  O34  1  0.786965  0.362180  0.255032  1
  O  O35  1  0.213009  0.637867  0.439655  1
  O  O36  1  0.622683  0.470110  0.240116  1
  O  O37  1  0.377291  0.529937  0.454571  1
  O  O38  1  0.524433  0.850265  0.409628  1
  O  O39  1  0.475540  0.149782  0.285059  1
  O  O40  1  0.494358  0.569430  0.404929  1
  O  O41  1  0.505615  0.430617  0.289757  1
  O  O42  1  0.340724  0.672943  0.515635  1
  Si  Si43  1  0.725597  0.764380  0.345383  1
  Si  Si44  1  0.274377  0.235666  0.349303  1
  Si  Si45  1  0.742006  0.089846  0.330946  1
  Si  Si46  1  0.257967  0.910201  0.363741  1
  Si  Si47  1  0.682354  0.303689  0.385479  1
  Si  Si48  1  0.317620  0.696357  0.309208  1
  Si  Si49  1  0.872560  0.564939  0.371312  1
  Si  Si50  1  0.127414  0.435107  0.323375  1
  Si  Si51  1  0.592013  0.269881  0.461258  1
  Si  Si52  1  0.407961  0.730166  0.233429  1
  Si  Si53  1  0.666666  0.341635  0.226175  1
  Si  Si54  1  0.333308  0.658412  0.468512  1
  Si  Si55  1  0.872621  0.364157  0.297145  1
  Si  Si56  1  0.127353  0.635889  0.397541  1
  Si  Si57  1  0.523077  0.710592  0.381526  1
  Si  Si58  1  0.476897  0.289454  0.313161  1
  Si  Si59  1  0.534982  0.068103  0.260422  1
  Si  Si60  1  0.464992  0.931944  0.434265  1
  Si  Si61  1  0.571598  0.554252  0.267454  1
  Si  Si62  1  0.428375  0.445795  0.427233  1
  H  H63  1  0.659249  0.327104  0.152657  1
  H  H64  1  0.659249  0.327104  0.533860  1
  H  H65  1  0.340724  0.672943  0.160826  1
  H  H66  1  0.340724  0.672943  0.542030  1
