# generated using pymatgen
data_Si14H2O29
_symmetry_space_group_name_H-M   'P 1'
_cell_length_a   13.80974137
_cell_length_b   5.09810601
_cell_length_c   43.02844802
_cell_angle_alpha   90.00000000
_cell_angle_beta   90.00000000
_cell_angle_gamma   90.00000000
_symmetry_Int_Tables_number   1
_chemical_formula_structural   Si14H2O29
_chemical_formula_sum   'Si28 H4 O58'
_cell_volume   3029.35443638
_cell_formula_units_Z   2
loop_
 _symmetry_equiv_pos_site_id
 _symmetry_equiv_pos_as_xyz
  1  'x, y, z'
loop_
 _atom_site_type_symbol
 _atom_site_label
 _atom_site_symmetry_multiplicity
 _atom_site_fract_x
 _atom_site_fract_y
 _atom_site_fract_z
 _atom_site_occupancy
  O  O1  1  0.500021  0.755817  0.411202  1
  O  O2  1  0.500056  0.255875  0.356394  1
  O  O3  1  0.093190  0.247920  0.189263  1
  O  O4  1  0.592930  0.745218  0.487387  1
  O  O5  1  0.907245  0.247845  0.189240  1
  O  O6  1  0.406962  0.745283  0.487395  1
  O  O7  1  0.906979  0.748557  0.578344  1
  O  O8  1  0.407231  0.244518  0.280219  1
  O  O9  1  0.092933  0.748539  0.578346  1
  O  O10  1  0.593200  0.244502  0.280201  1
  O  O11  1  0.000000  0.446076  0.233725  1
  O  O12  1  0.499981  0.051297  0.522904  1
  O  O13  1  -0.000000  0.943979  0.224757  1
  O  O14  1  0.499967  0.549736  0.531878  1
  O  O15  1  -0.000000  0.444701  0.542834  1
  O  O16  1  0.500158  0.048962  0.235727  1
  O  O17  1  -0.000000  0.946790  0.533878  1
  O  O18  1  0.500165  0.550519  0.244691  1
  O  O19  1  0.631765  0.502827  0.384145  1
  O  O20  1  0.368308  0.502941  0.384119  1
  O  O21  1  0.631748  0.002828  0.383461  1
  O  O22  1  0.368325  0.002941  0.383467  1
  O  O23  1  0.170822  0.259954  0.137119  1
  O  O24  1  0.670497  0.757674  0.435200  1
  O  O25  1  0.829334  0.260026  0.137139  1
  O  O26  1  0.329516  0.757531  0.435186  1
  O  O27  1  0.829262  0.760184  0.630477  1
  O  O28  1  0.329587  0.257417  0.332394  1
  O  O29  1  0.170749  0.760156  0.630463  1
  O  O30  1  0.670581  0.257539  0.332413  1
  O  O31  1  0.250315  0.759768  0.234694  1
  O  O32  1  0.749819  0.260080  0.532886  1
  O  O33  1  0.750003  0.759833  0.234756  1
  O  O34  1  0.250142  0.260070  0.532859  1
  O  O35  1  0.099350  0.747751  0.267574  1
  O  O36  1  0.599040  0.250371  0.565809  1
  O  O37  1  0.901040  0.747835  0.267598  1
  O  O38  1  0.400886  0.250345  0.565800  1
  O  O39  1  0.900803  0.248395  0.500015  1
  O  O40  1  0.401117  0.749710  0.201783  1
  O  O41  1  0.099117  0.248368  0.500005  1
  O  O42  1  0.599275  0.749725  0.201806  1
  O  O43  1  0.251725  0.482833  0.185288  1
  O  O44  1  0.748166  0.998255  0.482505  1
  O  O45  1  0.748660  0.482659  0.185367  1
  O  O46  1  0.251854  0.998825  0.482437  1
  O  O47  1  0.245419  0.982716  0.182070  1
  O  O48  1  0.748863  0.498038  0.481003  1
  O  O49  1  0.755014  0.982544  0.182115  1
  O  O50  1  0.250933  0.498598  0.481013  1
  O  O51  1  0.754790  0.483120  0.585501  1
  O  O52  1  0.251264  0.997499  0.286595  1
  O  O53  1  0.245104  0.482970  0.585482  1
  O  O54  1  0.749104  0.997367  0.286668  1
  O  O55  1  0.748391  0.983248  0.582303  1
  O  O56  1  0.252017  0.497715  0.285058  1
  O  O57  1  0.251552  0.983096  0.582268  1
  O  O58  1  0.748425  0.497582  0.285103  1
  Si  Si59  1  0.611574  0.754785  0.403955  1
  Si  Si60  1  0.388472  0.754805  0.403948  1
  Si  Si61  1  0.388502  0.254806  0.363642  1
  Si  Si62  1  0.611604  0.254786  0.363648  1
  Si  Si63  1  -0.000000  0.721268  0.249754  1
  Si  Si64  1  0.499970  0.274579  0.547878  1
  Si  Si65  1  -0.000000  0.221948  0.517842  1
  Si  Si66  1  0.500176  0.773835  0.219721  1
  Si  Si67  1  0.286909  0.743537  0.200440  1
  Si  Si68  1  0.786641  0.250939  0.498630  1
  Si  Si69  1  0.713486  0.743472  0.200493  1
  Si  Si70  1  0.213275  0.251195  0.498608  1
  Si  Si71  1  0.713247  0.243969  0.567143  1
  Si  Si72  1  0.213512  0.750439  0.268952  1
  Si  Si73  1  0.286679  0.243884  0.567121  1
  Si  Si74  1  0.786881  0.750413  0.269006  1
  Si  Si75  1  -0.000000  0.220488  0.209278  1
  Si  Si76  1  0.499956  0.774652  0.507392  1
  Si  Si77  1  0.000000  0.721178  0.558319  1
  Si  Si78  1  0.500198  0.273897  0.260209  1
  Si  Si79  1  0.193385  0.243152  0.172807  1
  Si  Si80  1  0.693093  0.750330  0.470917  1
  Si  Si81  1  0.806958  0.243081  0.172841  1
  Si  Si82  1  0.306841  0.750590  0.470900  1
  Si  Si83  1  0.806757  0.743594  0.594782  1
  Si  Si84  1  0.307042  0.249814  0.296673  1
  Si  Si85  1  0.193187  0.743509  0.594765  1
  Si  Si86  1  0.693305  0.249783  0.296706  1
  H  H87  1  0.170822  0.259954  0.116202  1
  H  H88  1  0.829334  0.260026  0.116222  1
  H  H89  1  0.829262  0.760184  0.651393  1
  H  H90  1  0.170749  0.760156  0.651380  1
