# generated using pymatgen
data_Si46H2O93
_symmetry_space_group_name_H-M   'P 1'
_cell_length_a   13.80974137
_cell_length_b   5.09810601
_cell_length_c   94.32552286
_cell_angle_alpha   90.00000000
_cell_angle_beta   90.00000000
_cell_angle_gamma   90.00000000
_symmetry_Int_Tables_number   1
_chemical_formula_structural   Si46H2O93
_chemical_formula_sum   'Si92 H4 O186'
_cell_volume   6640.84935167
_cell_formula_units_Z   2
loop_
 _symmetry_equiv_pos_site_id
 _symmetry_equiv_pos_as_xyz
  1  'x, y, z'
loop_
 _atom_site_type_symbol
 _atom_site_label
 _atom_site_symmetry_multiplicity
 _atom_site_fract_x
 _atom_site_fract_y
 _atom_site_fract_z
 _atom_site_occupancy
  O  O1  1  0.500021  0.755817  0.187578  1
  O  O2  1  -0.000000  0.759033  0.298522  1
  O  O3  1  0.500056  0.255875  0.162576  1
  O  O4  1  0.093190  0.247920  0.086336  1
  O  O5  1  0.592930  0.745218  0.222331  1
  O  O6  1  0.907245  0.247845  0.086326  1
  O  O7  1  0.406962  0.745283  0.222335  1
  O  O8  1  0.906979  0.748557  0.263823  1
  O  O9  1  0.407231  0.244518  0.127827  1
  O  O10  1  0.092933  0.748539  0.263824  1
  O  O11  1  0.593200  0.244502  0.127819  1
  O  O12  1  -0.000000  0.446076  0.106618  1
  O  O13  1  0.499981  0.051297  0.238533  1
  O  O14  1  -0.000000  0.943979  0.102527  1
  O  O15  1  0.499967  0.549736  0.242627  1
  O  O16  1  0.000000  0.444701  0.247624  1
  O  O17  1  0.500158  0.048962  0.107532  1
  O  O18  1  -0.000000  0.946790  0.243539  1
  O  O19  1  0.500165  0.550519  0.111621  1
  O  O20  1  0.631765  0.502827  0.175235  1
  O  O21  1  0.368308  0.502941  0.175224  1
  O  O22  1  0.131756  0.508137  0.310953  1
  O  O23  1  0.631748  0.002828  0.174923  1
  O  O24  1  0.868311  0.508050  0.310954  1
  O  O25  1  0.368325  0.002941  0.174926  1
  O  O26  1  0.170822  0.259954  0.062549  1
  O  O27  1  0.670497  0.757674  0.198525  1
  O  O28  1  0.829334  0.260026  0.062559  1
  O  O29  1  0.329516  0.757531  0.198519  1
  O  O30  1  0.829262  0.760184  0.287605  1
  O  O31  1  0.329587  0.257417  0.151628  1
  O  O32  1  0.170749  0.760156  0.287598  1
  O  O33  1  0.670581  0.257539  0.151637  1
  O  O34  1  0.250315  0.759768  0.107060  1
  O  O35  1  0.749819  0.260080  0.243086  1
  O  O36  1  0.750003  0.759833  0.107089  1
  O  O37  1  0.250142  0.260070  0.243074  1
  O  O38  1  0.099350  0.747751  0.122059  1
  O  O39  1  0.599040  0.250371  0.258105  1
  O  O40  1  0.901040  0.747835  0.122070  1
  O  O41  1  0.400886  0.250345  0.258101  1
  O  O42  1  0.900803  0.248395  0.228092  1
  O  O43  1  0.401117  0.749710  0.092048  1
  O  O44  1  0.099117  0.248368  0.228087  1
  O  O45  1  0.599275  0.749725  0.092058  1
  O  O46  1  0.251725  0.482833  0.084523  1
  O  O47  1  0.748166  0.998255  0.220104  1
  O  O48  1  0.748660  0.482659  0.084559  1
  O  O49  1  0.251854  0.998825  0.220073  1
  O  O50  1  0.245419  0.982716  0.083055  1
  O  O51  1  0.748863  0.498038  0.219419  1
  O  O52  1  0.755014  0.982544  0.083075  1
  O  O53  1  0.250933  0.498598  0.219423  1
  O  O54  1  0.754790  0.483120  0.267088  1
  O  O55  1  0.251264  0.997499  0.130736  1
  O  O56  1  0.245104  0.482970  0.267079  1
  O  O57  1  0.749104  0.997367  0.130769  1
  O  O58  1  0.748391  0.983248  0.265629  1
  O  O59  1  0.252017  0.497715  0.130035  1
  O  O60  1  0.251552  0.983096  0.265613  1
  O  O61  1  0.748425  0.497582  0.130056  1
  O  O62  1  0.000000  0.259113  0.323548  1
  O  O63  1  0.500021  0.755817  0.459493  1
  O  O64  1  0.000000  0.759033  0.570438  1
  O  O65  1  0.500056  0.255875  0.434491  1
  O  O66  1  0.093190  0.247920  0.358251  1
  O  O67  1  0.592930  0.745218  0.494246  1
  O  O68  1  0.907245  0.247845  0.358241  1
  O  O69  1  0.406962  0.745283  0.494250  1
  O  O70  1  0.906979  0.748557  0.535738  1
  O  O71  1  0.407231  0.244518  0.399743  1
  O  O72  1  0.092933  0.748539  0.535739  1
  O  O73  1  0.593200  0.244502  0.399734  1
  O  O74  1  0.000000  0.446076  0.378533  1
  O  O75  1  0.499981  0.051297  0.510448  1
  O  O76  1  -0.000000  0.943979  0.374442  1
  O  O77  1  0.499967  0.549736  0.514542  1
  O  O78  1  -0.000000  0.444701  0.519539  1
  O  O79  1  0.500158  0.048962  0.379447  1
  O  O80  1  0.000000  0.946790  0.515454  1
  O  O81  1  0.500165  0.550519  0.383536  1
  O  O82  1  0.131731  0.008137  0.311113  1
  O  O83  1  0.631765  0.502827  0.447150  1
  O  O84  1  0.868334  0.008050  0.311122  1
  O  O85  1  0.368308  0.502941  0.447139  1
  O  O86  1  0.131756  0.508137  0.582868  1
  O  O87  1  0.631748  0.002828  0.446838  1
  O  O88  1  0.868311  0.508050  0.582869  1
  O  O89  1  0.368325  0.002941  0.446841  1
  O  O90  1  0.170822  0.259954  0.334464  1
  O  O91  1  0.670497  0.757674  0.470440  1
  O  O92  1  0.829334  0.260026  0.334474  1
  O  O93  1  0.329516  0.757531  0.470434  1
  O  O94  1  0.829262  0.760184  0.559520  1
  O  O95  1  0.329587  0.257417  0.423543  1
  O  O96  1  0.170749  0.760156  0.559513  1
  O  O97  1  0.670581  0.257539  0.423552  1
  O  O98  1  0.250315  0.759768  0.378976  1
  O  O99  1  0.749819  0.260080  0.515001  1
  O  O100  1  0.750003  0.759833  0.379004  1
  O  O101  1  0.250142  0.260070  0.514989  1
  O  O102  1  0.099350  0.747751  0.393974  1
  O  O103  1  0.599040  0.250371  0.530020  1
  O  O104  1  0.901040  0.747835  0.393985  1
  O  O105  1  0.400886  0.250345  0.530016  1
  O  O106  1  0.900803  0.248395  0.500007  1
  O  O107  1  0.401117  0.749710  0.363963  1
  O  O108  1  0.099117  0.248368  0.500002  1
  O  O109  1  0.599275  0.749725  0.363973  1
  O  O110  1  0.251725  0.482833  0.356438  1
  O  O111  1  0.748166  0.998255  0.492019  1
  O  O112  1  0.748660  0.482659  0.356474  1
  O  O113  1  0.251854  0.998825  0.491988  1
  O  O114  1  0.245419  0.982716  0.354970  1
  O  O115  1  0.748863  0.498038  0.491334  1
  O  O116  1  0.755014  0.982544  0.354990  1
  O  O117  1  0.250933  0.498598  0.491339  1
  O  O118  1  0.754790  0.483120  0.539003  1
  O  O119  1  0.251264  0.997499  0.402651  1
  O  O120  1  0.245104  0.482970  0.538994  1
  O  O121  1  0.749104  0.997367  0.402684  1
  O  O122  1  0.748391  0.983248  0.537544  1
  O  O123  1  0.252017  0.497715  0.401950  1
  O  O124  1  0.251552  0.983096  0.537528  1
  O  O125  1  0.748425  0.497582  0.401971  1
  O  O126  1  0.000000  0.259113  0.595463  1
  O  O127  1  0.500021  0.755817  0.731408  1
  O  O128  1  0.500056  0.255875  0.706406  1
  O  O129  1  0.093190  0.247920  0.630166  1
  O  O130  1  0.592930  0.745218  0.766162  1
  O  O131  1  0.907245  0.247845  0.630156  1
  O  O132  1  0.406962  0.745283  0.766165  1
  O  O133  1  0.906979  0.748557  0.807653  1
  O  O134  1  0.407231  0.244518  0.671658  1
  O  O135  1  0.092933  0.748539  0.807654  1
  O  O136  1  0.593200  0.244502  0.671649  1
  O  O137  1  -0.000000  0.446076  0.650448  1
  O  O138  1  0.499981  0.051297  0.782363  1
  O  O139  1  0.000000  0.943979  0.646357  1
  O  O140  1  0.499967  0.549736  0.786457  1
  O  O141  1  -0.000000  0.444701  0.791455  1
  O  O142  1  0.500158  0.048962  0.651362  1
  O  O143  1  0.000000  0.946790  0.787369  1
  O  O144  1  0.500165  0.550519  0.655451  1
  O  O145  1  0.131731  0.008137  0.583028  1
  O  O146  1  0.631765  0.502827  0.719066  1
  O  O147  1  0.868334  0.008050  0.583037  1
  O  O148  1  0.368308  0.502941  0.719054  1
  O  O149  1  0.631748  0.002828  0.718753  1
  O  O150  1  0.368325  0.002941  0.718756  1
  O  O151  1  0.170822  0.259954  0.606380  1
  O  O152  1  0.670497  0.757674  0.742355  1
  O  O153  1  0.829334  0.260026  0.606389  1
  O  O154  1  0.329516  0.757531  0.742349  1
  O  O155  1  0.829262  0.760184  0.831435  1
  O  O156  1  0.329587  0.257417  0.695458  1
  O  O157  1  0.170749  0.760156  0.831429  1
  O  O158  1  0.670581  0.257539  0.695467  1
  O  O159  1  0.250315  0.759768  0.650891  1
  O  O160  1  0.749819  0.260080  0.786917  1
  O  O161  1  0.750003  0.759833  0.650919  1
  O  O162  1  0.250142  0.260070  0.786904  1
  O  O163  1  0.099350  0.747751  0.665890  1
  O  O164  1  0.599040  0.250371  0.801935  1
  O  O165  1  0.901040  0.747835  0.665900  1
  O  O166  1  0.400886  0.250345  0.801931  1
  O  O167  1  0.900803  0.248395  0.771922  1
  O  O168  1  0.401117  0.749710  0.635878  1
  O  O169  1  0.099117  0.248368  0.771917  1
  O  O170  1  0.599275  0.749725  0.635888  1
  O  O171  1  0.251725  0.482833  0.628353  1
  O  O172  1  0.748166  0.998255  0.763934  1
  O  O173  1  0.748660  0.482659  0.628389  1
  O  O174  1  0.251854  0.998825  0.763904  1
  O  O175  1  0.245419  0.982716  0.626885  1
  O  O176  1  0.748863  0.498038  0.763249  1
  O  O177  1  0.755014  0.982544  0.626905  1
  O  O178  1  0.250933  0.498598  0.763254  1
  O  O179  1  0.754790  0.483120  0.810918  1
  O  O180  1  0.251264  0.997499  0.674566  1
  O  O181  1  0.245104  0.482970  0.810910  1
  O  O182  1  0.749104  0.997367  0.674600  1
  O  O183  1  0.748391  0.983248  0.809459  1
  O  O184  1  0.252017  0.497715  0.673865  1
  O  O185  1  0.251552  0.983096  0.809443  1
  O  O186  1  0.748425  0.497582  0.673886  1
  Si  Si187  1  0.611574  0.754785  0.184272  1
  Si  Si188  1  0.388472  0.754805  0.184269  1
  Si  Si189  1  0.888463  0.759123  0.301841  1
  Si  Si190  1  0.388502  0.254806  0.165882  1
  Si  Si191  1  0.111578  0.759154  0.301838  1
  Si  Si192  1  0.611604  0.254786  0.165885  1
  Si  Si193  1  0.000000  0.721268  0.113930  1
  Si  Si194  1  0.499970  0.274579  0.249926  1
  Si  Si195  1  0.000000  0.221948  0.236224  1
  Si  Si196  1  0.500176  0.773835  0.100230  1
  Si  Si197  1  0.286909  0.743537  0.091435  1
  Si  Si198  1  0.786641  0.250939  0.227460  1
  Si  Si199  1  0.713486  0.743472  0.091459  1
  Si  Si200  1  0.213275  0.251195  0.227450  1
  Si  Si201  1  0.713247  0.243969  0.258714  1
  Si  Si202  1  0.213512  0.750439  0.122688  1
  Si  Si203  1  0.286679  0.243884  0.258703  1
  Si  Si204  1  0.786881  0.750413  0.122712  1
  Si  Si205  1  0.000000  0.220488  0.095466  1
  Si  Si206  1  0.499956  0.774652  0.231457  1
  Si  Si207  1  0.000000  0.721178  0.254688  1
  Si  Si208  1  0.500198  0.273897  0.118700  1
  Si  Si209  1  0.193385  0.243152  0.078829  1
  Si  Si210  1  0.693093  0.750330  0.214818  1
  Si  Si211  1  0.806958  0.243081  0.078845  1
  Si  Si212  1  0.306841  0.750590  0.214810  1
  Si  Si213  1  0.806757  0.743594  0.271322  1
  Si  Si214  1  0.307042  0.249814  0.135333  1
  Si  Si215  1  0.193187  0.743509  0.271314  1
  Si  Si216  1  0.693305  0.249783  0.135348  1
  Si  Si217  1  0.111606  0.259153  0.320229  1
  Si  Si218  1  0.611574  0.754785  0.456187  1
  Si  Si219  1  0.888490  0.259124  0.320232  1
  Si  Si220  1  0.388472  0.754805  0.456184  1
  Si  Si221  1  0.888463  0.759123  0.573757  1
  Si  Si222  1  0.388502  0.254806  0.437797  1
  Si  Si223  1  0.111578  0.759154  0.573753  1
  Si  Si224  1  0.611604  0.254786  0.437800  1
  Si  Si225  1  0.000000  0.721268  0.385846  1
  Si  Si226  1  0.499970  0.274579  0.521841  1
  Si  Si227  1  -0.000000  0.221948  0.508139  1
  Si  Si228  1  0.500176  0.773835  0.372145  1
  Si  Si229  1  0.286909  0.743537  0.363350  1
  Si  Si230  1  0.786641  0.250939  0.499375  1
  Si  Si231  1  0.713486  0.743472  0.363374  1
  Si  Si232  1  0.213275  0.251195  0.499365  1
  Si  Si233  1  0.713247  0.243969  0.530629  1
  Si  Si234  1  0.213512  0.750439  0.394603  1
  Si  Si235  1  0.286679  0.243884  0.530618  1
  Si  Si236  1  0.786881  0.750413  0.394627  1
  Si  Si237  1  0.000000  0.220488  0.367381  1
  Si  Si238  1  0.499956  0.774652  0.503372  1
  Si  Si239  1  0.000000  0.721178  0.526604  1
  Si  Si240  1  0.500198  0.273897  0.390615  1
  Si  Si241  1  0.193385  0.243152  0.350745  1
  Si  Si242  1  0.693093  0.750330  0.486733  1
  Si  Si243  1  0.806958  0.243081  0.350760  1
  Si  Si244  1  0.306841  0.750590  0.486726  1
  Si  Si245  1  0.806757  0.743594  0.543237  1
  Si  Si246  1  0.307042  0.249814  0.407248  1
  Si  Si247  1  0.193187  0.743509  0.543229  1
  Si  Si248  1  0.693305  0.249783  0.407263  1
  Si  Si249  1  0.111606  0.259153  0.592144  1
  Si  Si250  1  0.611574  0.754785  0.728102  1
  Si  Si251  1  0.888490  0.259124  0.592148  1
  Si  Si252  1  0.388472  0.754805  0.728099  1
  Si  Si253  1  0.388502  0.254806  0.709713  1
  Si  Si254  1  0.611604  0.254786  0.709716  1
  Si  Si255  1  0.000000  0.721268  0.657761  1
  Si  Si256  1  0.499970  0.274579  0.793756  1
  Si  Si257  1  0.000000  0.221948  0.780054  1
  Si  Si258  1  0.500176  0.773835  0.644061  1
  Si  Si259  1  0.286909  0.743537  0.635265  1
  Si  Si260  1  0.786641  0.250939  0.771290  1
  Si  Si261  1  0.713486  0.743472  0.635289  1
  Si  Si262  1  0.213275  0.251195  0.771280  1
  Si  Si263  1  0.713247  0.243969  0.802544  1
  Si  Si264  1  0.213512  0.750439  0.666518  1
  Si  Si265  1  0.286679  0.243884  0.802533  1
  Si  Si266  1  0.786881  0.750413  0.666542  1
  Si  Si267  1  -0.000000  0.220488  0.639297  1
  Si  Si268  1  0.499956  0.774652  0.775287  1
  Si  Si269  1  0.000000  0.721178  0.798519  1
  Si  Si270  1  0.500198  0.273897  0.662530  1
  Si  Si271  1  0.193385  0.243152  0.622660  1
  Si  Si272  1  0.693093  0.750330  0.758649  1
  Si  Si273  1  0.806958  0.243081  0.622675  1
  Si  Si274  1  0.306841  0.750590  0.758641  1
  Si  Si275  1  0.806757  0.743594  0.815152  1
  Si  Si276  1  0.307042  0.249814  0.679163  1
  Si  Si277  1  0.193187  0.743509  0.815144  1
  Si  Si278  1  0.693305  0.249783  0.679178  1
  H  H279  1  0.170822  0.259954  0.053008  1
  H  H280  1  0.829334  0.260026  0.053017  1
  H  H281  1  0.829262  0.760184  0.840976  1
  H  H282  1  0.170749  0.760156  0.840970  1
