# generated using pymatgen
data_Si18H2O37
_symmetry_space_group_name_H-M   'P 1'
_cell_length_a   13.80974137
_cell_length_b   5.09810601
_cell_length_c   51.87211502
_cell_angle_alpha   90.00000000
_cell_angle_beta   90.00000000
_cell_angle_gamma   90.00000000
_symmetry_Int_Tables_number   1
_chemical_formula_structural   Si18H2O37
_chemical_formula_sum   'Si36 H4 O74'
_cell_volume   3651.97977127
_cell_formula_units_Z   2
loop_
 _symmetry_equiv_pos_site_id
 _symmetry_equiv_pos_as_xyz
  1  'x, y, z'
loop_
 _atom_site_type_symbol
 _atom_site_label
 _atom_site_symmetry_multiplicity
 _atom_site_fract_x
 _atom_site_fract_y
 _atom_site_fract_z
 _atom_site_occupancy
  O  O1  1  0.500021  0.755817  0.179113  1
  O  O2  1  0.000000  0.759033  0.380858  1
  O  O3  1  0.500056  0.255875  0.133650  1
  O  O4  1  0.592930  0.745218  0.242310  1
  O  O5  1  0.406962  0.745283  0.242316  1
  O  O6  1  0.906979  0.748557  0.317759  1
  O  O7  1  0.092933  0.748539  0.317761  1
  O  O8  1  0.499981  0.051297  0.271772  1
  O  O9  1  0.499967  0.549736  0.279215  1
  O  O10  1  0.000000  0.444701  0.288303  1
  O  O11  1  0.000000  0.946790  0.280874  1
  O  O12  1  0.631765  0.502827  0.156670  1
  O  O13  1  0.368308  0.502941  0.156648  1
  O  O14  1  0.131756  0.508137  0.403462  1
  O  O15  1  0.631748  0.002828  0.156102  1
  O  O16  1  0.868311  0.508050  0.403463  1
  O  O17  1  0.368325  0.002941  0.156107  1
  O  O18  1  0.670497  0.757674  0.199020  1
  O  O19  1  0.329516  0.757531  0.199009  1
  O  O20  1  0.829262  0.760184  0.361004  1
  O  O21  1  0.329587  0.257417  0.113741  1
  O  O22  1  0.170749  0.760156  0.360993  1
  O  O23  1  0.670581  0.257539  0.113758  1
  O  O24  1  0.749819  0.260080  0.280051  1
  O  O25  1  0.250142  0.260070  0.280029  1
  O  O26  1  0.599040  0.250371  0.307362  1
  O  O27  1  0.400886  0.250345  0.307354  1
  O  O28  1  0.900803  0.248395  0.252785  1
  O  O29  1  0.099117  0.248368  0.252776  1
  O  O30  1  0.748166  0.998255  0.238260  1
  O  O31  1  0.251854  0.998825  0.238204  1
  O  O32  1  0.748863  0.498038  0.237014  1
  O  O33  1  0.250933  0.498598  0.237022  1
  O  O34  1  0.754790  0.483120  0.323697  1
  O  O35  1  0.245104  0.482970  0.323681  1
  O  O36  1  0.748391  0.983248  0.321044  1
  O  O37  1  0.251552  0.983096  0.321015  1
  O  O38  1  0.000000  0.259113  0.426365  1
  O  O39  1  0.500021  0.755817  0.673571  1
  O  O40  1  0.500056  0.255875  0.628107  1
  O  O41  1  0.093190  0.247920  0.489470  1
  O  O42  1  0.907245  0.247845  0.489451  1
  O  O43  1  0.407231  0.244518  0.564919  1
  O  O44  1  0.593200  0.244502  0.564904  1
  O  O45  1  0.000000  0.446076  0.526351  1
  O  O46  1  0.000000  0.943979  0.518912  1
  O  O47  1  0.500158  0.048962  0.528013  1
  O  O48  1  0.500165  0.550519  0.535448  1
  O  O49  1  0.131731  0.008137  0.403752  1
  O  O50  1  0.631765  0.502827  0.651127  1
  O  O51  1  0.868334  0.008050  0.403769  1
  O  O52  1  0.368308  0.502941  0.651105  1
  O  O53  1  0.631748  0.002828  0.650559  1
  O  O54  1  0.368325  0.002941  0.650564  1
  O  O55  1  0.170822  0.259954  0.446216  1
  O  O56  1  0.670497  0.757674  0.693477  1
  O  O57  1  0.829334  0.260026  0.446233  1
  O  O58  1  0.329516  0.757531  0.693466  1
  O  O59  1  0.329587  0.257417  0.608198  1
  O  O60  1  0.670581  0.257539  0.608215  1
  O  O61  1  0.250315  0.759768  0.527156  1
  O  O62  1  0.750003  0.759833  0.527207  1
  O  O63  1  0.099350  0.747751  0.554430  1
  O  O64  1  0.901040  0.747835  0.554449  1
  O  O65  1  0.401117  0.749710  0.499856  1
  O  O66  1  0.599275  0.749725  0.499875  1
  O  O67  1  0.251725  0.482833  0.486173  1
  O  O68  1  0.748660  0.482659  0.486238  1
  O  O69  1  0.245419  0.982716  0.483504  1
  O  O70  1  0.755014  0.982544  0.483540  1
  O  O71  1  0.251264  0.997499  0.570208  1
  O  O72  1  0.749104  0.997367  0.570269  1
  O  O73  1  0.252017  0.497715  0.568933  1
  O  O74  1  0.748425  0.497582  0.568971  1
  Si  Si75  1  0.611574  0.754785  0.173102  1
  Si  Si76  1  0.388472  0.754805  0.173096  1
  Si  Si77  1  0.888463  0.759123  0.386893  1
  Si  Si78  1  0.388502  0.254806  0.139662  1
  Si  Si79  1  0.111578  0.759154  0.386887  1
  Si  Si80  1  0.611604  0.254786  0.139667  1
  Si  Si81  1  0.499970  0.274579  0.292488  1
  Si  Si82  1  0.000000  0.221948  0.267572  1
  Si  Si83  1  0.786641  0.250939  0.251636  1
  Si  Si84  1  0.213275  0.251195  0.251618  1
  Si  Si85  1  0.713247  0.243969  0.308468  1
  Si  Si86  1  0.286679  0.243884  0.308450  1
  Si  Si87  1  0.499956  0.774652  0.258904  1
  Si  Si88  1  0.000000  0.721178  0.301149  1
  Si  Si89  1  0.693093  0.750330  0.228648  1
  Si  Si90  1  0.306841  0.750590  0.228634  1
  Si  Si91  1  0.806757  0.743594  0.331395  1
  Si  Si92  1  0.193187  0.743509  0.331381  1
  Si  Si93  1  0.111606  0.259153  0.420330  1
  Si  Si94  1  0.611574  0.754785  0.667559  1
  Si  Si95  1  0.888490  0.259124  0.420336  1
  Si  Si96  1  0.388472  0.754805  0.667554  1
  Si  Si97  1  0.388502  0.254806  0.634119  1
  Si  Si98  1  0.611604  0.254786  0.634124  1
  Si  Si99  1  0.000000  0.721268  0.539648  1
  Si  Si100  1  0.500176  0.773835  0.514736  1
  Si  Si101  1  0.286909  0.743537  0.498741  1
  Si  Si102  1  0.713486  0.743472  0.498785  1
  Si  Si103  1  0.213512  0.750439  0.555573  1
  Si  Si104  1  0.786881  0.750413  0.555617  1
  Si  Si105  1  0.000000  0.220488  0.506073  1
  Si  Si106  1  0.500198  0.273897  0.548321  1
  Si  Si107  1  0.193385  0.243152  0.475820  1
  Si  Si108  1  0.806958  0.243081  0.475848  1
  Si  Si109  1  0.307042  0.249814  0.578568  1
  Si  Si110  1  0.693305  0.249783  0.578595  1
  H  H111  1  0.329587  0.257417  0.096391  1
  H  H112  1  0.670581  0.257539  0.096407  1
  H  H113  1  0.670497  0.757674  0.710827  1
  H  H114  1  0.329516  0.757531  0.710816  1
