# generated using pymatgen
data_Si34H2O69
_symmetry_space_group_name_H-M   'P 1'
_cell_length_a   13.80974137
_cell_length_b   5.09810601
_cell_length_c   77.52065244
_cell_angle_alpha   90.00000000
_cell_angle_beta   90.00000000
_cell_angle_gamma   90.00000000
_symmetry_Int_Tables_number   1
_chemical_formula_structural   Si34H2O69
_chemical_formula_sum   'Si68 H4 O138'
_cell_volume   5457.72722891
_cell_formula_units_Z   2
loop_
 _symmetry_equiv_pos_site_id
 _symmetry_equiv_pos_as_xyz
  1  'x, y, z'
loop_
 _atom_site_type_symbol
 _atom_site_label
 _atom_site_symmetry_multiplicity
 _atom_site_fract_x
 _atom_site_fract_y
 _atom_site_fract_z
 _atom_site_occupancy
  O  O1  1  0.500021  0.755817  0.119852  1
  O  O2  1  0.000000  0.759033  0.254847  1
  O  O3  1  0.500056  0.255875  0.089430  1
  O  O4  1  0.592930  0.745218  0.162139  1
  O  O5  1  0.406962  0.745283  0.162143  1
  O  O6  1  0.906979  0.748557  0.212625  1
  O  O7  1  0.092933  0.748539  0.212627  1
  O  O8  1  0.499981  0.051297  0.181853  1
  O  O9  1  0.499967  0.549736  0.186834  1
  O  O10  1  -0.000000  0.444701  0.192915  1
  O  O11  1  0.000000  0.946790  0.187944  1
  O  O12  1  0.631765  0.502827  0.104834  1
  O  O13  1  0.368308  0.502941  0.104820  1
  O  O14  1  0.131756  0.508137  0.269973  1
  O  O15  1  0.631748  0.002828  0.104454  1
  O  O16  1  0.868311  0.508050  0.269973  1
  O  O17  1  0.368325  0.002941  0.104458  1
  O  O18  1  0.670497  0.757674  0.133172  1
  O  O19  1  0.329516  0.757531  0.133165  1
  O  O20  1  0.829262  0.760184  0.241562  1
  O  O21  1  0.329587  0.257417  0.076109  1
  O  O22  1  0.170749  0.760156  0.241555  1
  O  O23  1  0.670581  0.257539  0.076120  1
  O  O24  1  0.749819  0.260080  0.187393  1
  O  O25  1  0.250142  0.260070  0.187379  1
  O  O26  1  0.599040  0.250371  0.205668  1
  O  O27  1  0.400886  0.250345  0.205663  1
  O  O28  1  0.900803  0.248395  0.169148  1
  O  O29  1  0.099117  0.248368  0.169142  1
  O  O30  1  0.748166  0.998255  0.159429  1
  O  O31  1  0.251854  0.998825  0.159392  1
  O  O32  1  0.748863  0.498038  0.158596  1
  O  O33  1  0.250933  0.498598  0.158601  1
  O  O34  1  0.754790  0.483120  0.216598  1
  O  O35  1  0.245104  0.482970  0.216588  1
  O  O36  1  0.748391  0.983248  0.214823  1
  O  O37  1  0.251552  0.983096  0.214804  1
  O  O38  1  0.000000  0.259113  0.285298  1
  O  O39  1  0.500021  0.755817  0.450713  1
  O  O40  1  -0.000000  0.759033  0.585708  1
  O  O41  1  0.500056  0.255875  0.420291  1
  O  O42  1  0.093190  0.247920  0.327524  1
  O  O43  1  0.592930  0.745218  0.493000  1
  O  O44  1  0.907245  0.247845  0.327511  1
  O  O45  1  0.406962  0.745283  0.493004  1
  O  O46  1  0.906979  0.748557  0.543486  1
  O  O47  1  0.407231  0.244518  0.378010  1
  O  O48  1  0.092933  0.748539  0.543487  1
  O  O49  1  0.593200  0.244502  0.377999  1
  O  O50  1  0.000000  0.446076  0.352202  1
  O  O51  1  0.499981  0.051297  0.512714  1
  O  O52  1  0.000000  0.943979  0.347225  1
  O  O53  1  0.499967  0.549736  0.517695  1
  O  O54  1  -0.000000  0.444701  0.523776  1
  O  O55  1  0.500158  0.048962  0.353314  1
  O  O56  1  -0.000000  0.946790  0.518805  1
  O  O57  1  0.500165  0.550519  0.358289  1
  O  O58  1  0.131731  0.008137  0.270166  1
  O  O59  1  0.631765  0.502827  0.435694  1
  O  O60  1  0.868334  0.008050  0.270177  1
  O  O61  1  0.368308  0.502941  0.435680  1
  O  O62  1  0.131756  0.508137  0.600833  1
  O  O63  1  0.631748  0.002828  0.435315  1
  O  O64  1  0.868311  0.508050  0.600834  1
  O  O65  1  0.368325  0.002941  0.435318  1
  O  O66  1  0.170822  0.259954  0.298580  1
  O  O67  1  0.670497  0.757674  0.464033  1
  O  O68  1  0.829334  0.260026  0.298592  1
  O  O69  1  0.329516  0.757531  0.464025  1
  O  O70  1  0.829262  0.760184  0.572423  1
  O  O71  1  0.329587  0.257417  0.406969  1
  O  O72  1  0.170749  0.760156  0.572415  1
  O  O73  1  0.670581  0.257539  0.406980  1
  O  O74  1  0.250315  0.759768  0.352741  1
  O  O75  1  0.749819  0.260080  0.518254  1
  O  O76  1  0.750003  0.759833  0.352775  1
  O  O77  1  0.250142  0.260070  0.518239  1
  O  O78  1  0.099350  0.747751  0.370991  1
  O  O79  1  0.599040  0.250371  0.536529  1
  O  O80  1  0.901040  0.747835  0.371004  1
  O  O81  1  0.400886  0.250345  0.536523  1
  O  O82  1  0.900803  0.248395  0.500009  1
  O  O83  1  0.401117  0.749710  0.334473  1
  O  O84  1  0.099117  0.248368  0.500003  1
  O  O85  1  0.599275  0.749725  0.334486  1
  O  O86  1  0.251725  0.482833  0.325317  1
  O  O87  1  0.748166  0.998255  0.490290  1
  O  O88  1  0.748660  0.482659  0.325361  1
  O  O89  1  0.251854  0.998825  0.490252  1
  O  O90  1  0.245419  0.982716  0.323531  1
  O  O91  1  0.748863  0.498038  0.489456  1
  O  O92  1  0.755014  0.982544  0.323556  1
  O  O93  1  0.250933  0.498598  0.489462  1
  O  O94  1  0.754790  0.483120  0.547459  1
  O  O95  1  0.251264  0.997499  0.381549  1
  O  O96  1  0.245104  0.482970  0.547448  1
  O  O97  1  0.749104  0.997367  0.381589  1
  O  O98  1  0.748391  0.983248  0.545684  1
  O  O99  1  0.252017  0.497715  0.380695  1
  O  O100  1  0.251552  0.983096  0.545664  1
  O  O101  1  0.748425  0.497582  0.380721  1
  O  O102  1  -0.000000  0.259113  0.616158  1
  O  O103  1  0.500021  0.755817  0.781573  1
  O  O104  1  0.500056  0.255875  0.751152  1
  O  O105  1  0.093190  0.247920  0.658384  1
  O  O106  1  0.907245  0.247845  0.658372  1
  O  O107  1  0.407231  0.244518  0.708870  1
  O  O108  1  0.593200  0.244502  0.708860  1
  O  O109  1  -0.000000  0.446076  0.683063  1
  O  O110  1  0.000000  0.943979  0.678085  1
  O  O111  1  0.500158  0.048962  0.684175  1
  O  O112  1  0.500165  0.550519  0.689150  1
  O  O113  1  0.131731  0.008137  0.601027  1
  O  O114  1  0.631765  0.502827  0.766555  1
  O  O115  1  0.868334  0.008050  0.601038  1
  O  O116  1  0.368308  0.502941  0.766541  1
  O  O117  1  0.631748  0.002828  0.766175  1
  O  O118  1  0.368325  0.002941  0.766179  1
  O  O119  1  0.170822  0.259954  0.629441  1
  O  O120  1  0.670497  0.757674  0.794893  1
  O  O121  1  0.829334  0.260026  0.629452  1
  O  O122  1  0.329516  0.757531  0.794886  1
  O  O123  1  0.329587  0.257417  0.737830  1
  O  O124  1  0.670581  0.257539  0.737841  1
  O  O125  1  0.250315  0.759768  0.683601  1
  O  O126  1  0.750003  0.759833  0.683636  1
  O  O127  1  0.099350  0.747751  0.701852  1
  O  O128  1  0.901040  0.747835  0.701865  1
  O  O129  1  0.401117  0.749710  0.665334  1
  O  O130  1  0.599275  0.749725  0.665347  1
  O  O131  1  0.251725  0.482833  0.656178  1
  O  O132  1  0.748660  0.482659  0.656222  1
  O  O133  1  0.245419  0.982716  0.654392  1
  O  O134  1  0.755014  0.982544  0.654417  1
  O  O135  1  0.251264  0.997499  0.712409  1
  O  O136  1  0.749104  0.997367  0.712450  1
  O  O137  1  0.252017  0.497715  0.711556  1
  O  O138  1  0.748425  0.497582  0.711581  1
  Si  Si139  1  0.611574  0.754785  0.115829  1
  Si  Si140  1  0.388472  0.754805  0.115826  1
  Si  Si141  1  0.888463  0.759123  0.258885  1
  Si  Si142  1  0.388502  0.254806  0.093453  1
  Si  Si143  1  0.111578  0.759154  0.258881  1
  Si  Si144  1  0.611604  0.254786  0.093457  1
  Si  Si145  1  0.499970  0.274579  0.195715  1
  Si  Si146  1  -0.000000  0.221948  0.179043  1
  Si  Si147  1  0.786641  0.250939  0.168380  1
  Si  Si148  1  0.213275  0.251195  0.168367  1
  Si  Si149  1  0.713247  0.243969  0.206408  1
  Si  Si150  1  0.286679  0.243884  0.206396  1
  Si  Si151  1  0.499956  0.774652  0.173243  1
  Si  Si152  1  -0.000000  0.721178  0.201511  1
  Si  Si153  1  0.693093  0.750330  0.152997  1
  Si  Si154  1  0.306841  0.750590  0.152988  1
  Si  Si155  1  0.806757  0.743594  0.221750  1
  Si  Si156  1  0.193187  0.743509  0.221740  1
  Si  Si157  1  0.111606  0.259153  0.281259  1
  Si  Si158  1  0.611574  0.754785  0.446690  1
  Si  Si159  1  0.888490  0.259124  0.281263  1
  Si  Si160  1  0.388472  0.754805  0.446686  1
  Si  Si161  1  0.888463  0.759123  0.589746  1
  Si  Si162  1  0.388502  0.254806  0.424314  1
  Si  Si163  1  0.111578  0.759154  0.589742  1
  Si  Si164  1  0.611604  0.254786  0.424317  1
  Si  Si165  1  0.000000  0.721268  0.361100  1
  Si  Si166  1  0.499970  0.274579  0.526576  1
  Si  Si167  1  -0.000000  0.221948  0.509904  1
  Si  Si168  1  0.500176  0.773835  0.344430  1
  Si  Si169  1  0.286909  0.743537  0.333727  1
  Si  Si170  1  0.786641  0.250939  0.499240  1
  Si  Si171  1  0.713486  0.743472  0.333757  1
  Si  Si172  1  0.213275  0.251195  0.499228  1
  Si  Si173  1  0.713247  0.243969  0.537269  1
  Si  Si174  1  0.213512  0.750439  0.371756  1
  Si  Si175  1  0.286679  0.243884  0.537256  1
  Si  Si176  1  0.786881  0.750413  0.371785  1
  Si  Si177  1  -0.000000  0.220488  0.338633  1
  Si  Si178  1  0.499956  0.774652  0.504104  1
  Si  Si179  1  0.000000  0.721178  0.532371  1
  Si  Si180  1  0.500198  0.273897  0.366903  1
  Si  Si181  1  0.193385  0.243152  0.318390  1
  Si  Si182  1  0.693093  0.750330  0.483858  1
  Si  Si183  1  0.806958  0.243081  0.318408  1
  Si  Si184  1  0.306841  0.750590  0.483849  1
  Si  Si185  1  0.806757  0.743594  0.552610  1
  Si  Si186  1  0.307042  0.249814  0.387142  1
  Si  Si187  1  0.193187  0.743509  0.552601  1
  Si  Si188  1  0.693305  0.249783  0.387160  1
  Si  Si189  1  0.111606  0.259153  0.612120  1
  Si  Si190  1  0.611574  0.754785  0.777551  1
  Si  Si191  1  0.888490  0.259124  0.612124  1
  Si  Si192  1  0.388472  0.754805  0.777547  1
  Si  Si193  1  0.388502  0.254806  0.755175  1
  Si  Si194  1  0.611604  0.254786  0.755178  1
  Si  Si195  1  -0.000000  0.721268  0.691961  1
  Si  Si196  1  0.500176  0.773835  0.675291  1
  Si  Si197  1  0.286909  0.743537  0.664588  1
  Si  Si198  1  0.713486  0.743472  0.664618  1
  Si  Si199  1  0.213512  0.750439  0.702616  1
  Si  Si200  1  0.786881  0.750413  0.702646  1
  Si  Si201  1  0.000000  0.220488  0.669494  1
  Si  Si202  1  0.500198  0.273897  0.697764  1
  Si  Si203  1  0.193385  0.243152  0.649250  1
  Si  Si204  1  0.806958  0.243081  0.649269  1
  Si  Si205  1  0.307042  0.249814  0.718003  1
  Si  Si206  1  0.693305  0.249783  0.718021  1
  H  H207  1  0.329587  0.257417  0.064499  1
  H  H208  1  0.670581  0.257539  0.064510  1
  H  H209  1  0.670497  0.757674  0.806503  1
  H  H210  1  0.329516  0.757531  0.806496  1
