# generated using pymatgen
data_Si22H6O47
_symmetry_space_group_name_H-M   'P 1'
_cell_length_a   15.01225698
_cell_length_b   16.36465187
_cell_length_c   56.55755130
_cell_angle_alpha   30.07656819
_cell_angle_beta   90.00000000
_cell_angle_gamma   90.00000000
_symmetry_Int_Tables_number   1
_chemical_formula_structural   Si22H6O47
_chemical_formula_sum   'Si88 H24 O188'
_cell_volume   6963.3312722
_cell_formula_units_Z   4
loop_
 _symmetry_equiv_pos_site_id
 _symmetry_equiv_pos_as_xyz
  1  'x, y, z'
loop_
 _atom_site_type_symbol
 _atom_site_label
 _atom_site_symmetry_multiplicity
 _atom_site_fract_x
 _atom_site_fract_y
 _atom_site_fract_z
 _atom_site_occupancy
  Si  Si1  1  0.561731  0.812652  0.265949  1
  Si  Si2  1  0.227395  0.410484  0.227729  1
  Si  Si3  1  0.103995  0.589692  0.266968  1
  Si  Si4  1  0.438023  0.220859  0.228233  1
  Si  Si5  1  0.060406  0.186573  0.233663  1
  Si  Si6  1  0.729027  0.588496  0.273027  1
  Si  Si7  1  0.394312  0.224408  0.327335  1
  Si  Si8  1  0.603983  0.410299  0.233308  1
  Si  Si9  1  0.937603  0.780603  0.270844  1
  Si  Si10  1  0.271974  0.810783  0.327702  1
  Si  Si11  1  0.585287  0.472122  0.332243  1
  Si  Si12  1  0.251677  0.465891  0.266596  1
  Si  Si13  1  0.918093  0.062890  0.234431  1
  Si  Si14  1  0.414646  0.936760  0.266352  1
  Si  Si15  1  0.751874  0.532191  0.234146  1
  Si  Si16  1  0.749747  0.836398  0.249797  1
  Si  Si17  1  0.415680  0.337788  0.248474  1
  Si  Si18  1  0.916733  0.663166  0.252497  1
  Si  Si19  1  0.249117  0.168121  0.248888  1
  Si  Si20  1  0.582061  0.168713  0.333050  1
  Si  Si21  1  0.561731  0.812652  0.432616  1
  Si  Si22  1  0.227395  0.410484  0.394396  1
  Si  Si23  1  0.894770  0.774817  0.339541  1
  Si  Si24  1  0.103995  0.589692  0.433635  1
  Si  Si25  1  0.438023  0.220859  0.394899  1
  Si  Si26  1  0.770162  0.189691  0.338331  1
  Si  Si27  1  0.060406  0.186573  0.400330  1
  Si  Si28  1  0.729027  0.588496  0.439694  1
  Si  Si29  1  0.394312  0.224408  0.494002  1
  Si  Si30  1  0.603983  0.410299  0.399975  1
  Si  Si31  1  0.937603  0.780603  0.437511  1
  Si  Si32  1  0.271974  0.810783  0.494368  1
  Si  Si33  1  0.585287  0.472122  0.498910  1
  Si  Si34  1  0.251677  0.465891  0.433263  1
  Si  Si35  1  0.918093  0.062890  0.401098  1
  Si  Si36  1  0.085034  0.528333  0.334410  1
  Si  Si37  1  0.414646  0.936760  0.433019  1
  Si  Si38  1  0.751874  0.532191  0.400812  1
  Si  Si39  1  0.749747  0.836398  0.416464  1
  Si  Si40  1  0.415680  0.337788  0.415140  1
  Si  Si41  1  0.083528  0.827906  0.334287  1
  Si  Si42  1  0.916733  0.663166  0.419163  1
  Si  Si43  1  0.249117  0.168121  0.415554  1
  Si  Si44  1  0.582061  0.168713  0.499716  1
  O  O45  1  0.663956  0.812102  0.271342  1
  O  O46  1  0.330186  0.441817  0.217501  1
  O  O47  1  0.002081  0.557598  0.273473  1
  O  O48  1  0.335418  0.249320  0.218178  1
  O  O49  1  0.163509  0.189726  0.227917  1
  O  O50  1  0.831204  0.557181  0.283819  1
  O  O51  1  0.497246  0.250577  0.323467  1
  O  O52  1  0.501550  0.441597  0.227394  1
  O  O53  1  0.835194  0.753809  0.280756  1
  O  O54  1  0.168932  0.806105  0.324186  1
  O  O55  1  0.772940  0.022692  0.200169  1
  O  O56  1  0.439752  0.226593  0.254445  1
  O  O57  1  0.106367  0.751408  0.211722  1
  O  O58  1  0.892060  0.767511  0.202766  1
  O  O59  1  0.225226  0.247460  0.253734  1
  O  O60  1  0.558697  0.981223  0.210698  1
  O  O61  1  0.273160  0.980775  0.298285  1
  O  O62  1  0.941660  0.781725  0.243333  1
  O  O63  1  0.605807  0.247158  0.288594  1
  O  O64  1  0.391931  0.231188  0.297721  1
  O  O65  1  0.725974  0.753633  0.245999  1
  O  O66  1  0.059125  0.015811  0.289402  1
  O  O67  1  0.549233  0.649247  0.292817  1
  O  O68  1  0.215865  0.406612  0.256595  1
  O  O69  1  0.882456  0.943331  0.284104  1
  O  O70  1  0.120431  0.588435  0.294646  1
  O  O71  1  0.451016  0.054546  0.256607  1
  O  O72  1  0.786211  0.353916  0.283667  1
  O  O73  1  0.048781  0.350772  0.207062  1
  O  O74  1  0.717396  0.591014  0.244460  1
  O  O75  1  0.380011  0.057664  0.216230  1
  O  O76  1  0.619781  0.412275  0.205411  1
  O  O77  1  0.953133  0.943831  0.244330  1
  O  O78  1  0.286368  0.644872  0.216609  1
  O  O79  1  0.494417  0.837993  0.280386  1
  O  O80  1  0.161932  0.524495  0.186465  1
  O  O81  1  0.829486  0.640182  0.198813  1
  O  O82  1  0.171188  0.479162  0.280802  1
  O  O83  1  0.505509  0.358528  0.186835  1
  O  O84  1  0.837499  0.161246  0.199503  1
  O  O85  1  0.995516  0.166259  0.217933  1
  O  O86  1  0.663151  0.475115  0.314052  1
  O  O87  1  0.329980  0.359956  0.301278  1
  O  O88  1  0.670929  0.520272  0.219733  1
  O  O89  1  0.004289  0.640700  0.312982  1
  O  O90  1  0.336715  0.833440  0.301239  1
  O  O91  1  0.663956  0.812102  0.438008  1
  O  O92  1  0.330186  0.441817  0.384167  1
  O  O93  1  0.997782  0.746366  0.344137  1
  O  O94  1  0.002081  0.557598  0.440140  1
  O  O95  1  0.335418  0.249320  0.384845  1
  O  O96  1  0.667885  0.192408  0.342579  1
  O  O97  1  0.163509  0.189726  0.394585  1
  O  O98  1  0.831204  0.557181  0.450486  1
  O  O99  1  0.497246  0.250577  0.490134  1
  O  O100  1  0.501550  0.441597  0.394061  1
  O  O101  1  0.835194  0.753809  0.447423  1
  O  O102  1  0.168932  0.806105  0.490853  1
  O  O103  1  0.772940  0.022692  0.366836  1
  O  O104  1  0.439752  0.226593  0.421112  1
  O  O105  1  0.106367  0.751408  0.378388  1
  O  O106  1  0.892060  0.767511  0.369432  1
  O  O107  1  0.225226  0.247460  0.420400  1
  O  O108  1  0.558697  0.981223  0.377365  1
  O  O109  1  0.273160  0.980775  0.464952  1
  O  O110  1  0.941660  0.781725  0.410000  1
  O  O111  1  0.605807  0.247158  0.455261  1
  O  O112  1  0.391931  0.231188  0.464388  1
  O  O113  1  0.725974  0.753633  0.412666  1
  O  O114  1  0.059125  0.015811  0.456069  1
  O  O115  1  0.549233  0.649247  0.459484  1
  O  O116  1  0.215865  0.406612  0.423261  1
  O  O117  1  0.882456  0.943331  0.450771  1
  O  O118  1  0.120431  0.588435  0.461313  1
  O  O119  1  0.451016  0.054546  0.423274  1
  O  O120  1  0.786211  0.353916  0.450333  1
  O  O121  1  0.048781  0.350772  0.373729  1
  O  O122  1  0.717396  0.591014  0.411127  1
  O  O123  1  0.380011  0.057664  0.382897  1
  O  O124  1  0.619781  0.412275  0.372078  1
  O  O125  1  0.953133  0.943831  0.410997  1
  O  O126  1  0.286368  0.644872  0.383275  1
  O  O127  1  0.494417  0.837993  0.447053  1
  O  O128  1  0.161932  0.524495  0.353131  1
  O  O129  1  0.829486  0.640182  0.365479  1
  O  O130  1  0.171188  0.479162  0.447469  1
  O  O131  1  0.505509  0.358528  0.353502  1
  O  O132  1  0.837499  0.161246  0.366169  1
  O  O133  1  0.995516  0.166259  0.384599  1
  O  O134  1  0.663151  0.475115  0.480719  1
  O  O135  1  0.329980  0.359956  0.467944  1
  O  O136  1  0.670929  0.520272  0.386400  1
  O  O137  1  0.004289  0.640700  0.479648  1
  O  O138  1  0.336715  0.833440  0.467906  1
  H  H139  1  0.772940  0.022692  0.184256  1
  H  H140  1  0.106367  0.751408  0.195809  1
  H  H141  1  0.892060  0.767511  0.186853  1
  H  H142  1  0.558697  0.981223  0.194785  1
  H  H143  1  0.048781  0.350772  0.191149  1
  H  H144  1  0.380011  0.057664  0.200317  1
  H  H145  1  0.619781  0.412275  0.189498  1
  H  H146  1  0.286368  0.644872  0.200696  1
  H  H147  1  0.161932  0.524495  0.170552  1
  H  H148  1  0.829486  0.640182  0.182900  1
  H  H149  1  0.505509  0.358528  0.170922  1
  H  H150  1  0.837499  0.161246  0.183590  1
  Si  Si151  1  0.561731  0.812652  0.599283  1
  Si  Si152  1  0.227395  0.410484  0.561063  1
  Si  Si153  1  0.894770  0.774817  0.506208  1
  Si  Si154  1  0.103995  0.589692  0.600302  1
  Si  Si155  1  0.438023  0.220859  0.561566  1
  Si  Si156  1  0.770162  0.189691  0.504998  1
  Si  Si157  1  0.060406  0.186573  0.566997  1
  Si  Si158  1  0.729027  0.588496  0.606361  1
  Si  Si159  1  0.394312  0.224408  0.660668  1
  Si  Si160  1  0.603983  0.410299  0.566642  1
  Si  Si161  1  0.937603  0.780603  0.604178  1
  Si  Si162  1  0.271974  0.810783  0.661035  1
  Si  Si163  1  0.585287  0.472122  0.665576  1
  Si  Si164  1  0.251677  0.465891  0.599929  1
  Si  Si165  1  0.918093  0.062890  0.567765  1
  Si  Si166  1  0.085034  0.528333  0.501077  1
  Si  Si167  1  0.414646  0.936760  0.599685  1
  Si  Si168  1  0.751874  0.532191  0.567479  1
  Si  Si169  1  0.749747  0.836398  0.583131  1
  Si  Si170  1  0.415680  0.337788  0.581808  1
  Si  Si171  1  0.083528  0.827906  0.500954  1
  Si  Si172  1  0.916733  0.663166  0.585831  1
  Si  Si173  1  0.249117  0.168121  0.582221  1
  Si  Si174  1  0.582061  0.168713  0.666384  1
  Si  Si175  1  0.561731  0.812652  0.765949  1
  Si  Si176  1  0.227395  0.410484  0.727729  1
  Si  Si177  1  0.894770  0.774817  0.672874  1
  Si  Si178  1  0.103995  0.589692  0.766968  1
  Si  Si179  1  0.438023  0.220859  0.728233  1
  Si  Si180  1  0.770162  0.189691  0.671664  1
  Si  Si181  1  0.060406  0.186573  0.733663  1
  Si  Si182  1  0.729027  0.588496  0.773027  1
  Si  Si183  1  0.603983  0.410299  0.733308  1
  Si  Si184  1  0.937603  0.780603  0.770844  1
  Si  Si185  1  0.251677  0.465891  0.766596  1
  Si  Si186  1  0.918093  0.062890  0.734432  1
  Si  Si187  1  0.085034  0.528333  0.667744  1
  Si  Si188  1  0.414646  0.936760  0.766352  1
  Si  Si189  1  0.751874  0.532191  0.734146  1
  Si  Si190  1  0.749747  0.836398  0.749797  1
  Si  Si191  1  0.415680  0.337788  0.748474  1
  Si  Si192  1  0.083528  0.827906  0.667621  1
  Si  Si193  1  0.916733  0.663166  0.752497  1
  Si  Si194  1  0.249117  0.168121  0.748887  1
  O  O195  1  0.663956  0.812102  0.604675  1
  O  O196  1  0.330186  0.441817  0.550834  1
  O  O197  1  0.997782  0.746366  0.510803  1
  O  O198  1  0.002081  0.557598  0.606806  1
  O  O199  1  0.335418  0.249320  0.551512  1
  O  O200  1  0.667885  0.192408  0.509246  1
  O  O201  1  0.163509  0.189726  0.561251  1
  O  O202  1  0.831204  0.557181  0.617152  1
  O  O203  1  0.497246  0.250577  0.656800  1
  O  O204  1  0.501550  0.441597  0.560728  1
  O  O205  1  0.835194  0.753809  0.614089  1
  O  O206  1  0.168932  0.806105  0.657520  1
  O  O207  1  0.772940  0.022692  0.533502  1
  O  O208  1  0.439752  0.226593  0.587778  1
  O  O209  1  0.106367  0.751408  0.545056  1
  O  O210  1  0.892060  0.767511  0.536099  1
  O  O211  1  0.225226  0.247460  0.587067  1
  O  O212  1  0.558697  0.981223  0.544032  1
  O  O213  1  0.273160  0.980775  0.631619  1
  O  O214  1  0.941660  0.781725  0.576666  1
  O  O215  1  0.605807  0.247158  0.621928  1
  O  O216  1  0.391931  0.231188  0.631055  1
  O  O217  1  0.725974  0.753633  0.579332  1
  O  O218  1  0.059125  0.015811  0.622735  1
  O  O219  1  0.549233  0.649247  0.626150  1
  O  O220  1  0.215865  0.406612  0.589928  1
  O  O221  1  0.882456  0.943331  0.617437  1
  O  O222  1  0.120431  0.588435  0.627979  1
  O  O223  1  0.451016  0.054546  0.589940  1
  O  O224  1  0.786211  0.353916  0.617000  1
  O  O225  1  0.048781  0.350772  0.540396  1
  O  O226  1  0.717396  0.591014  0.577794  1
  O  O227  1  0.380011  0.057664  0.549563  1
  O  O228  1  0.619781  0.412275  0.538744  1
  O  O229  1  0.953133  0.943831  0.577664  1
  O  O230  1  0.286368  0.644872  0.549943  1
  O  O231  1  0.494417  0.837993  0.613719  1
  O  O232  1  0.161932  0.524495  0.519798  1
  O  O233  1  0.829486  0.640182  0.532146  1
  O  O234  1  0.171188  0.479162  0.614136  1
  O  O235  1  0.505509  0.358528  0.520169  1
  O  O236  1  0.837499  0.161246  0.532837  1
  O  O237  1  0.995516  0.166259  0.551266  1
  O  O238  1  0.663151  0.475115  0.647386  1
  O  O239  1  0.329980  0.359956  0.634611  1
  O  O240  1  0.670929  0.520272  0.553066  1
  O  O241  1  0.004289  0.640700  0.646315  1
  O  O242  1  0.336715  0.833440  0.634572  1
  O  O243  1  0.663956  0.812102  0.771342  1
  O  O244  1  0.330186  0.441817  0.717500  1
  O  O245  1  0.997782  0.746366  0.677470  1
  O  O246  1  0.002081  0.557598  0.773473  1
  O  O247  1  0.335418  0.249320  0.718179  1
  O  O248  1  0.667885  0.192408  0.675913  1
  O  O249  1  0.163509  0.189726  0.727917  1
  O  O250  1  0.831204  0.557181  0.783819  1
  O  O251  1  0.501550  0.441597  0.727394  1
  O  O252  1  0.835194  0.753809  0.780756  1
  O  O253  1  0.772940  0.022692  0.700169  1
  O  O254  1  0.439752  0.226593  0.754444  1
  O  O255  1  0.106367  0.751408  0.711722  1
  O  O256  1  0.892060  0.767511  0.702766  1
  O  O257  1  0.225226  0.247460  0.753734  1
  O  O258  1  0.558697  0.981223  0.710698  1
  O  O259  1  0.273160  0.980775  0.798285  1
  O  O260  1  0.941660  0.781725  0.743333  1
  O  O261  1  0.605807  0.247158  0.788594  1
  O  O262  1  0.391931  0.231188  0.797721  1
  O  O263  1  0.725974  0.753633  0.745999  1
  O  O264  1  0.059125  0.015811  0.789402  1
  O  O265  1  0.549233  0.649247  0.792817  1
  O  O266  1  0.215865  0.406612  0.756595  1
  O  O267  1  0.882456  0.943331  0.784104  1
  O  O268  1  0.120431  0.588435  0.794646  1
  O  O269  1  0.451016  0.054546  0.756607  1
  O  O270  1  0.786211  0.353916  0.783667  1
  O  O271  1  0.048781  0.350772  0.707063  1
  O  O272  1  0.717396  0.591014  0.744460  1
  O  O273  1  0.380011  0.057664  0.716230  1
  O  O274  1  0.619781  0.412275  0.705412  1
  O  O275  1  0.953133  0.943831  0.744331  1
  O  O276  1  0.286368  0.644872  0.716609  1
  O  O277  1  0.494417  0.837993  0.780386  1
  O  O278  1  0.161932  0.524495  0.686465  1
  O  O279  1  0.829486  0.640182  0.698813  1
  O  O280  1  0.171188  0.479162  0.780802  1
  O  O281  1  0.505509  0.358528  0.686835  1
  O  O282  1  0.837499  0.161246  0.699503  1
  O  O283  1  0.995516  0.166259  0.717933  1
  O  O284  1  0.663151  0.475115  0.814053  1
  O  O285  1  0.329980  0.359956  0.801278  1
  O  O286  1  0.670929  0.520272  0.719733  1
  O  O287  1  0.004289  0.640700  0.812982  1
  O  O288  1  0.336715  0.833440  0.801239  1
  H  H289  1  0.273160  0.980775  0.814198  1
  H  H290  1  0.605807  0.247158  0.804507  1
  H  H291  1  0.391931  0.231188  0.813635  1
  H  H292  1  0.059125  0.015811  0.805315  1
  H  H293  1  0.549233  0.649247  0.808730  1
  H  H294  1  0.882456  0.943331  0.800017  1
  H  H295  1  0.120431  0.588435  0.810559  1
  H  H296  1  0.786211  0.353916  0.799580  1
  H  H297  1  0.663151  0.475115  0.829966  1
  H  H298  1  0.329980  0.359956  0.817191  1
  H  H299  1  0.004289  0.640700  0.828895  1
  H  H300  1  0.336715  0.833440  0.817152  1
