# generated using pymatgen
data_Si18H2O37
_symmetry_space_group_name_H-M   'P 1'
_cell_length_a   5.07185669
_cell_length_b   13.91779927
_cell_length_c   46.68520118
_cell_angle_alpha   90.00000000
_cell_angle_beta   90.00000000
_cell_angle_gamma   90.00000000
_symmetry_Int_Tables_number   1
_chemical_formula_structural   Si18H2O37
_chemical_formula_sum   'Si36 H4 O74'
_cell_volume   3295.4655567
_cell_formula_units_Z   2
loop_
 _symmetry_equiv_pos_site_id
 _symmetry_equiv_pos_as_xyz
  1  'x, y, z'
loop_
 _atom_site_type_symbol
 _atom_site_label
 _atom_site_symmetry_multiplicity
 _atom_site_fract_x
 _atom_site_fract_y
 _atom_site_fract_z
 _atom_site_occupancy
  O  O1  1  0.990821  0.826327  0.256012  1
  O  O2  1  0.491976  0.325898  0.256760  1
  O  O3  1  0.005620  0.826342  0.352035  1
  O  O4  1  0.502646  0.325771  0.351423  1
  O  O5  1  0.991768  0.173667  0.174346  1
  O  O6  1  0.491135  0.674048  0.173808  1
  O  O7  1  0.216623  0.247666  0.389651  1
  O  O8  1  0.293649  0.748309  0.390019  1
  O  O9  1  0.284166  0.749592  0.218082  1
  O  O10  1  0.707862  0.253456  0.212542  1
  O  O11  1  0.784143  0.750280  0.211872  1
  O  O12  1  0.207765  0.247419  0.218319  1
  O  O13  1  -0.000000  0.639993  0.248061  1
  O  O14  1  0.498021  0.139751  0.248156  1
  O  O15  1  0.007515  0.639769  0.359915  1
  O  O16  1  0.506625  0.139533  0.359868  1
  O  O17  1  -0.000000  0.360009  0.182365  1
  O  O18  1  0.497102  0.860393  0.182100  1
  O  O19  1  0.733008  0.981027  0.262729  1
  O  O20  1  0.232940  0.480849  0.263920  1
  O  O21  1  0.227887  0.986279  0.259746  1
  O  O22  1  0.727139  0.486611  0.257878  1
  O  O23  1  0.273070  0.979775  0.345576  1
  O  O24  1  0.730438  0.487590  0.349899  1
  O  O25  1  0.778222  0.987420  0.348142  1
  O  O26  1  0.236108  0.479403  0.344436  1
  O  O27  1  0.220017  0.012224  0.171147  1
  O  O28  1  0.730695  0.513913  0.172271  1
  O  O29  1  0.725131  0.020691  0.167313  1
  O  O30  1  0.236485  0.518527  0.166540  1
  O  O31  1  0.005756  0.085478  0.126414  1
  O  O32  1  0.531982  0.582569  0.126378  1
  O  O33  1  0.003456  0.914243  0.304028  1
  O  O34  1  0.531730  0.418235  0.304022  1
  O  O35  1  0.507299  0.000000  0.215191  1
  O  O36  1  0.029949  0.500080  0.215186  1
  O  O37  1  0.006484  0.173361  0.433751  1
  O  O38  1  0.501796  0.673613  0.434219  1
  O  O39  1  0.990821  0.826327  0.611405  1
  O  O40  1  0.491976  0.325898  0.612153  1
  O  O41  1  0.991768  0.173667  0.529739  1
  O  O42  1  0.491135  0.674048  0.529201  1
  O  O43  1  0.793465  0.750514  0.396026  1
  O  O44  1  0.716843  0.252160  0.395695  1
  O  O45  1  0.284166  0.749592  0.573475  1
  O  O46  1  0.707862  0.253456  0.567935  1
  O  O47  1  0.784143  0.750280  0.567265  1
  O  O48  1  0.207765  0.247419  0.573712  1
  O  O49  1  0.008295  0.359706  0.425693  1
  O  O50  1  0.506357  0.859948  0.425824  1
  O  O51  1  0.000000  0.639993  0.603454  1
  O  O52  1  0.498021  0.139751  0.603549  1
  O  O53  1  -0.000000  0.360009  0.537758  1
  O  O54  1  0.497102  0.860393  0.537493  1
  O  O55  1  0.767057  0.014347  0.438335  1
  O  O56  1  0.240417  0.519184  0.441292  1
  O  O57  1  0.261859  0.017433  0.439666  1
  O  O58  1  0.734866  0.512455  0.436227  1
  O  O59  1  0.733008  0.981027  0.618122  1
  O  O60  1  0.232940  0.480849  0.619313  1
  O  O61  1  0.227887  0.986279  0.615139  1
  O  O62  1  0.727139  0.486611  0.613271  1
  O  O63  1  0.220017  0.012224  0.526540  1
  O  O64  1  0.730695  0.513913  0.527664  1
  O  O65  1  0.725131  0.020691  0.522706  1
  O  O66  1  0.236485  0.518527  0.521933  1
  O  O67  1  0.005756  0.085478  0.481807  1
  O  O68  1  0.531982  0.582569  0.481771  1
  O  O69  1  0.003456  0.914243  0.659421  1
  O  O70  1  0.531730  0.418235  0.659415  1
  O  O71  1  0.500884  0.000000  0.392903  1
  O  O72  1  0.029550  0.500022  0.392917  1
  O  O73  1  0.507299  0.000000  0.570584  1
  O  O74  1  0.029949  0.500080  0.570579  1
  Si  Si75  1  0.014142  0.742585  0.233929  1
  Si  Si76  1  0.477113  0.242679  0.234374  1
  Si  Si77  1  0.024142  0.742300  0.374067  1
  Si  Si78  1  0.486532  0.242348  0.373740  1
  Si  Si79  1  0.977201  0.257562  0.196459  1
  Si  Si80  1  0.514031  0.757561  0.196028  1
  Si  Si81  1  0.989979  0.926572  0.270950  1
  Si  Si82  1  0.495953  0.427496  0.270982  1
  Si  Si83  1  0.014752  0.926582  0.337116  1
  Si  Si84  1  0.500074  0.427249  0.337117  1
  Si  Si85  1  0.986320  0.073308  0.159472  1
  Si  Si86  1  0.497906  0.572726  0.159419  1
  Si  Si87  1  0.490741  0.026701  0.247463  1
  Si  Si88  1  0.996858  0.526888  0.247376  1
  Si  Si89  1  0.514917  0.026571  0.360628  1
  Si  Si90  1  -0.000000  0.526687  0.360692  1
  Si  Si91  1  0.486682  0.973365  0.182924  1
  Si  Si92  1  0.000000  0.473132  0.182984  1
  Si  Si93  1  0.986935  0.257143  0.411640  1
  Si  Si94  1  0.523767  0.757045  0.411977  1
  Si  Si95  1  0.014142  0.742585  0.589322  1
  Si  Si96  1  0.477113  0.242679  0.589767  1
  Si  Si97  1  0.977201  0.257562  0.551852  1
  Si  Si98  1  0.514031  0.757561  0.551421  1
  Si  Si99  1  0.009607  0.073159  0.448696  1
  Si  Si100  1  0.502451  0.572423  0.448687  1
  Si  Si101  1  0.989979  0.926572  0.626343  1
  Si  Si102  1  0.495953  0.427496  0.626375  1
  Si  Si103  1  0.986320  0.073308  0.514865  1
  Si  Si104  1  0.497906  0.572726  0.514812  1
  Si  Si105  1  0.509394  0.972966  0.425167  1
  Si  Si106  1  0.003164  0.472803  0.425124  1
  Si  Si107  1  0.490741  0.026701  0.602856  1
  Si  Si108  1  0.996858  0.526888  0.602769  1
  Si  Si109  1  0.486682  0.973365  0.538317  1
  Si  Si110  1  -0.000000  0.473132  0.538377  1
  H  H111  1  0.005756  0.085478  0.107136  1
  H  H112  1  0.531982  0.582569  0.107100  1
  H  H113  1  0.003456  0.914243  0.678699  1
  H  H114  1  0.531730  0.418235  0.678693  1
