# generated using pymatgen
data_Si54H2O109
_symmetry_space_group_name_H-M   'P 1'
_cell_length_a   15.61262590
_cell_length_b   7.47100763
_cell_length_c   72.10186034
_cell_angle_alpha   90.00000000
_cell_angle_beta   90.00000000
_cell_angle_gamma   96.07000000
_symmetry_Int_Tables_number   1
_chemical_formula_structural   Si54H2O109
_chemical_formula_sum   'Si108 H4 O218'
_cell_volume   8362.95688383
_cell_formula_units_Z   2
loop_
 _symmetry_equiv_pos_site_id
 _symmetry_equiv_pos_as_xyz
  1  'x, y, z'
loop_
 _atom_site_type_symbol
 _atom_site_label
 _atom_site_symmetry_multiplicity
 _atom_site_fract_x
 _atom_site_fract_y
 _atom_site_fract_z
 _atom_site_occupancy
  O  O1  1  0.966725  0.655753  0.142948  1
  O  O2  1  0.466707  0.655767  0.259223  1
  O  O3  1  0.033136  0.343896  0.142948  1
  O  O4  1  0.533118  0.343909  0.259223  1
  O  O5  1  0.033118  0.343909  0.253259  1
  O  O6  1  0.533132  0.343900  0.136984  1
  O  O7  1  0.966710  0.655763  0.253259  1
  O  O8  1  0.466725  0.655753  0.136984  1
  O  O9  1  0.419530  0.411793  0.235230  1
  O  O10  1  0.919552  0.411786  0.118954  1
  O  O11  1  0.580290  0.587877  0.235229  1
  O  O12  1  0.080312  0.587870  0.118955  1
  O  O13  1  0.580312  0.587869  0.160978  1
  O  O14  1  0.080290  0.587877  0.277254  1
  O  O15  1  0.419552  0.411786  0.160979  1
  O  O16  1  0.919530  0.411793  0.277253  1
  O  O17  1  0.730444  0.793307  0.173581  1
  O  O18  1  0.230425  0.793303  0.289859  1
  O  O19  1  0.269417  0.206359  0.173584  1
  O  O20  1  0.769398  0.206356  0.289856  1
  O  O21  1  0.269398  0.206356  0.222626  1
  O  O22  1  0.769417  0.206359  0.106349  1
  O  O23  1  0.730425  0.793304  0.222624  1
  O  O24  1  0.230444  0.793307  0.106351  1
  O  O25  1  0.722391  0.451994  0.164518  1
  O  O26  1  0.222367  0.451992  0.280795  1
  O  O27  1  0.277476  0.547670  0.164520  1
  O  O28  1  0.777451  0.547668  0.280793  1
  O  O29  1  0.277451  0.547669  0.231689  1
  O  O30  1  0.777476  0.547670  0.115412  1
  O  O31  1  0.722367  0.451992  0.231687  1
  O  O32  1  0.222391  0.451994  0.115414  1
  O  O33  1  0.704559  0.699177  0.140961  1
  O  O34  1  0.204538  0.699181  0.257239  1
  O  O35  1  0.295304  0.300481  0.140964  1
  O  O36  1  0.795284  0.300485  0.257236  1
  O  O37  1  0.295284  0.300485  0.255246  1
  O  O38  1  0.795304  0.300481  0.138969  1
  O  O39  1  0.704538  0.699181  0.255244  1
  O  O40  1  0.204558  0.699177  0.138971  1
  O  O41  1  0.349986  0.831222  0.246734  1
  O  O42  1  0.850008  0.831220  0.130458  1
  O  O43  1  0.649834  0.168443  0.246733  1
  O  O44  1  0.149856  0.168440  0.130459  1
  O  O45  1  0.649859  0.168435  0.149474  1
  O  O46  1  0.149834  0.168443  0.265749  1
  O  O47  1  0.350008  0.831219  0.149474  1
  O  O48  1  0.849983  0.831228  0.265749  1
  O  O49  1  0.885204  0.881439  0.164022  1
  O  O50  1  0.385183  0.881446  0.280297  1
  O  O51  1  0.114659  0.118216  0.164022  1
  O  O52  1  0.614638  0.118223  0.280297  1
  O  O53  1  0.114638  0.118223  0.232186  1
  O  O54  1  0.614659  0.118216  0.115911  1
  O  O55  1  0.885183  0.881446  0.232186  1
  O  O56  1  0.385204  0.881439  0.115911  1
  O  O57  1  0.000000  0.000000  0.140181  1
  O  O58  1  0.499910  0.000000  0.256456  1
  O  O59  1  -0.000000  0.000000  0.256026  1
  O  O60  1  0.499933  0.000000  0.139751  1
  O  O61  1  0.783675  0.126579  0.169908  1
  O  O62  1  0.283650  0.126578  0.286184  1
  O  O63  1  0.216192  0.873085  0.169909  1
  O  O64  1  0.716167  0.873084  0.286183  1
  O  O65  1  0.216167  0.873084  0.226300  1
  O  O66  1  0.716192  0.873085  0.110023  1
  O  O67  1  0.783650  0.126578  0.226298  1
  O  O68  1  0.283675  0.126579  0.110025  1
  O  O69  1  0.833085  0.945711  0.198104  1
  O  O70  1  0.333086  0.945711  0.081829  1
  O  O71  1  0.166757  0.053952  0.198104  1
  O  O72  1  0.666757  0.053952  0.081829  1
  O  O73  1  0.966725  0.655753  0.375498  1
  O  O74  1  0.466707  0.655767  0.491773  1
  O  O75  1  0.033136  0.343896  0.375498  1
  O  O76  1  0.533118  0.343909  0.491773  1
  O  O77  1  0.033118  0.343909  0.485809  1
  O  O78  1  0.533132  0.343900  0.369534  1
  O  O79  1  0.966710  0.655763  0.485809  1
  O  O80  1  0.466725  0.655753  0.369534  1
  O  O81  1  0.419530  0.411793  0.467780  1
  O  O82  1  0.919552  0.411786  0.351504  1
  O  O83  1  0.580290  0.587877  0.467779  1
  O  O84  1  0.080312  0.587870  0.351505  1
  O  O85  1  0.580312  0.587869  0.393528  1
  O  O86  1  0.080290  0.587877  0.509804  1
  O  O87  1  0.419552  0.411786  0.393529  1
  O  O88  1  0.919530  0.411793  0.509803  1
  O  O89  1  0.730444  0.793307  0.406131  1
  O  O90  1  0.230425  0.793303  0.522409  1
  O  O91  1  0.269417  0.206359  0.406134  1
  O  O92  1  0.769398  0.206356  0.522406  1
  O  O93  1  0.269398  0.206356  0.455176  1
  O  O94  1  0.769417  0.206359  0.338899  1
  O  O95  1  0.730425  0.793304  0.455174  1
  O  O96  1  0.230444  0.793307  0.338901  1
  O  O97  1  0.722391  0.451994  0.397068  1
  O  O98  1  0.222367  0.451992  0.513345  1
  O  O99  1  0.277476  0.547670  0.397070  1
  O  O100  1  0.777451  0.547668  0.513343  1
  O  O101  1  0.277451  0.547669  0.464239  1
  O  O102  1  0.777476  0.547670  0.347962  1
  O  O103  1  0.722367  0.451992  0.464237  1
  O  O104  1  0.222391  0.451994  0.347964  1
  O  O105  1  0.704559  0.699177  0.373511  1
  O  O106  1  0.204538  0.699181  0.489789  1
  O  O107  1  0.295304  0.300481  0.373514  1
  O  O108  1  0.795284  0.300485  0.489786  1
  O  O109  1  0.295284  0.300485  0.487796  1
  O  O110  1  0.795304  0.300481  0.371519  1
  O  O111  1  0.704538  0.699181  0.487794  1
  O  O112  1  0.204558  0.699177  0.371521  1
  O  O113  1  0.349986  0.831222  0.479284  1
  O  O114  1  0.850008  0.831220  0.363008  1
  O  O115  1  0.649834  0.168443  0.479283  1
  O  O116  1  0.149856  0.168440  0.363009  1
  O  O117  1  0.649859  0.168435  0.382024  1
  O  O118  1  0.149834  0.168443  0.498299  1
  O  O119  1  0.350008  0.831219  0.382024  1
  O  O120  1  0.849983  0.831228  0.498299  1
  O  O121  1  0.885204  0.881439  0.396572  1
  O  O122  1  0.385183  0.881446  0.512847  1
  O  O123  1  0.114659  0.118216  0.396572  1
  O  O124  1  0.614638  0.118223  0.512847  1
  O  O125  1  0.114638  0.118223  0.464736  1
  O  O126  1  0.614659  0.118216  0.348461  1
  O  O127  1  0.885183  0.881446  0.464736  1
  O  O128  1  0.385204  0.881439  0.348461  1
  O  O129  1  -0.000000  0.000000  0.372731  1
  O  O130  1  0.499910  0.000000  0.489006  1
  O  O131  1  -0.000000  0.000000  0.488576  1
  O  O132  1  0.499933  0.000000  0.372301  1
  O  O133  1  0.783675  0.126579  0.402458  1
  O  O134  1  0.283650  0.126578  0.518734  1
  O  O135  1  0.216192  0.873085  0.402459  1
  O  O136  1  0.716167  0.873084  0.518733  1
  O  O137  1  0.216167  0.873084  0.458850  1
  O  O138  1  0.716192  0.873085  0.342573  1
  O  O139  1  0.783650  0.126578  0.458848  1
  O  O140  1  0.283675  0.126579  0.342575  1
  O  O141  1  0.833085  0.945711  0.430654  1
  O  O142  1  0.333086  0.945711  0.314379  1
  O  O143  1  0.166757  0.053952  0.430654  1
  O  O144  1  0.666757  0.053952  0.314379  1
  O  O145  1  0.966725  0.655753  0.608048  1
  O  O146  1  0.466707  0.655767  0.724323  1
  O  O147  1  0.033136  0.343896  0.608048  1
  O  O148  1  0.533118  0.343909  0.724323  1
  O  O149  1  0.033118  0.343909  0.718359  1
  O  O150  1  0.533132  0.343900  0.602084  1
  O  O151  1  0.966710  0.655763  0.718359  1
  O  O152  1  0.466725  0.655753  0.602084  1
  O  O153  1  0.419530  0.411793  0.700330  1
  O  O154  1  0.919552  0.411786  0.584054  1
  O  O155  1  0.580290  0.587877  0.700329  1
  O  O156  1  0.080312  0.587870  0.584055  1
  O  O157  1  0.580312  0.587869  0.626078  1
  O  O158  1  0.080290  0.587877  0.742354  1
  O  O159  1  0.419552  0.411786  0.626079  1
  O  O160  1  0.919530  0.411793  0.742353  1
  O  O161  1  0.730444  0.793307  0.638681  1
  O  O162  1  0.230425  0.793303  0.754959  1
  O  O163  1  0.269417  0.206359  0.638684  1
  O  O164  1  0.769398  0.206356  0.754956  1
  O  O165  1  0.269398  0.206356  0.687726  1
  O  O166  1  0.769417  0.206359  0.571449  1
  O  O167  1  0.730425  0.793304  0.687724  1
  O  O168  1  0.230444  0.793307  0.571451  1
  O  O169  1  0.722391  0.451994  0.629618  1
  O  O170  1  0.222367  0.451992  0.745895  1
  O  O171  1  0.277476  0.547670  0.629620  1
  O  O172  1  0.777451  0.547668  0.745893  1
  O  O173  1  0.277451  0.547669  0.696789  1
  O  O174  1  0.777476  0.547670  0.580512  1
  O  O175  1  0.722367  0.451992  0.696787  1
  O  O176  1  0.222391  0.451994  0.580514  1
  O  O177  1  0.704559  0.699177  0.606061  1
  O  O178  1  0.204538  0.699181  0.722339  1
  O  O179  1  0.295304  0.300481  0.606064  1
  O  O180  1  0.795284  0.300485  0.722336  1
  O  O181  1  0.295284  0.300485  0.720346  1
  O  O182  1  0.795304  0.300481  0.604069  1
  O  O183  1  0.704538  0.699181  0.720344  1
  O  O184  1  0.204558  0.699177  0.604071  1
  O  O185  1  0.349986  0.831222  0.711834  1
  O  O186  1  0.850008  0.831220  0.595558  1
  O  O187  1  0.649834  0.168443  0.711833  1
  O  O188  1  0.149856  0.168440  0.595559  1
  O  O189  1  0.649859  0.168435  0.614574  1
  O  O190  1  0.149834  0.168443  0.730849  1
  O  O191  1  0.350008  0.831219  0.614574  1
  O  O192  1  0.849983  0.831228  0.730849  1
  O  O193  1  0.885204  0.881439  0.629122  1
  O  O194  1  0.385183  0.881446  0.745397  1
  O  O195  1  0.114659  0.118216  0.629122  1
  O  O196  1  0.614638  0.118223  0.745397  1
  O  O197  1  0.114638  0.118223  0.697286  1
  O  O198  1  0.614659  0.118216  0.581011  1
  O  O199  1  0.885183  0.881446  0.697286  1
  O  O200  1  0.385204  0.881439  0.581011  1
  O  O201  1  0.000000  0.000000  0.605281  1
  O  O202  1  0.499910  0.000000  0.721556  1
  O  O203  1  0.000000  0.000000  0.721126  1
  O  O204  1  0.499933  0.000000  0.604851  1
  O  O205  1  0.783675  0.126579  0.635008  1
  O  O206  1  0.283650  0.126578  0.751284  1
  O  O207  1  0.216192  0.873085  0.635009  1
  O  O208  1  0.716167  0.873084  0.751283  1
  O  O209  1  0.216167  0.873084  0.691400  1
  O  O210  1  0.716192  0.873085  0.575123  1
  O  O211  1  0.783650  0.126578  0.691398  1
  O  O212  1  0.283675  0.126579  0.575125  1
  O  O213  1  0.833085  0.945711  0.663204  1
  O  O214  1  0.333086  0.945711  0.546929  1
  O  O215  1  0.166757  0.053952  0.663204  1
  O  O216  1  0.666757  0.053952  0.546929  1
  O  O217  1  0.333086  0.945711  0.779479  1
  O  O218  1  0.666757  0.053952  0.779479  1
  Si  Si219  1  0.189282  0.059980  0.219385  1
  Si  Si220  1  0.689300  0.059979  0.103109  1
  Si  Si221  1  0.810542  0.939683  0.219384  1
  Si  Si222  1  0.310560  0.939682  0.103110  1
  Si  Si223  1  0.810560  0.939682  0.176822  1
  Si  Si224  1  0.310542  0.939683  0.293098  1
  Si  Si225  1  0.189300  0.059979  0.176823  1
  Si  Si226  1  0.689282  0.059980  0.293097  1
  Si  Si227  1  0.927636  0.842256  0.144696  1
  Si  Si228  1  0.427615  0.842266  0.260971  1
  Si  Si229  1  0.072227  0.157396  0.144696  1
  Si  Si230  1  0.572206  0.157407  0.260971  1
  Si  Si231  1  0.072206  0.157407  0.251511  1
  Si  Si232  1  0.572227  0.157397  0.135236  1
  Si  Si233  1  0.927615  0.842266  0.251511  1
  Si  Si234  1  0.427636  0.842256  0.135236  1
  Si  Si235  1  0.682129  0.636996  0.161539  1
  Si  Si236  1  0.182109  0.636999  0.277816  1
  Si  Si237  1  0.317734  0.362665  0.161541  1
  Si  Si238  1  0.817714  0.362667  0.277814  1
  Si  Si239  1  0.317712  0.362666  0.234669  1
  Si  Si240  1  0.817735  0.362666  0.118392  1
  Si  Si241  1  0.682108  0.636997  0.234667  1
  Si  Si242  1  0.182130  0.636997  0.118394  1
  Si  Si243  1  0.739484  0.259823  0.156941  1
  Si  Si244  1  0.239460  0.259822  0.273218  1
  Si  Si245  1  0.260383  0.739840  0.156943  1
  Si  Si246  1  0.760358  0.739840  0.273216  1
  Si  Si247  1  0.260359  0.739840  0.239266  1
  Si  Si248  1  0.760382  0.739840  0.122990  1
  Si  Si249  1  0.739460  0.259823  0.239265  1
  Si  Si250  1  0.239484  0.259823  0.122991  1
  Si  Si251  1  -0.000000  0.499825  0.130741  1
  Si  Si252  1  0.499912  0.499837  0.247016  1
  Si  Si253  1  -0.000000  0.499836  0.265466  1
  Si  Si254  1  0.499931  0.499826  0.149191  1
  Si  Si255  1  0.189282  0.059980  0.451935  1
  Si  Si256  1  0.689300  0.059979  0.335659  1
  Si  Si257  1  0.810542  0.939683  0.451934  1
  Si  Si258  1  0.310560  0.939682  0.335660  1
  Si  Si259  1  0.810560  0.939682  0.409372  1
  Si  Si260  1  0.310542  0.939683  0.525648  1
  Si  Si261  1  0.189300  0.059979  0.409373  1
  Si  Si262  1  0.689282  0.059980  0.525647  1
  Si  Si263  1  0.927636  0.842256  0.377246  1
  Si  Si264  1  0.427615  0.842266  0.493521  1
  Si  Si265  1  0.072227  0.157396  0.377246  1
  Si  Si266  1  0.572206  0.157407  0.493521  1
  Si  Si267  1  0.072206  0.157407  0.484061  1
  Si  Si268  1  0.572227  0.157397  0.367786  1
  Si  Si269  1  0.927615  0.842266  0.484061  1
  Si  Si270  1  0.427636  0.842256  0.367786  1
  Si  Si271  1  0.682129  0.636996  0.394089  1
  Si  Si272  1  0.182109  0.636999  0.510366  1
  Si  Si273  1  0.317734  0.362665  0.394091  1
  Si  Si274  1  0.817714  0.362667  0.510364  1
  Si  Si275  1  0.317712  0.362666  0.467219  1
  Si  Si276  1  0.817735  0.362666  0.350942  1
  Si  Si277  1  0.682108  0.636997  0.467217  1
  Si  Si278  1  0.182130  0.636997  0.350944  1
  Si  Si279  1  0.739484  0.259823  0.389491  1
  Si  Si280  1  0.239460  0.259822  0.505768  1
  Si  Si281  1  0.260383  0.739840  0.389493  1
  Si  Si282  1  0.760358  0.739840  0.505766  1
  Si  Si283  1  0.260359  0.739840  0.471816  1
  Si  Si284  1  0.760382  0.739840  0.355540  1
  Si  Si285  1  0.739460  0.259823  0.471815  1
  Si  Si286  1  0.239484  0.259823  0.355541  1
  Si  Si287  1  -0.000000  0.499825  0.363291  1
  Si  Si288  1  0.499912  0.499837  0.479566  1
  Si  Si289  1  0.000000  0.499836  0.498016  1
  Si  Si290  1  0.499931  0.499826  0.381741  1
  Si  Si291  1  0.189282  0.059980  0.684485  1
  Si  Si292  1  0.689300  0.059979  0.568209  1
  Si  Si293  1  0.810542  0.939683  0.684484  1
  Si  Si294  1  0.310560  0.939682  0.568210  1
  Si  Si295  1  0.810560  0.939682  0.641922  1
  Si  Si296  1  0.310542  0.939683  0.758198  1
  Si  Si297  1  0.189300  0.059979  0.641923  1
  Si  Si298  1  0.689282  0.059980  0.758197  1
  Si  Si299  1  0.927636  0.842256  0.609796  1
  Si  Si300  1  0.427615  0.842266  0.726071  1
  Si  Si301  1  0.072227  0.157396  0.609796  1
  Si  Si302  1  0.572206  0.157407  0.726071  1
  Si  Si303  1  0.072206  0.157407  0.716611  1
  Si  Si304  1  0.572227  0.157397  0.600336  1
  Si  Si305  1  0.927615  0.842266  0.716611  1
  Si  Si306  1  0.427636  0.842256  0.600336  1
  Si  Si307  1  0.682129  0.636996  0.626639  1
  Si  Si308  1  0.182109  0.636999  0.742916  1
  Si  Si309  1  0.317734  0.362665  0.626641  1
  Si  Si310  1  0.817714  0.362667  0.742914  1
  Si  Si311  1  0.317712  0.362666  0.699769  1
  Si  Si312  1  0.817735  0.362666  0.583492  1
  Si  Si313  1  0.682108  0.636997  0.699767  1
  Si  Si314  1  0.182130  0.636997  0.583494  1
  Si  Si315  1  0.739484  0.259823  0.622041  1
  Si  Si316  1  0.239460  0.259822  0.738318  1
  Si  Si317  1  0.260383  0.739840  0.622043  1
  Si  Si318  1  0.760358  0.739840  0.738316  1
  Si  Si319  1  0.260359  0.739840  0.704366  1
  Si  Si320  1  0.760382  0.739840  0.588090  1
  Si  Si321  1  0.739460  0.259823  0.704365  1
  Si  Si322  1  0.239484  0.259823  0.588091  1
  Si  Si323  1  -0.000000  0.499825  0.595841  1
  Si  Si324  1  0.499912  0.499837  0.712116  1
  Si  Si325  1  -0.000000  0.499836  0.730566  1
  Si  Si326  1  0.499931  0.499826  0.614291  1
  H  H327  1  0.333086  0.945711  0.069346  1
  H  H328  1  0.666757  0.053952  0.069346  1
  H  H329  1  0.333086  0.945711  0.791961  1
  H  H330  1  0.666757  0.053952  0.791961  1
