# generated using pymatgen
data_Si8H2O17
_symmetry_space_group_name_H-M   'P 1'
_cell_length_a   12.23055356
_cell_length_b   5.14927914
_cell_length_c   42.18108472
_cell_angle_alpha   90.00000000
_cell_angle_beta   120.00000000
_cell_angle_gamma   90.00000000
_symmetry_Int_Tables_number   1
_chemical_formula_structural   Si8H2O17
_chemical_formula_sum   'Si16 H4 O34'
_cell_volume   2300.59898935
_cell_formula_units_Z   2
loop_
 _symmetry_equiv_pos_site_id
 _symmetry_equiv_pos_as_xyz
  1  'x, y, z'
loop_
 _atom_site_type_symbol
 _atom_site_label
 _atom_site_symmetry_multiplicity
 _atom_site_fract_x
 _atom_site_fract_y
 _atom_site_fract_z
 _atom_site_occupancy
  O  O1  1  0.348551  0.986889  0.216391  1
  O  O2  1  0.586605  0.242236  0.158211  1
  O  O3  1  0.206290  0.259170  0.158335  1
  O  O4  1  0.444834  0.250949  0.186351  1
  O  O5  1  0.353617  0.487051  0.220004  1
  O  O6  1  0.645958  0.515041  0.407154  1
  O  O7  1  0.993640  0.487026  0.319224  1
  O  O8  1  0.647688  0.998701  0.218034  1
  O  O9  1  0.348241  0.991891  0.320837  1
  O  O10  1  0.000000  0.998533  0.406608  1
  O  O11  1  0.000000  0.498498  0.405940  1
  O  O12  1  0.354150  0.491893  0.319127  1
  O  O13  1  0.649668  0.498748  0.218191  1
  O  O14  1  0.006163  0.987191  0.320698  1
  O  O15  1  0.651562  0.015048  0.405512  1
  O  O16  1  0.348551  0.986889  0.506377  1
  O  O17  1  0.413079  0.765196  0.278055  1
  O  O18  1  0.793488  0.742700  0.388436  1
  O  O19  1  0.793838  0.758125  0.277953  1
  O  O20  1  0.586605  0.242236  0.448197  1
  O  O21  1  0.206289  0.265267  0.337824  1
  O  O22  1  0.206290  0.259170  0.448320  1
  O  O23  1  0.554941  0.746667  0.250031  1
  O  O24  1  0.554943  0.753626  0.347272  1
  O  O25  1  0.890090  0.751238  0.347175  1
  O  O26  1  0.444834  0.250949  0.476337  1
  O  O27  1  0.445006  0.253680  0.379036  1
  O  O28  1  0.109890  0.246902  0.379049  1
  O  O29  1  0.353617  0.487051  0.509990  1
  O  O30  1  0.647688  0.998701  0.508020  1
  O  O31  1  0.649668  0.498748  0.508176  1
  O  O32  1  0.413079  0.765196  0.568041  1
  O  O33  1  0.793838  0.758125  0.567939  1
  O  O34  1  0.554941  0.746667  0.540017  1
  Si  Si35  1  0.585388  0.249101  0.194959  1
  Si  Si36  1  0.334198  0.245425  0.195058  1
  Si  Si37  1  0.414249  0.745319  0.241349  1
  Si  Si38  1  0.665583  0.757444  0.388056  1
  Si  Si39  1  0.920193  0.745533  0.315106  1
  Si  Si40  1  0.585388  0.249101  0.484944  1
  Si  Si41  1  0.334331  0.249871  0.338251  1
  Si  Si42  1  0.079877  0.249240  0.411135  1
  Si  Si43  1  0.920013  0.749253  0.387954  1
  Si  Si44  1  0.414327  0.749865  0.315144  1
  Si  Si45  1  0.665538  0.749070  0.241303  1
  Si  Si46  1  0.079817  0.245479  0.338244  1
  Si  Si47  1  0.585602  0.257436  0.411160  1
  Si  Si48  1  0.334198  0.245425  0.485044  1
  Si  Si49  1  0.414249  0.745319  0.531335  1
  Si  Si50  1  0.665538  0.749070  0.531289  1
  H  H51  1  0.586605  0.242236  0.136874  1
  H  H52  1  0.206290  0.259170  0.136998  1
  H  H53  1  0.413079  0.765196  0.589377  1
  H  H54  1  0.793838  0.758125  0.589276  1
