# generated using pymatgen
data_Si24H2O49
_symmetry_space_group_name_H-M   'P 1'
_cell_length_a   8.53699923
_cell_length_b   21.45113807
_cell_length_c   73.14591161
_cell_angle_alpha   132.18472294
_cell_angle_beta   90.00000000
_cell_angle_gamma   90.00000000
_symmetry_Int_Tables_number   1
_chemical_formula_structural   Si24H2O49
_chemical_formula_sum   'Si96 H8 O196'
_cell_volume   9925.54303458
_cell_formula_units_Z   4
loop_
 _symmetry_equiv_pos_site_id
 _symmetry_equiv_pos_as_xyz
  1  'x, y, z'
loop_
 _atom_site_type_symbol
 _atom_site_label
 _atom_site_symmetry_multiplicity
 _atom_site_fract_x
 _atom_site_fract_y
 _atom_site_fract_z
 _atom_site_occupancy
  O  O1  1  0.432786  0.062758  0.104555  1
  O  O2  1  0.066999  0.562757  0.104555  1
  O  O3  1  0.149187  0.827907  0.226164  1
  O  O4  1  0.350598  0.327907  0.226164  1
  O  O5  1  0.850598  0.172023  0.195465  1
  O  O6  1  0.649187  0.672023  0.195465  1
  O  O7  1  0.286142  0.923867  0.268135  1
  O  O8  1  0.213643  0.423867  0.268135  1
  O  O9  1  0.286142  0.923866  0.221989  1
  O  O10  1  0.213644  0.423866  0.221989  1
  O  O11  1  0.713643  0.076064  0.153495  1
  O  O12  1  0.786143  0.576064  0.153495  1
  O  O13  1  0.713643  0.076064  0.199640  1
  O  O14  1  0.786141  0.576064  0.199640  1
  O  O15  1  0.028473  0.833540  0.260023  1
  O  O16  1  0.471311  0.333540  0.260023  1
  O  O17  1  0.028474  0.833540  0.194524  1
  O  O18  1  0.471312  0.333540  0.194524  1
  O  O19  1  0.971311  0.166390  0.161606  1
  O  O20  1  0.528473  0.666390  0.161606  1
  O  O21  1  0.971310  0.166390  0.227105  1
  O  O22  1  0.528474  0.666390  0.227105  1
  O  O23  1  0.296993  0.768166  0.241803  1
  O  O24  1  0.202791  0.268166  0.241803  1
  O  O25  1  0.296995  0.768166  0.186995  1
  O  O26  1  0.202792  0.268167  0.186995  1
  O  O27  1  0.702791  0.231764  0.179826  1
  O  O28  1  0.796994  0.731764  0.179826  1
  O  O29  1  0.702791  0.231765  0.234635  1
  O  O30  1  0.796993  0.731764  0.234634  1
  O  O31  1  0.432786  0.062758  0.243339  1
  O  O32  1  0.066999  0.562759  0.243339  1
  O  O33  1  0.432786  0.062758  0.301490  1
  O  O34  1  0.066999  0.562757  0.301489  1
  O  O35  1  0.566999  0.937173  0.178291  1
  O  O36  1  0.932786  0.437172  0.178290  1
  O  O37  1  0.566999  0.937172  0.120140  1
  O  O38  1  0.932786  0.437173  0.120140  1
  O  O39  1  0.561239  0.920801  0.209813  1
  O  O40  1  0.938545  0.420800  0.209813  1
  O  O41  1  0.561239  0.920800  0.279103  1
  O  O42  1  0.938547  0.420801  0.279103  1
  O  O43  1  0.438547  0.079130  0.211817  1
  O  O44  1  0.061239  0.579130  0.211817  1
  O  O45  1  0.438546  0.079130  0.142526  1
  O  O46  1  0.061238  0.579130  0.142526  1
  O  O47  1  0.494770  0.968212  0.253795  1
  O  O48  1  0.005015  0.468212  0.253795  1
  O  O49  1  0.505015  0.031718  0.167835  1
  O  O50  1  0.994770  0.531718  0.167834  1
  O  O51  1  0.978961  0.706515  0.148768  1
  O  O52  1  0.520823  0.206515  0.148768  1
  O  O53  1  0.978961  0.706515  0.255748  1
  O  O54  1  0.520824  0.206515  0.255748  1
  O  O55  1  0.020824  0.293416  0.272862  1
  O  O56  1  0.478961  0.793416  0.272862  1
  O  O57  1  0.020823  0.293416  0.165881  1
  O  O58  1  0.478961  0.793416  0.165881  1
  O  O59  1  0.767839  0.835916  0.175152  1
  O  O60  1  0.731945  0.335916  0.175152  1
  O  O61  1  0.767838  0.835916  0.280331  1
  O  O62  1  0.731945  0.335916  0.280331  1
  O  O63  1  0.231945  0.164015  0.246478  1
  O  O64  1  0.267839  0.664015  0.246478  1
  O  O65  1  0.231947  0.164014  0.141298  1
  O  O66  1  0.267840  0.664015  0.141298  1
  O  O67  1  0.149187  0.827907  0.423098  1
  O  O68  1  0.350598  0.327907  0.423098  1
  O  O69  1  0.850598  0.172023  0.392400  1
  O  O70  1  0.649187  0.672023  0.392400  1
  O  O71  1  0.286142  0.923867  0.465069  1
  O  O72  1  0.213643  0.423867  0.465069  1
  O  O73  1  0.286142  0.923866  0.418923  1
  O  O74  1  0.213644  0.423866  0.418923  1
  O  O75  1  0.713643  0.076064  0.350429  1
  O  O76  1  0.786143  0.576064  0.350429  1
  O  O77  1  0.713643  0.076064  0.396575  1
  O  O78  1  0.786141  0.576064  0.396575  1
  O  O79  1  0.028473  0.833540  0.456957  1
  O  O80  1  0.471311  0.333540  0.456957  1
  O  O81  1  0.028474  0.833540  0.391458  1
  O  O82  1  0.471312  0.333540  0.391458  1
  O  O83  1  0.971311  0.166390  0.358541  1
  O  O84  1  0.528473  0.666390  0.358541  1
  O  O85  1  0.971310  0.166390  0.424040  1
  O  O86  1  0.528474  0.666390  0.424040  1
  O  O87  1  0.296993  0.768166  0.438737  1
  O  O88  1  0.202791  0.268166  0.438737  1
  O  O89  1  0.296995  0.768166  0.383929  1
  O  O90  1  0.202792  0.268167  0.383930  1
  O  O91  1  0.702791  0.231764  0.376760  1
  O  O92  1  0.796994  0.731764  0.376760  1
  O  O93  1  0.702791  0.231765  0.431569  1
  O  O94  1  0.796993  0.731764  0.431568  1
  O  O95  1  0.432786  0.062758  0.440273  1
  O  O96  1  0.066999  0.562759  0.440273  1
  O  O97  1  0.432786  0.062758  0.498424  1
  O  O98  1  0.066999  0.562757  0.498424  1
  O  O99  1  0.566999  0.937173  0.375225  1
  O  O100  1  0.932786  0.437172  0.375225  1
  O  O101  1  0.566999  0.937172  0.317074  1
  O  O102  1  0.932786  0.437173  0.317074  1
  O  O103  1  0.561239  0.920801  0.406747  1
  O  O104  1  0.938545  0.420800  0.406747  1
  O  O105  1  0.561239  0.920800  0.476038  1
  O  O106  1  0.938547  0.420801  0.476038  1
  O  O107  1  0.438547  0.079130  0.408751  1
  O  O108  1  0.061239  0.579130  0.408751  1
  O  O109  1  0.438546  0.079130  0.339460  1
  O  O110  1  0.061238  0.579130  0.339461  1
  O  O111  1  0.494770  0.968212  0.450729  1
  O  O112  1  0.005015  0.468212  0.450729  1
  O  O113  1  0.505015  0.031718  0.364769  1
  O  O114  1  0.994770  0.531718  0.364769  1
  O  O115  1  0.978961  0.706515  0.345702  1
  O  O116  1  0.520823  0.206515  0.345702  1
  O  O117  1  0.978961  0.706515  0.452682  1
  O  O118  1  0.520824  0.206515  0.452682  1
  O  O119  1  0.020824  0.293416  0.469796  1
  O  O120  1  0.478961  0.793416  0.469796  1
  O  O121  1  0.020823  0.293416  0.362816  1
  O  O122  1  0.478961  0.793416  0.362816  1
  O  O123  1  0.767839  0.835916  0.372086  1
  O  O124  1  0.731945  0.335916  0.372086  1
  O  O125  1  0.767838  0.835916  0.477265  1
  O  O126  1  0.731945  0.335916  0.477265  1
  O  O127  1  0.231945  0.164015  0.443412  1
  O  O128  1  0.267839  0.664015  0.443412  1
  O  O129  1  0.231947  0.164014  0.338232  1
  O  O130  1  0.267840  0.664015  0.338233  1
  O  O131  1  0.149187  0.827907  0.620033  1
  O  O132  1  0.350598  0.327907  0.620033  1
  O  O133  1  0.850598  0.172023  0.589334  1
  O  O134  1  0.649187  0.672023  0.589334  1
  O  O135  1  0.286142  0.923867  0.662003  1
  O  O136  1  0.213643  0.423867  0.662003  1
  O  O137  1  0.286142  0.923866  0.615858  1
  O  O138  1  0.213644  0.423866  0.615858  1
  O  O139  1  0.713643  0.076064  0.547363  1
  O  O140  1  0.786143  0.576064  0.547363  1
  O  O141  1  0.713643  0.076064  0.593509  1
  O  O142  1  0.786141  0.576064  0.593509  1
  O  O143  1  0.028473  0.833540  0.653891  1
  O  O144  1  0.471311  0.333540  0.653891  1
  O  O145  1  0.028474  0.833540  0.588392  1
  O  O146  1  0.471312  0.333540  0.588392  1
  O  O147  1  0.971311  0.166390  0.555475  1
  O  O148  1  0.528473  0.666390  0.555475  1
  O  O149  1  0.971310  0.166390  0.620974  1
  O  O150  1  0.528474  0.666390  0.620974  1
  O  O151  1  0.296993  0.768166  0.635671  1
  O  O152  1  0.202791  0.268166  0.635672  1
  O  O153  1  0.296995  0.768166  0.580863  1
  O  O154  1  0.202792  0.268167  0.580864  1
  O  O155  1  0.702791  0.231764  0.573695  1
  O  O156  1  0.796994  0.731764  0.573695  1
  O  O157  1  0.702791  0.231765  0.628503  1
  O  O158  1  0.796993  0.731764  0.628503  1
  O  O159  1  0.432786  0.062758  0.637208  1
  O  O160  1  0.066999  0.562759  0.637208  1
  O  O161  1  0.432786  0.062758  0.695358  1
  O  O162  1  0.066999  0.562757  0.695358  1
  O  O163  1  0.566999  0.937173  0.572159  1
  O  O164  1  0.932786  0.437172  0.572159  1
  O  O165  1  0.566999  0.937172  0.514008  1
  O  O166  1  0.932786  0.437173  0.514008  1
  O  O167  1  0.561239  0.920801  0.603681  1
  O  O168  1  0.938545  0.420800  0.603681  1
  O  O169  1  0.561239  0.920800  0.672972  1
  O  O170  1  0.938547  0.420801  0.672972  1
  O  O171  1  0.438547  0.079130  0.605685  1
  O  O172  1  0.061239  0.579130  0.605685  1
  O  O173  1  0.438546  0.079130  0.536395  1
  O  O174  1  0.061238  0.579130  0.536395  1
  O  O175  1  0.494770  0.968212  0.647664  1
  O  O176  1  0.005015  0.468212  0.647664  1
  O  O177  1  0.505015  0.031718  0.561703  1
  O  O178  1  0.994770  0.531718  0.561703  1
  O  O179  1  0.978961  0.706515  0.542636  1
  O  O180  1  0.520823  0.206515  0.542636  1
  O  O181  1  0.978961  0.706515  0.649617  1
  O  O182  1  0.520824  0.206515  0.649617  1
  O  O183  1  0.020824  0.293416  0.666730  1
  O  O184  1  0.478961  0.793416  0.666730  1
  O  O185  1  0.020823  0.293416  0.559750  1
  O  O186  1  0.478961  0.793416  0.559750  1
  O  O187  1  0.767839  0.835916  0.569020  1
  O  O188  1  0.731945  0.335916  0.569020  1
  O  O189  1  0.767838  0.835916  0.674200  1
  O  O190  1  0.731945  0.335916  0.674200  1
  O  O191  1  0.231945  0.164015  0.640346  1
  O  O192  1  0.267839  0.664015  0.640346  1
  O  O193  1  0.231947  0.164014  0.535167  1
  O  O194  1  0.267840  0.664015  0.535167  1
  O  O195  1  0.566999  0.937172  0.710942  1
  O  O196  1  0.932786  0.437173  0.710943  1
  Si  Si197  1  0.183646  0.841267  0.249791  1
  Si  Si198  1  0.316139  0.341267  0.249791  1
  Si  Si199  1  0.183644  0.841267  0.207799  1
  Si  Si200  1  0.316136  0.341267  0.207799  1
  Si  Si201  1  0.816140  0.158664  0.171838  1
  Si  Si202  1  0.683645  0.658664  0.171838  1
  Si  Si203  1  0.816140  0.158663  0.213830  1
  Si  Si204  1  0.683645  0.658664  0.213830  1
  Si  Si205  1  0.449772  0.970747  0.233173  1
  Si  Si206  1  0.050013  0.470746  0.233173  1
  Si  Si207  1  0.449772  0.970747  0.275416  1
  Si  Si208  1  0.050012  0.470748  0.275416  1
  Si  Si209  1  0.550012  0.029184  0.188457  1
  Si  Si210  1  0.949773  0.529184  0.188457  1
  Si  Si211  1  0.550012  0.029184  0.146214  1
  Si  Si212  1  0.949773  0.529183  0.146214  1
  Si  Si213  1  0.895252  0.780197  0.174310  1
  Si  Si214  1  0.604534  0.280197  0.174309  1
  Si  Si215  1  0.895253  0.780196  0.259227  1
  Si  Si216  1  0.604533  0.280196  0.259227  1
  Si  Si217  1  0.104534  0.219733  0.247320  1
  Si  Si218  1  0.395253  0.719734  0.247320  1
  Si  Si219  1  0.104533  0.219734  0.162402  1
  Si  Si220  1  0.395252  0.719735  0.162403  1
  Si  Si221  1  0.594249  0.872306  0.288236  1
  Si  Si222  1  0.905536  0.372307  0.288237  1
  Si  Si223  1  0.594250  0.872305  0.181579  1
  Si  Si224  1  0.905536  0.372306  0.181580  1
  Si  Si225  1  0.405535  0.127625  0.133393  1
  Si  Si226  1  0.094248  0.627624  0.133393  1
  Si  Si227  1  0.405535  0.127625  0.240050  1
  Si  Si228  1  0.094248  0.627624  0.240050  1
  Si  Si229  1  0.183646  0.841267  0.446725  1
  Si  Si230  1  0.316139  0.341267  0.446725  1
  Si  Si231  1  0.183644  0.841267  0.404733  1
  Si  Si232  1  0.316136  0.341267  0.404733  1
  Si  Si233  1  0.816140  0.158664  0.368773  1
  Si  Si234  1  0.683645  0.658664  0.368773  1
  Si  Si235  1  0.816140  0.158663  0.410764  1
  Si  Si236  1  0.683645  0.658664  0.410765  1
  Si  Si237  1  0.449772  0.970747  0.430107  1
  Si  Si238  1  0.050013  0.470746  0.430107  1
  Si  Si239  1  0.449772  0.970747  0.472350  1
  Si  Si240  1  0.050012  0.470748  0.472350  1
  Si  Si241  1  0.550012  0.029184  0.385391  1
  Si  Si242  1  0.949773  0.529184  0.385391  1
  Si  Si243  1  0.550012  0.029184  0.343148  1
  Si  Si244  1  0.949773  0.529183  0.343148  1
  Si  Si245  1  0.895252  0.780197  0.371244  1
  Si  Si246  1  0.604534  0.280197  0.371244  1
  Si  Si247  1  0.895253  0.780196  0.456162  1
  Si  Si248  1  0.604533  0.280196  0.456161  1
  Si  Si249  1  0.104534  0.219733  0.444254  1
  Si  Si250  1  0.395253  0.719734  0.444255  1
  Si  Si251  1  0.104533  0.219734  0.359337  1
  Si  Si252  1  0.395252  0.719735  0.359337  1
  Si  Si253  1  0.594249  0.872306  0.485171  1
  Si  Si254  1  0.905536  0.372307  0.485171  1
  Si  Si255  1  0.594250  0.872305  0.378514  1
  Si  Si256  1  0.905536  0.372306  0.378514  1
  Si  Si257  1  0.405535  0.127625  0.330328  1
  Si  Si258  1  0.094248  0.627624  0.330327  1
  Si  Si259  1  0.405535  0.127625  0.436984  1
  Si  Si260  1  0.094248  0.627624  0.436984  1
  Si  Si261  1  0.183646  0.841267  0.643660  1
  Si  Si262  1  0.316139  0.341267  0.643660  1
  Si  Si263  1  0.183644  0.841267  0.601668  1
  Si  Si264  1  0.316136  0.341267  0.601668  1
  Si  Si265  1  0.816140  0.158664  0.565707  1
  Si  Si266  1  0.683645  0.658664  0.565707  1
  Si  Si267  1  0.816140  0.158663  0.607699  1
  Si  Si268  1  0.683645  0.658664  0.607699  1
  Si  Si269  1  0.449772  0.970747  0.627041  1
  Si  Si270  1  0.050013  0.470746  0.627041  1
  Si  Si271  1  0.449772  0.970747  0.669284  1
  Si  Si272  1  0.050012  0.470748  0.669284  1
  Si  Si273  1  0.550012  0.029184  0.582325  1
  Si  Si274  1  0.949773  0.529184  0.582325  1
  Si  Si275  1  0.550012  0.029184  0.540082  1
  Si  Si276  1  0.949773  0.529183  0.540082  1
  Si  Si277  1  0.895252  0.780197  0.568178  1
  Si  Si278  1  0.604534  0.280197  0.568178  1
  Si  Si279  1  0.895253  0.780196  0.653096  1
  Si  Si280  1  0.604533  0.280196  0.653096  1
  Si  Si281  1  0.104534  0.219733  0.641189  1
  Si  Si282  1  0.395253  0.719734  0.641189  1
  Si  Si283  1  0.104533  0.219734  0.556271  1
  Si  Si284  1  0.395252  0.719735  0.556271  1
  Si  Si285  1  0.594249  0.872306  0.682105  1
  Si  Si286  1  0.905536  0.372307  0.682105  1
  Si  Si287  1  0.594250  0.872305  0.575448  1
  Si  Si288  1  0.905536  0.372306  0.575448  1
  Si  Si289  1  0.405535  0.127625  0.527262  1
  Si  Si290  1  0.094248  0.627624  0.527262  1
  Si  Si291  1  0.405535  0.127625  0.633919  1
  Si  Si292  1  0.094248  0.627624  0.633919  1
  H  H293  1  0.432786  0.062758  0.092251  1
  H  H294  1  0.066999  0.562757  0.092251  1
  H  H295  1  0.566999  0.937172  0.107835  1
  H  H296  1  0.932786  0.437173  0.107836  1
  H  H297  1  0.432786  0.062758  0.707662  1
  H  H298  1  0.066999  0.562757  0.707662  1
  H  H299  1  0.566999  0.937172  0.723246  1
  H  H300  1  0.932786  0.437173  0.723247  1
