# generated using pymatgen
data_Si36H2O73
_symmetry_space_group_name_H-M   'P 1'
_cell_length_a   7.42120892
_cell_length_b   13.90537469
_cell_length_c   58.36324291
_cell_angle_alpha   90.00000000
_cell_angle_beta   90.00000000
_cell_angle_gamma   90.00000000
_symmetry_Int_Tables_number   1
_chemical_formula_structural   Si36H2O73
_chemical_formula_sum   'Si72 H4 O146'
_cell_volume   6022.77679966
_cell_formula_units_Z   2
loop_
 _symmetry_equiv_pos_site_id
 _symmetry_equiv_pos_as_xyz
  1  'x, y, z'
loop_
 _atom_site_type_symbol
 _atom_site_label
 _atom_site_symmetry_multiplicity
 _atom_site_fract_x
 _atom_site_fract_y
 _atom_site_fract_z
 _atom_site_occupancy
  O  O1  1  0.742727  0.998058  0.334899  1
  O  O2  1  0.240994  0.998206  0.178397  1
  O  O3  1  0.243609  0.002123  0.337231  1
  O  O4  1  0.743040  0.002213  0.180571  1
  O  O5  1  0.742930  0.497647  0.180533  1
  O  O6  1  0.243604  0.497728  0.337196  1
  O  O7  1  0.241218  0.501695  0.178361  1
  O  O8  1  0.742911  0.501876  0.334866  1
  O  O9  1  0.833534  0.000000  0.376123  1
  O  O10  1  0.331847  0.000000  0.219620  1
  O  O11  1  0.169609  0.993443  0.378643  1
  O  O12  1  0.667944  0.993512  0.221960  1
  O  O13  1  0.831877  0.500094  0.139231  1
  O  O14  1  0.333640  0.500231  0.295944  1
  O  O15  1  0.168260  0.493878  0.136889  1
  O  O16  1  0.669844  0.493733  0.293412  1
  O  O17  1  0.168247  0.005915  0.136916  1
  O  O18  1  0.669812  0.006081  0.293437  1
  O  O19  1  0.831836  0.000000  0.139262  1
  O  O20  1  0.333588  0.000000  0.295975  1
  O  O21  1  0.169699  0.506328  0.378615  1
  O  O22  1  0.668015  0.506255  0.221930  1
  O  O23  1  0.833603  0.499820  0.376095  1
  O  O24  1  0.331889  0.499996  0.219592  1
  O  O25  1  0.501065  0.959870  0.363867  1
  O  O26  1  0.000000  0.959536  0.207328  1
  O  O27  1  0.499480  0.460660  0.151714  1
  O  O28  1  0.001170  0.460418  0.308262  1
  O  O29  1  0.499446  0.039052  0.151761  1
  O  O30  1  0.001119  0.039346  0.308300  1
  O  O31  1  0.501121  0.539898  0.363830  1
  O  O32  1  -0.000000  0.540178  0.207282  1
  O  O33  1  0.755040  0.841559  0.353777  1
  O  O34  1  0.253521  0.841516  0.197184  1
  O  O35  1  0.250288  0.840884  0.353925  1
  O  O36  1  0.748328  0.840896  0.197255  1
  O  O37  1  0.752937  0.341554  0.161496  1
  O  O38  1  0.254832  0.341570  0.318169  1
  O  O39  1  0.249088  0.340959  0.161426  1
  O  O40  1  0.750654  0.340956  0.318024  1
  O  O41  1  0.249150  0.158872  0.161432  1
  O  O42  1  0.750688  0.158912  0.318026  1
  O  O43  1  0.752868  0.158246  0.161507  1
  O  O44  1  0.254805  0.158236  0.318181  1
  O  O45  1  0.250320  0.658924  0.353914  1
  O  O46  1  0.748401  0.658906  0.197245  1
  O  O47  1  0.755021  0.658311  0.353773  1
  O  O48  1  0.253466  0.658314  0.197178  1
  O  O49  1  0.672379  0.749939  0.317010  1
  O  O50  1  0.170381  0.749935  0.160418  1
  O  O51  1  0.335477  0.749927  0.317055  1
  O  O52  1  0.833536  0.749925  0.160390  1
  O  O53  1  0.670556  0.249931  0.198258  1
  O  O54  1  0.172512  0.249930  0.354931  1
  O  O55  1  0.333515  0.249929  0.198285  1
  O  O56  1  0.835519  0.249931  0.354881  1
  O  O57  1  0.003404  0.749928  0.332852  1
  O  O58  1  0.501478  0.749908  0.176198  1
  O  O59  1  0.001554  0.249908  0.182403  1
  O  O60  1  0.503492  0.249925  0.339057  1
  O  O61  1  0.982208  0.499651  0.101091  1
  O  O62  1  0.482172  0.499579  0.257727  1
  O  O63  1  0.982149  0.000000  0.101120  1
  O  O64  1  0.482106  0.000000  0.257756  1
  O  O65  1  0.004405  0.346377  0.385640  1
  O  O66  1  0.502835  0.346366  0.229007  1
  O  O67  1  0.002766  0.846388  0.129660  1
  O  O68  1  0.504345  0.846378  0.286282  1
  O  O69  1  0.002785  0.653446  0.129661  1
  O  O70  1  0.504360  0.653461  0.286283  1
  O  O71  1  0.004406  0.153459  0.385640  1
  O  O72  1  0.502837  0.153465  0.229005  1
  O  O73  1  0.742727  0.998058  0.648123  1
  O  O74  1  0.240994  0.998206  0.491621  1
  O  O75  1  0.243609  0.002123  0.650454  1
  O  O76  1  0.743040  0.002213  0.493795  1
  O  O77  1  0.742930  0.497647  0.493757  1
  O  O78  1  0.243604  0.497728  0.650420  1
  O  O79  1  0.241218  0.501695  0.491585  1
  O  O80  1  0.742911  0.501876  0.648090  1
  O  O81  1  0.833534  0.000000  0.689347  1
  O  O82  1  0.331847  0.000000  0.532844  1
  O  O83  1  0.169609  0.993443  0.691867  1
  O  O84  1  0.667944  0.993512  0.535184  1
  O  O85  1  0.831877  0.500094  0.452455  1
  O  O86  1  0.333640  0.500231  0.609168  1
  O  O87  1  0.168260  0.493878  0.450113  1
  O  O88  1  0.669844  0.493733  0.606636  1
  O  O89  1  0.168247  0.005915  0.450140  1
  O  O90  1  0.669812  0.006081  0.606661  1
  O  O91  1  0.831836  0.000000  0.452486  1
  O  O92  1  0.333588  0.000000  0.609199  1
  O  O93  1  0.169699  0.506328  0.691839  1
  O  O94  1  0.668015  0.506255  0.535154  1
  O  O95  1  0.833603  0.499820  0.689319  1
  O  O96  1  0.331889  0.499996  0.532816  1
  O  O97  1  0.501065  0.959870  0.677091  1
  O  O98  1  0.000000  0.959536  0.520552  1
  O  O99  1  0.499480  0.460660  0.464938  1
  O  O100  1  0.001170  0.460418  0.621486  1
  O  O101  1  0.499446  0.039052  0.464985  1
  O  O102  1  0.001119  0.039346  0.621523  1
  O  O103  1  0.501121  0.539898  0.677054  1
  O  O104  1  -0.000000  0.540178  0.520506  1
  O  O105  1  0.755040  0.841559  0.667000  1
  O  O106  1  0.253521  0.841516  0.510408  1
  O  O107  1  0.250288  0.840884  0.667149  1
  O  O108  1  0.748328  0.840896  0.510479  1
  O  O109  1  0.752937  0.341554  0.474720  1
  O  O110  1  0.254832  0.341570  0.631393  1
  O  O111  1  0.249088  0.340959  0.474650  1
  O  O112  1  0.750654  0.340956  0.631248  1
  O  O113  1  0.249150  0.158872  0.474656  1
  O  O114  1  0.750688  0.158912  0.631250  1
  O  O115  1  0.752868  0.158246  0.474731  1
  O  O116  1  0.254805  0.158236  0.631405  1
  O  O117  1  0.250320  0.658924  0.667138  1
  O  O118  1  0.748401  0.658906  0.510469  1
  O  O119  1  0.755021  0.658311  0.666997  1
  O  O120  1  0.253466  0.658314  0.510402  1
  O  O121  1  0.672379  0.749939  0.630234  1
  O  O122  1  0.170381  0.749935  0.473641  1
  O  O123  1  0.335477  0.749927  0.630279  1
  O  O124  1  0.833536  0.749925  0.473614  1
  O  O125  1  0.670556  0.249931  0.511482  1
  O  O126  1  0.172512  0.249930  0.668155  1
  O  O127  1  0.333515  0.249929  0.511509  1
  O  O128  1  0.835519  0.249931  0.668105  1
  O  O129  1  0.003404  0.749928  0.646076  1
  O  O130  1  0.501478  0.749908  0.489422  1
  O  O131  1  0.001554  0.249908  0.495627  1
  O  O132  1  0.503492  0.249925  0.652281  1
  O  O133  1  0.982208  0.499651  0.414315  1
  O  O134  1  0.482172  0.499579  0.570951  1
  O  O135  1  0.982149  0.000000  0.414344  1
  O  O136  1  0.482106  0.000000  0.570980  1
  O  O137  1  0.004405  0.346377  0.698864  1
  O  O138  1  0.502835  0.346366  0.542231  1
  O  O139  1  0.002766  0.846388  0.442884  1
  O  O140  1  0.504345  0.846378  0.599506  1
  O  O141  1  0.002785  0.653446  0.442885  1
  O  O142  1  0.504360  0.653461  0.599507  1
  O  O143  1  0.004406  0.153459  0.698864  1
  O  O144  1  0.502837  0.153465  0.542229  1
  O  O145  1  0.982208  0.499651  0.727539  1
  O  O146  1  0.982149  0.000000  0.727568  1
  Si  Si147  1  0.707703  0.949738  0.358445  1
  Si  Si148  1  0.206089  0.949623  0.201915  1
  Si  Si149  1  0.292995  0.948487  0.359690  1
  Si  Si150  1  0.791404  0.948427  0.203043  1
  Si  Si151  1  0.706262  0.449939  0.156958  1
  Si  Si152  1  0.207835  0.449901  0.313613  1
  Si  Si153  1  0.291452  0.448789  0.155833  1
  Si  Si154  1  0.793074  0.448715  0.312371  1
  Si  Si155  1  0.291419  0.051006  0.155862  1
  Si  Si156  1  0.793034  0.051121  0.312394  1
  Si  Si157  1  0.706239  0.049839  0.156989  1
  Si  Si158  1  0.207799  0.049895  0.313641  1
  Si  Si159  1  0.293059  0.551307  0.359662  1
  Si  Si160  1  0.791443  0.551349  0.203012  1
  Si  Si161  1  0.707773  0.550103  0.358421  1
  Si  Si162  1  0.206138  0.550175  0.201887  1
  Si  Si163  1  0.795905  0.749940  0.338882  1
  Si  Si164  1  0.294059  0.749923  0.182272  1
  Si  Si165  1  0.210891  0.749918  0.338834  1
  Si  Si166  1  0.708981  0.749912  0.182170  1
  Si  Si167  1  0.794042  0.249912  0.176380  1
  Si  Si168  1  0.295955  0.249917  0.333049  1
  Si  Si169  1  0.209149  0.249922  0.176481  1
  Si  Si170  1  0.711012  0.249937  0.333093  1
  Si  Si171  1  0.998335  0.458986  0.389560  1
  Si  Si172  1  0.496999  0.458961  0.232955  1
  Si  Si173  1  0.997014  0.959066  0.125835  1
  Si  Si174  1  0.498321  0.959054  0.282450  1
  Si  Si175  1  0.997048  0.540782  0.125817  1
  Si  Si176  1  0.498362  0.540798  0.282432  1
  Si  Si177  1  0.998283  0.040864  0.389579  1
  Si  Si178  1  0.496960  0.040885  0.232973  1
  Si  Si179  1  0.002156  0.749916  0.144127  1
  Si  Si180  1  0.503902  0.749918  0.300758  1
  Si  Si181  1  0.003975  0.249917  0.371172  1
  Si  Si182  1  0.502231  0.249915  0.214535  1
  Si  Si183  1  0.707703  0.949738  0.671668  1
  Si  Si184  1  0.206089  0.949623  0.515139  1
  Si  Si185  1  0.292995  0.948487  0.672914  1
  Si  Si186  1  0.791404  0.948427  0.516267  1
  Si  Si187  1  0.706262  0.449939  0.470182  1
  Si  Si188  1  0.207835  0.449901  0.626837  1
  Si  Si189  1  0.291452  0.448789  0.469057  1
  Si  Si190  1  0.793074  0.448715  0.625595  1
  Si  Si191  1  0.291419  0.051006  0.469086  1
  Si  Si192  1  0.793034  0.051121  0.625618  1
  Si  Si193  1  0.706239  0.049839  0.470213  1
  Si  Si194  1  0.207799  0.049895  0.626865  1
  Si  Si195  1  0.293059  0.551307  0.672886  1
  Si  Si196  1  0.791443  0.551349  0.516236  1
  Si  Si197  1  0.707773  0.550103  0.671645  1
  Si  Si198  1  0.206138  0.550175  0.515111  1
  Si  Si199  1  0.795905  0.749940  0.652106  1
  Si  Si200  1  0.294059  0.749923  0.495496  1
  Si  Si201  1  0.210891  0.749918  0.652058  1
  Si  Si202  1  0.708981  0.749912  0.495394  1
  Si  Si203  1  0.794042  0.249912  0.489604  1
  Si  Si204  1  0.295955  0.249917  0.646273  1
  Si  Si205  1  0.209149  0.249922  0.489704  1
  Si  Si206  1  0.711012  0.249937  0.646316  1
  Si  Si207  1  0.998335  0.458986  0.702783  1
  Si  Si208  1  0.496999  0.458961  0.546178  1
  Si  Si209  1  0.997014  0.959066  0.439059  1
  Si  Si210  1  0.498321  0.959054  0.595674  1
  Si  Si211  1  0.997048  0.540782  0.439041  1
  Si  Si212  1  0.498362  0.540798  0.595656  1
  Si  Si213  1  0.998283  0.040864  0.702803  1
  Si  Si214  1  0.496960  0.040885  0.546197  1
  Si  Si215  1  0.002156  0.749916  0.457351  1
  Si  Si216  1  0.503902  0.749918  0.613982  1
  Si  Si217  1  0.003975  0.249917  0.684396  1
  Si  Si218  1  0.502231  0.249915  0.527759  1
  H  H219  1  0.982208  0.499651  0.085670  1
  H  H220  1  0.982149  0.000000  0.085700  1
  H  H221  1  0.982208  0.499651  0.742959  1
  H  H222  1  0.982149  0.000000  0.742989  1
