# generated using pymatgen
data_Si18H2O37
_symmetry_space_group_name_H-M   'P 1'
_cell_length_a   7.42120892
_cell_length_b   13.90537469
_cell_length_c   40.08248065
_cell_angle_alpha   90.00000000
_cell_angle_beta   90.00000000
_cell_angle_gamma   90.00000000
_symmetry_Int_Tables_number   1
_chemical_formula_structural   Si18H2O37
_chemical_formula_sum   'Si36 H4 O74'
_cell_volume   4136.29919275
_cell_formula_units_Z   2
loop_
 _symmetry_equiv_pos_site_id
 _symmetry_equiv_pos_as_xyz
  1  'x, y, z'
loop_
 _atom_site_type_symbol
 _atom_site_label
 _atom_site_symmetry_multiplicity
 _atom_site_fract_x
 _atom_site_fract_y
 _atom_site_fract_z
 _atom_site_occupancy
  O  O1  1  0.742727  0.998058  0.487639  1
  O  O2  1  0.240994  0.998206  0.259760  1
  O  O3  1  0.243609  0.002123  0.491034  1
  O  O4  1  0.743040  0.002213  0.262926  1
  O  O5  1  0.742930  0.497647  0.262870  1
  O  O6  1  0.243604  0.497728  0.490984  1
  O  O7  1  0.241218  0.501695  0.259707  1
  O  O8  1  0.742911  0.501876  0.487591  1
  O  O9  1  0.833534  0.000000  0.547665  1
  O  O10  1  0.331847  0.000000  0.319784  1
  O  O11  1  0.169609  0.993443  0.551335  1
  O  O12  1  0.667944  0.993512  0.323191  1
  O  O13  1  0.831877  0.500094  0.202731  1
  O  O14  1  0.333640  0.500231  0.430918  1
  O  O15  1  0.168260  0.493878  0.199321  1
  O  O16  1  0.669844  0.493733  0.427231  1
  O  O17  1  0.168247  0.005915  0.199360  1
  O  O18  1  0.669812  0.006081  0.427268  1
  O  O19  1  0.831836  0.000000  0.202776  1
  O  O20  1  0.333588  -0.000000  0.430963  1
  O  O21  1  0.169699  0.506328  0.551294  1
  O  O22  1  0.668015  0.506255  0.323148  1
  O  O23  1  0.833603  0.499820  0.547623  1
  O  O24  1  0.331889  0.499996  0.319743  1
  O  O25  1  0.501065  0.959870  0.529820  1
  O  O26  1  -0.000000  0.959536  0.301886  1
  O  O27  1  0.499480  0.460660  0.220907  1
  O  O28  1  0.001170  0.460418  0.448854  1
  O  O29  1  0.499446  0.039052  0.220976  1
  O  O30  1  0.001119  0.039346  0.448908  1
  O  O31  1  0.501121  0.539898  0.529765  1
  O  O32  1  -0.000000  0.540178  0.301819  1
  O  O33  1  0.755040  0.841559  0.515126  1
  O  O34  1  0.253521  0.841516  0.287116  1
  O  O35  1  0.250288  0.840884  0.515342  1
  O  O36  1  0.748328  0.840896  0.287219  1
  O  O37  1  0.752937  0.341554  0.235150  1
  O  O38  1  0.254832  0.341570  0.463279  1
  O  O39  1  0.249088  0.340959  0.235049  1
  O  O40  1  0.750654  0.340956  0.463067  1
  O  O41  1  0.249150  0.158872  0.235058  1
  O  O42  1  0.750688  0.158912  0.463071  1
  O  O43  1  0.752868  0.158246  0.235167  1
  O  O44  1  0.254805  0.158236  0.463296  1
  O  O45  1  0.250320  0.658924  0.515327  1
  O  O46  1  0.748401  0.658906  0.287204  1
  O  O47  1  0.755021  0.658311  0.515121  1
  O  O48  1  0.253466  0.658314  0.287106  1
  O  O49  1  0.672379  0.749939  0.461592  1
  O  O50  1  0.170381  0.749935  0.233581  1
  O  O51  1  0.335477  0.749927  0.461658  1
  O  O52  1  0.833536  0.749925  0.233540  1
  O  O53  1  0.670556  0.249931  0.288680  1
  O  O54  1  0.172512  0.249930  0.516807  1
  O  O55  1  0.333515  0.249929  0.288719  1
  O  O56  1  0.835519  0.249931  0.516735  1
  O  O57  1  0.003404  0.749928  0.484658  1
  O  O58  1  0.501478  0.749908  0.256558  1
  O  O59  1  0.001554  0.249908  0.265593  1
  O  O60  1  0.503492  0.249925  0.493694  1
  O  O61  1  0.982208  0.499651  0.147196  1
  O  O62  1  0.482172  0.499579  0.375271  1
  O  O63  1  0.982149  0.000000  0.147239  1
  O  O64  1  0.482106  -0.000000  0.375313  1
  O  O65  1  0.004405  0.346377  0.561522  1
  O  O66  1  0.502835  0.346366  0.333452  1
  O  O67  1  0.002766  0.846388  0.188796  1
  O  O68  1  0.504345  0.846378  0.416849  1
  O  O69  1  0.002785  0.653446  0.188797  1
  O  O70  1  0.504360  0.653461  0.416850  1
  O  O71  1  0.004406  0.153459  0.561522  1
  O  O72  1  0.502837  0.153465  0.333450  1
  O  O73  1  0.982208  0.499651  0.603275  1
  O  O74  1  0.982149  0.000000  0.603318  1
  Si  Si75  1  0.707703  0.949738  0.521923  1
  Si  Si76  1  0.206089  0.949623  0.294005  1
  Si  Si77  1  0.292995  0.948487  0.523737  1
  Si  Si78  1  0.791404  0.948427  0.295647  1
  Si  Si79  1  0.706262  0.449939  0.228543  1
  Si  Si80  1  0.207835  0.449901  0.456645  1
  Si  Si81  1  0.291452  0.448789  0.226906  1
  Si  Si82  1  0.793074  0.448715  0.454837  1
  Si  Si83  1  0.291419  0.051006  0.226948  1
  Si  Si84  1  0.793034  0.051121  0.454870  1
  Si  Si85  1  0.706239  0.049839  0.228588  1
  Si  Si86  1  0.207799  0.049895  0.456685  1
  Si  Si87  1  0.293059  0.551307  0.523697  1
  Si  Si88  1  0.791443  0.551349  0.295602  1
  Si  Si89  1  0.707773  0.550103  0.521889  1
  Si  Si90  1  0.206138  0.550175  0.293963  1
  Si  Si91  1  0.795905  0.749940  0.493439  1
  Si  Si92  1  0.294059  0.749923  0.265402  1
  Si  Si93  1  0.210891  0.749918  0.493369  1
  Si  Si94  1  0.708981  0.749912  0.265253  1
  Si  Si95  1  0.794042  0.249912  0.256823  1
  Si  Si96  1  0.295955  0.249917  0.484945  1
  Si  Si97  1  0.209149  0.249922  0.256970  1
  Si  Si98  1  0.711012  0.249937  0.485009  1
  Si  Si99  1  0.998335  0.458986  0.567229  1
  Si  Si100  1  0.496999  0.458961  0.339200  1
  Si  Si101  1  0.997014  0.959066  0.183226  1
  Si  Si102  1  0.498321  0.959054  0.411270  1
  Si  Si103  1  0.997048  0.540782  0.183199  1
  Si  Si104  1  0.498362  0.540798  0.411243  1
  Si  Si105  1  0.998283  0.040864  0.567258  1
  Si  Si106  1  0.496960  0.040885  0.339227  1
  Si  Si107  1  0.002156  0.749916  0.209860  1
  Si  Si108  1  0.503902  0.749918  0.437927  1
  Si  Si109  1  0.003975  0.249917  0.540456  1
  Si  Si110  1  0.502231  0.249915  0.312380  1
  H  H111  1  0.982208  0.499651  0.124743  1
  H  H112  1  0.982149  0.000000  0.124786  1
  H  H113  1  0.982208  0.499651  0.625729  1
  H  H114  1  0.982149  -0.000000  0.625772  1
