# generated using pymatgen
data_Si10H2O21
_symmetry_space_group_name_H-M   'P 1'
_cell_length_a   12.23055356
_cell_length_b   5.14927914
_cell_length_c   44.31220260
_cell_angle_alpha   90.00000000
_cell_angle_beta   120.00000000
_cell_angle_gamma   90.00000000
_symmetry_Int_Tables_number   1
_chemical_formula_structural   Si10H2O21
_chemical_formula_sum   'Si20 H4 O42'
_cell_volume   2416.83231201
_cell_formula_units_Z   2
loop_
 _symmetry_equiv_pos_site_id
 _symmetry_equiv_pos_as_xyz
  1  'x, y, z'
loop_
 _atom_site_type_symbol
 _atom_site_label
 _atom_site_symmetry_multiplicity
 _atom_site_fract_x
 _atom_site_fract_y
 _atom_site_fract_z
 _atom_site_occupancy
  O  O1  1  0.645958  0.515041  0.273589  1
  O  O2  1  0.993640  0.487026  0.189888  1
  O  O3  1  0.348241  0.991891  0.191423  1
  O  O4  1  0.000000  0.998533  0.273070  1
  O  O5  1  -0.000000  0.498498  0.272434  1
  O  O6  1  0.354150  0.491893  0.189796  1
  O  O7  1  0.006163  0.987191  0.191291  1
  O  O8  1  0.651562  0.015048  0.272026  1
  O  O9  1  0.348551  0.986889  0.368040  1
  O  O10  1  0.413079  0.765196  0.150699  1
  O  O11  1  0.793488  0.742700  0.255772  1
  O  O12  1  0.793838  0.758125  0.150602  1
  O  O13  1  0.586605  0.242236  0.312658  1
  O  O14  1  0.206289  0.265267  0.207593  1
  O  O15  1  0.206290  0.259170  0.312776  1
  O  O16  1  0.554943  0.753626  0.216587  1
  O  O17  1  0.890090  0.751238  0.216495  1
  O  O18  1  0.444834  0.250949  0.339445  1
  O  O19  1  0.445006  0.253680  0.246823  1
  O  O20  1  0.109890  0.246902  0.246836  1
  O  O21  1  0.353617  0.487051  0.371479  1
  O  O22  1  0.645958  0.515041  0.549629  1
  O  O23  1  0.993640  0.487026  0.465927  1
  O  O24  1  0.647688  0.998701  0.369604  1
  O  O25  1  0.348241  0.991891  0.467463  1
  O  O26  1  0.000000  0.998533  0.549109  1
  O  O27  1  0.000000  0.498498  0.548473  1
  O  O28  1  0.354150  0.491893  0.465835  1
  O  O29  1  0.649668  0.498748  0.369753  1
  O  O30  1  0.006163  0.987191  0.467330  1
  O  O31  1  0.651562  0.015048  0.548065  1
  O  O32  1  0.413079  0.765196  0.426738  1
  O  O33  1  0.793488  0.742700  0.531811  1
  O  O34  1  0.793838  0.758125  0.426641  1
  O  O35  1  0.586605  0.242236  0.588697  1
  O  O36  1  0.206289  0.265267  0.483633  1
  O  O37  1  0.206290  0.259170  0.588815  1
  O  O38  1  0.554941  0.746667  0.400062  1
  O  O39  1  0.554943  0.753626  0.492626  1
  O  O40  1  0.890090  0.751238  0.492534  1
  O  O41  1  0.445006  0.253680  0.522863  1
  O  O42  1  0.109890  0.246902  0.522876  1
  Si  Si43  1  0.665583  0.757444  0.255410  1
  Si  Si44  1  0.920193  0.745533  0.185968  1
  Si  Si45  1  0.585388  0.249101  0.347638  1
  Si  Si46  1  0.334331  0.249871  0.208000  1
  Si  Si47  1  0.079877  0.249240  0.277379  1
  Si  Si48  1  0.920013  0.749253  0.255312  1
  Si  Si49  1  0.414327  0.749865  0.186004  1
  Si  Si50  1  0.079817  0.245479  0.207993  1
  Si  Si51  1  0.585602  0.257436  0.277403  1
  Si  Si52  1  0.334198  0.245425  0.347733  1
  Si  Si53  1  0.414249  0.745319  0.391798  1
  Si  Si54  1  0.665583  0.757444  0.531449  1
  Si  Si55  1  0.920193  0.745533  0.462008  1
  Si  Si56  1  0.334331  0.249871  0.484039  1
  Si  Si57  1  0.079877  0.249240  0.553418  1
  Si  Si58  1  0.920013  0.749253  0.531351  1
  Si  Si59  1  0.414327  0.749865  0.462043  1
  Si  Si60  1  0.665538  0.749070  0.391754  1
  Si  Si61  1  0.079817  0.245479  0.484033  1
  Si  Si62  1  0.585602  0.257436  0.553442  1
  H  H63  1  0.413079  0.765196  0.130388  1
  H  H64  1  0.793838  0.758125  0.130291  1
  H  H65  1  0.586605  0.242236  0.609008  1
  H  H66  1  0.206290  0.259170  0.609126  1
