# generated using pymatgen
data_Si14H2O29
_symmetry_space_group_name_H-M   'P 1'
_cell_length_a   13.60370948
_cell_length_b   27.00625233
_cell_length_c   47.92909156
_cell_angle_alpha   120.51314596
_cell_angle_beta   90.00000000
_cell_angle_gamma   90.00000000
_symmetry_Int_Tables_number   1
_chemical_formula_structural   Si14H2O29
_chemical_formula_sum   'Si112 H16 O232'
_cell_volume   15169.8939658
_cell_formula_units_Z   8
loop_
 _symmetry_equiv_pos_site_id
 _symmetry_equiv_pos_as_xyz
  1  'x, y, z'
loop_
 _atom_site_type_symbol
 _atom_site_label
 _atom_site_symmetry_multiplicity
 _atom_site_fract_x
 _atom_site_fract_y
 _atom_site_fract_z
 _atom_site_occupancy
  O  O1  1  0.330440  0.608616  0.139868  1
  O  O2  1  0.669381  0.608611  0.139873  1
  O  O3  1  0.169356  0.108612  0.139868  1
  O  O4  1  0.830414  0.108607  0.139872  1
  O  O5  1  0.168956  0.192719  0.291672  1
  O  O6  1  0.168956  0.692719  0.525566  1
  O  O7  1  0.135002  0.304685  0.324061  1
  O  O8  1  0.135002  0.804685  0.557955  1
  O  O9  1  0.133859  0.097804  0.292779  1
  O  O10  1  0.133859  0.597804  0.526673  1
  O  O11  1  0.365965  0.402294  0.465037  1
  O  O12  1  0.365965  0.902294  0.231143  1
  O  O13  1  0.305822  0.111796  0.278459  1
  O  O14  1  0.305822  0.611796  0.512353  1
  O  O15  1  0.194005  0.388302  0.479358  1
  O  O16  1  0.194005  0.888302  0.245464  1
  O  O17  1  0.160766  0.096718  0.240856  1
  O  O18  1  0.160766  0.596718  0.474750  1
  O  O19  1  0.169381  0.391481  0.384052  1
  O  O20  1  0.169381  0.891481  0.150158  1
  O  O21  1  0.132514  0.409484  0.336993  1
  O  O22  1  0.132514  0.909484  0.570887  1
  O  O23  1  0.499915  0.444716  0.445665  1
  O  O24  1  0.499915  0.944716  0.211771  1
  O  O25  1  0.127717  0.490756  0.505491  1
  O  O26  1  0.127717  0.990755  0.271597  1
  O  O27  1  0.372108  0.009342  0.252323  1
  O  O28  1  0.372108  0.509342  0.486217  1
  O  O29  1  0.305488  0.441837  0.430042  1
  O  O30  1  0.305488  0.941837  0.196148  1
  O  O31  1  0.499915  0.087433  0.280735  1
  O  O32  1  0.499915  0.587433  0.514629  1
  O  O33  1  0.133335  0.428874  0.444837  1
  O  O34  1  0.133335  0.928874  0.210943  1
  O  O35  1  0.366489  0.071221  0.312978  1
  O  O36  1  0.366489  0.571221  0.546872  1
  O  O37  1  0.158870  0.498099  0.424775  1
  O  O38  1  0.158870  0.998099  0.190881  1
  O  O39  1  0.194339  0.058257  0.327772  1
  O  O40  1  0.194339  0.558256  0.561666  1
  O  O41  1  0.136172  0.250047  0.261960  1
  O  O42  1  0.136172  0.750047  0.495854  1
  O  O43  1  0.805488  0.058255  0.327776  1
  O  O44  1  0.805488  0.558254  0.561670  1
  O  O45  1  -0.000000  0.233829  0.291565  1
  O  O46  1  -0.000000  0.733829  0.525459  1
  O  O47  1  0.830867  0.192714  0.291675  1
  O  O48  1  0.830867  0.692714  0.525569  1
  O  O49  1  0.864809  0.304681  0.324064  1
  O  O50  1  0.864809  0.804680  0.557958  1
  O  O51  1  0.633859  0.402288  0.465040  1
  O  O52  1  0.633859  0.902289  0.231146  1
  O  O53  1  0.865965  0.097798  0.292782  1
  O  O54  1  0.865965  0.597798  0.526676  1
  O  O55  1  0.805823  0.388296  0.479360  1
  O  O56  1  0.805823  0.888296  0.245466  1
  O  O57  1  0.694005  0.111790  0.278461  1
  O  O58  1  0.694005  0.611789  0.512355  1
  O  O59  1  0.839063  0.096713  0.240860  1
  O  O60  1  0.839063  0.596713  0.474754  1
  O  O61  1  0.830439  0.391477  0.384056  1
  O  O62  1  0.830439  0.891477  0.150162  1
  O  O63  1  0.867274  0.409479  0.336995  1
  O  O64  1  0.867274  0.909478  0.570890  1
  O  O65  1  0.000000  0.372674  0.357818  1
  O  O66  1  0.000000  0.872674  0.591712  1
  O  O67  1  0.000000  0.056684  0.210542  1
  O  O68  1  -0.000000  0.556684  0.444436  1
  O  O69  1  0.627716  0.009337  0.252328  1
  O  O70  1  0.627716  0.509337  0.486222  1
  O  O71  1  0.872108  0.490750  0.505496  1
  O  O72  1  0.872108  0.990750  0.271602  1
  O  O73  1  0.694338  0.441836  0.430048  1
  O  O74  1  0.694338  0.941836  0.196154  1
  O  O75  1  0.000000  0.412659  0.477084  1
  O  O76  1  -0.000000  0.912659  0.243189  1
  O  O77  1  0.633335  0.071219  0.312982  1
  O  O78  1  0.633335  0.571219  0.546876  1
  O  O79  1  0.866489  0.428872  0.444841  1
  O  O80  1  0.866489  0.928871  0.210947  1
  O  O81  1  0.840958  0.498095  0.424778  1
  O  O82  1  0.840958  0.998095  0.190884  1
  O  O83  1  0.863623  0.250045  0.261963  1
  O  O84  1  0.863623  0.750045  0.495857  1
  O  O85  1  0.000000  0.055376  0.312154  1
  O  O86  1  0.000000  0.555376  0.546048  1
  O  O87  1  0.363623  0.250048  0.495856  1
  O  O88  1  0.363623  0.750048  0.261962  1
  O  O89  1  0.499888  0.233833  0.525462  1
  O  O90  1  0.499888  0.733832  0.291568  1
  O  O91  1  0.330867  0.307378  0.466144  1
  O  O92  1  0.330867  0.807378  0.232250  1
  O  O93  1  0.330840  0.192722  0.525569  1
  O  O94  1  0.330840  0.692722  0.291675  1
  O  O95  1  0.364809  0.195411  0.433755  1
  O  O96  1  0.364809  0.695411  0.199861  1
  O  O97  1  0.364792  0.304688  0.557957  1
  O  O98  1  0.364792  0.804688  0.324063  1
  O  O99  1  0.339062  0.403379  0.516959  1
  O  O100  1  0.339062  0.903378  0.283065  1
  O  O101  1  0.339028  0.096723  0.474752  1
  O  O102  1  0.339028  0.596723  0.240858  1
  O  O103  1  0.330440  0.108616  0.373762  1
  O  O104  1  0.330440  0.608616  0.607656  1
  O  O105  1  0.330414  0.391486  0.150159  1
  O  O106  1  0.330414  0.891486  0.384053  1
  O  O107  1  0.367275  0.090614  0.420824  1
  O  O108  1  0.367275  0.590613  0.186930  1
  O  O109  1  0.367281  0.409488  0.570888  1
  O  O110  1  0.367281  0.909488  0.336994  1
  O  O111  1  0.499889  0.372678  0.591713  1
  O  O112  1  0.499889  0.872678  0.357819  1
  O  O113  1  0.499906  0.127419  0.400001  1
  O  O114  1  0.499906  0.627418  0.166107  1
  O  O115  1  0.499912  0.443408  0.547276  1
  O  O116  1  0.499912  0.943408  0.313382  1
  O  O117  1  0.340959  0.001998  0.333040  1
  O  O118  1  0.340959  0.501997  0.566934  1
  O  O119  1  0.340928  0.498104  0.190883  1
  O  O120  1  0.340928  0.998104  0.424777  1
  O  O121  1  0.499907  0.266263  0.466254  1
  O  O122  1  0.499907  0.766263  0.232360  1
  O  O123  1  0.499884  0.056690  0.444439  1
  O  O124  1  0.499884  0.556690  0.210545  1
  O  O125  1  0.636172  0.250045  0.495859  1
  O  O126  1  0.636172  0.750045  0.261965  1
  O  O127  1  0.668927  0.192717  0.525573  1
  O  O128  1  0.668927  0.692717  0.291679  1
  O  O129  1  0.668956  0.307374  0.466148  1
  O  O130  1  0.668956  0.807373  0.232254  1
  O  O131  1  0.634986  0.304685  0.557960  1
  O  O132  1  0.634986  0.804684  0.324066  1
  O  O133  1  0.635003  0.195408  0.433758  1
  O  O134  1  0.635003  0.695407  0.199864  1
  O  O135  1  0.660734  0.096719  0.474756  1
  O  O136  1  0.660734  0.596719  0.240862  1
  O  O137  1  0.660767  0.403374  0.516962  1
  O  O138  1  0.660767  0.903374  0.283068  1
  O  O139  1  0.669355  0.391481  0.150164  1
  O  O140  1  0.669355  0.891481  0.384058  1
  O  O141  1  0.669381  0.108611  0.373767  1
  O  O142  1  0.669381  0.608611  0.607661  1
  O  O143  1  0.632520  0.409483  0.570891  1
  O  O144  1  0.632520  0.909483  0.336997  1
  O  O145  1  0.632514  0.090610  0.420827  1
  O  O146  1  0.632514  0.590609  0.186933  1
  O  O147  1  0.658835  0.498100  0.190887  1
  O  O148  1  0.658835  0.998100  0.424781  1
  O  O149  1  0.658869  0.001993  0.333043  1
  O  O150  1  0.658869  0.501993  0.566937  1
  O  O151  1  0.168927  0.307376  0.232247  1
  O  O152  1  0.168927  0.807376  0.466141  1
  O  O153  1  0.134987  0.195408  0.199859  1
  O  O154  1  0.134987  0.695408  0.433753  1
  O  O155  1  0.133830  0.402295  0.231142  1
  O  O156  1  0.133830  0.902295  0.465036  1
  O  O157  1  0.365936  0.097804  0.526674  1
  O  O158  1  0.365936  0.597803  0.292780  1
  O  O159  1  0.305790  0.388301  0.245462  1
  O  O160  1  0.305790  0.888301  0.479356  1
  O  O161  1  0.193973  0.111798  0.512354  1
  O  O162  1  0.193973  0.611798  0.278460  1
  O  O163  1  0.160732  0.403374  0.283063  1
  O  O164  1  0.160732  0.903374  0.516957  1
  O  O165  1  0.169356  0.108612  0.607656  1
  O  O166  1  0.169356  0.608612  0.373762  1
  O  O167  1  0.132521  0.090609  0.186928  1
  O  O168  1  0.132521  0.590610  0.420822  1
  O  O169  1  0.194308  0.441841  0.196149  1
  O  O170  1  0.194308  0.941841  0.430043  1
  O  O171  1  0.127687  0.009344  0.486218  1
  O  O172  1  0.127687  0.509344  0.252324  1
  O  O173  1  0.372079  0.490754  0.271596  1
  O  O174  1  0.372079  0.990754  0.505490  1
  O  O175  1  0.305456  0.058253  0.561665  1
  O  O176  1  0.305456  0.558254  0.327771  1
  O  O177  1  0.499880  0.412658  0.243189  1
  O  O178  1  0.499880  0.912658  0.477083  1
  O  O179  1  0.133306  0.071219  0.546872  1
  O  O180  1  0.133306  0.571219  0.312978  1
  O  O181  1  0.366460  0.428876  0.210943  1
  O  O182  1  0.366460  0.928876  0.444837  1
  O  O183  1  0.158835  0.001993  0.566933  1
  O  O184  1  0.158835  0.501993  0.333039  1
  O  O185  1  0.499880  0.055375  0.546048  1
  O  O186  1  0.499880  0.555375  0.312154  1
  O  O187  1  0.000000  0.266260  0.232357  1
  O  O188  1  0.000000  0.766260  0.466251  1
  O  O189  1  0.830840  0.307371  0.232250  1
  O  O190  1  0.830840  0.807371  0.466144  1
  O  O191  1  0.864792  0.195404  0.199862  1
  O  O192  1  0.864792  0.695404  0.433756  1
  O  O193  1  0.633830  0.097798  0.526677  1
  O  O194  1  0.633830  0.597798  0.292783  1
  O  O195  1  0.865937  0.402289  0.231146  1
  O  O196  1  0.865937  0.902289  0.465040  1
  O  O197  1  0.805790  0.111792  0.512357  1
  O  O198  1  0.805790  0.611792  0.278463  1
  O  O199  1  0.693973  0.388294  0.245465  1
  O  O200  1  0.693973  0.888294  0.479359  1
  O  O201  1  0.839028  0.403369  0.283067  1
  O  O202  1  0.839028  0.903369  0.516961  1
  O  O203  1  0.830414  0.108607  0.607660  1
  O  O204  1  0.830414  0.608607  0.373766  1
  O  O205  1  0.000000  0.127415  0.166106  1
  O  O206  1  0.000000  0.627415  0.400000  1
  O  O207  1  0.805456  0.441839  0.196154  1
  O  O208  1  0.805456  0.941839  0.430048  1
  O  O209  1  0.627687  0.490749  0.271602  1
  O  O210  1  0.627687  0.990749  0.505496  1
  O  O211  1  0.872079  0.009338  0.486222  1
  O  O212  1  0.872079  0.509338  0.252328  1
  O  O213  1  0.694307  0.058252  0.561670  1
  O  O214  1  0.694307  0.558252  0.327776  1
  O  O215  1  0.000000  0.087435  0.514631  1
  O  O216  1  0.000000  0.587434  0.280736  1
  O  O217  1  0.633307  0.428874  0.210948  1
  O  O218  1  0.633307  0.928874  0.444842  1
  O  O219  1  0.866460  0.071217  0.546876  1
  O  O220  1  0.866460  0.571216  0.312982  1
  O  O221  1  0.000000  0.444718  0.211771  1
  O  O222  1  0.000000  0.944718  0.445665  1
  O  O223  1  0.840926  0.001989  0.566936  1
  O  O224  1  0.840926  0.501988  0.333042  1
  O  O225  1  0.867281  0.090606  0.186931  1
  O  O226  1  0.867281  0.590606  0.420825  1
  O  O227  1  -0.000000  0.443403  0.313380  1
  O  O228  1  0.000000  0.943403  0.547274  1
  O  O229  1  0.169381  0.891481  0.617946  1
  O  O230  1  0.830439  0.891477  0.617950  1
  O  O231  1  0.330414  0.391486  0.617947  1
  O  O232  1  0.669355  0.391481  0.617952  1
  Si  Si233  1  0.193623  0.438927  0.420157  1
  Si  Si234  1  0.193623  0.938927  0.186263  1
  Si  Si235  1  0.113509  0.245084  0.292688  1
  Si  Si236  1  0.113509  0.745084  0.526582  1
  Si  Si237  1  0.194081  0.127001  0.276947  1
  Si  Si238  1  0.194081  0.627001  0.510841  1
  Si  Si239  1  0.113267  0.368740  0.350939  1
  Si  Si240  1  0.113267  0.868740  0.584833  1
  Si  Si241  1  0.112360  0.051392  0.302674  1
  Si  Si242  1  0.112360  0.551392  0.536568  1
  Si  Si243  1  0.387466  0.448705  0.455141  1
  Si  Si244  1  0.387466  0.948705  0.221247  1
  Si  Si245  1  0.112445  0.427594  0.476733  1
  Si  Si246  1  0.112445  0.927595  0.242839  1
  Si  Si247  1  0.387382  0.072502  0.281082  1
  Si  Si248  1  0.387382  0.572502  0.514976  1
  Si  Si249  1  0.113864  0.059843  0.206750  1
  Si  Si250  1  0.113864  0.559843  0.440644  1
  Si  Si251  1  0.806202  0.438924  0.420161  1
  Si  Si252  1  0.806202  0.938924  0.186267  1
  Si  Si253  1  0.885958  0.059839  0.206752  1
  Si  Si254  1  0.885958  0.559839  0.440646  1
  Si  Si255  1  0.886303  0.245081  0.292691  1
  Si  Si256  1  0.886303  0.745080  0.526585  1
  Si  Si257  1  0.805746  0.126996  0.276950  1
  Si  Si258  1  0.805746  0.626996  0.510844  1
  Si  Si259  1  0.886541  0.368736  0.350942  1
  Si  Si260  1  0.886541  0.868736  0.584836  1
  Si  Si261  1  0.612360  0.448701  0.455146  1
  Si  Si262  1  0.612360  0.948700  0.221252  1
  Si  Si263  1  0.887466  0.051388  0.302677  1
  Si  Si264  1  0.887466  0.551387  0.536571  1
  Si  Si265  1  0.612445  0.072498  0.281086  1
  Si  Si266  1  0.612445  0.572498  0.514980  1
  Si  Si267  1  0.887382  0.427590  0.476737  1
  Si  Si268  1  0.887382  0.927590  0.242843  1
  Si  Si269  1  0.306173  0.438931  0.186264  1
  Si  Si270  1  0.306173  0.938932  0.420158  1
  Si  Si271  1  0.306202  0.061169  0.337658  1
  Si  Si272  1  0.306202  0.561168  0.571552  1
  Si  Si273  1  0.386303  0.255012  0.465128  1
  Si  Si274  1  0.386303  0.755011  0.231234  1
  Si  Si275  1  0.386286  0.245086  0.526585  1
  Si  Si276  1  0.386286  0.745086  0.292691  1
  Si  Si277  1  0.305746  0.373096  0.480868  1
  Si  Si278  1  0.305746  0.873096  0.246974  1
  Si  Si279  1  0.305715  0.127004  0.510843  1
  Si  Si280  1  0.305715  0.627003  0.276949  1
  Si  Si281  1  0.386541  0.131356  0.406877  1
  Si  Si282  1  0.386541  0.631355  0.172983  1
  Si  Si283  1  0.386527  0.368744  0.584834  1
  Si  Si284  1  0.386527  0.868744  0.350940  1
  Si  Si285  1  0.385958  0.440253  0.551067  1
  Si  Si286  1  0.385958  0.940253  0.317173  1
  Si  Si287  1  0.385931  0.059848  0.440646  1
  Si  Si288  1  0.385931  0.559848  0.206752  1
  Si  Si289  1  0.613864  0.440249  0.551069  1
  Si  Si290  1  0.613864  0.940249  0.317175  1
  Si  Si291  1  0.613838  0.059845  0.440648  1
  Si  Si292  1  0.613838  0.559844  0.206754  1
  Si  Si293  1  0.693623  0.061165  0.337662  1
  Si  Si294  1  0.693623  0.561165  0.571556  1
  Si  Si295  1  0.693593  0.438928  0.186269  1
  Si  Si296  1  0.693593  0.938928  0.420163  1
  Si  Si297  1  0.613492  0.245083  0.526588  1
  Si  Si298  1  0.613492  0.745083  0.292694  1
  Si  Si299  1  0.613509  0.255009  0.465131  1
  Si  Si300  1  0.613509  0.755008  0.231237  1
  Si  Si301  1  0.694049  0.126998  0.510846  1
  Si  Si302  1  0.694049  0.626998  0.276952  1
  Si  Si303  1  0.694081  0.373091  0.480871  1
  Si  Si304  1  0.694081  0.873091  0.246977  1
  Si  Si305  1  0.613254  0.368740  0.584837  1
  Si  Si306  1  0.613254  0.868740  0.350943  1
  Si  Si307  1  0.613268  0.131352  0.406880  1
  Si  Si308  1  0.613268  0.631352  0.172986  1
  Si  Si309  1  0.113493  0.255009  0.231231  1
  Si  Si310  1  0.113493  0.755009  0.465125  1
  Si  Si311  1  0.194049  0.373095  0.246973  1
  Si  Si312  1  0.194049  0.873095  0.480867  1
  Si  Si313  1  0.113254  0.131352  0.172982  1
  Si  Si314  1  0.113254  0.631352  0.406876  1
  Si  Si315  1  0.112329  0.448706  0.221248  1
  Si  Si316  1  0.112329  0.948706  0.455142  1
  Si  Si317  1  0.387435  0.051391  0.536568  1
  Si  Si318  1  0.387435  0.551391  0.302674  1
  Si  Si319  1  0.112413  0.072503  0.514977  1
  Si  Si320  1  0.112413  0.572503  0.281083  1
  Si  Si321  1  0.387351  0.427594  0.242838  1
  Si  Si322  1  0.387351  0.927594  0.476732  1
  Si  Si323  1  0.113837  0.440248  0.317171  1
  Si  Si324  1  0.113837  0.940248  0.551065  1
  Si  Si325  1  0.193593  0.061165  0.571551  1
  Si  Si326  1  0.193593  0.561165  0.337657  1
  Si  Si327  1  0.886286  0.255006  0.231234  1
  Si  Si328  1  0.886286  0.755006  0.465128  1
  Si  Si329  1  0.805715  0.373089  0.246976  1
  Si  Si330  1  0.805715  0.873089  0.480870  1
  Si  Si331  1  0.886528  0.131349  0.172985  1
  Si  Si332  1  0.886528  0.631349  0.406879  1
  Si  Si333  1  0.612329  0.051387  0.536571  1
  Si  Si334  1  0.612329  0.551387  0.302677  1
  Si  Si335  1  0.887436  0.448701  0.221252  1
  Si  Si336  1  0.887436  0.948701  0.455146  1
  Si  Si337  1  0.612413  0.427590  0.242842  1
  Si  Si338  1  0.612413  0.927590  0.476736  1
  Si  Si339  1  0.887351  0.072499  0.514980  1
  Si  Si340  1  0.887351  0.572498  0.281086  1
  Si  Si341  1  0.885931  0.440244  0.317173  1
  Si  Si342  1  0.885931  0.940244  0.551067  1
  Si  Si343  1  0.806172  0.061161  0.571555  1
  Si  Si344  1  0.806172  0.561161  0.337661  1
  H  H345  1  0.330440  0.608616  0.121091  1
  H  H346  1  0.669381  0.608611  0.121095  1
  H  H347  1  0.169356  0.108612  0.121090  1
  H  H348  1  0.830414  0.108607  0.121094  1
  H  H349  1  0.169381  0.891481  0.131380  1
  H  H350  1  0.830439  0.891477  0.131385  1
  H  H351  1  0.330440  0.608616  0.626434  1
  H  H352  1  0.330414  0.391486  0.131382  1
  H  H353  1  0.669355  0.391481  0.131386  1
  H  H354  1  0.669381  0.608611  0.626439  1
  H  H355  1  0.169356  0.108612  0.626434  1
  H  H356  1  0.830414  0.108607  0.626438  1
  H  H357  1  0.169381  0.891481  0.636724  1
  H  H358  1  0.830439  0.891477  0.636728  1
  H  H359  1  0.330414  0.391486  0.636725  1
  H  H360  1  0.669355  0.391481  0.636729  1
