# generated using pymatgen
data_Si30H2O61
_symmetry_space_group_name_H-M   'P 1'
_cell_length_a   13.02202298
_cell_length_b   9.37740949
_cell_length_c   56.49434869
_cell_angle_alpha   92.35000000
_cell_angle_beta   104.50000000
_cell_angle_gamma   107.30000000
_symmetry_Int_Tables_number   1
_chemical_formula_structural   Si30H2O61
_chemical_formula_sum   'Si60 H4 O122'
_cell_volume   6326.85332108
_cell_formula_units_Z   2
loop_
 _symmetry_equiv_pos_site_id
 _symmetry_equiv_pos_as_xyz
  1  'x, y, z'
loop_
 _atom_site_type_symbol
 _atom_site_label
 _atom_site_symmetry_multiplicity
 _atom_site_fract_x
 _atom_site_fract_y
 _atom_site_fract_z
 _atom_site_occupancy
  O  O1  1  0.659249  0.327104  0.108069  1
  O  O2  1  0.765470  0.937981  0.205999  1
  O  O3  1  0.234503  0.062066  0.213288  1
  O  O4  1  0.636258  0.735335  0.223473  1
  O  O5  1  0.363715  0.264711  0.195814  1
  O  O6  1  0.665076  0.671529  0.182276  1
  O  O7  1  0.334897  0.328517  0.237011  1
  O  O8  1  0.824661  0.701211  0.219867  1
  O  O9  1  0.175313  0.298836  0.199420  1
  O  O10  1  0.632862  0.046301  0.177764  1
  O  O11  1  0.367112  0.953745  0.241523  1
  O  O12  1  0.830735  0.211853  0.190391  1
  O  O13  1  0.169239  0.788194  0.228896  1
  O  O14  1  0.712465  0.169247  0.221365  1
  O  O15  1  0.287509  0.830799  0.197922  1
  O  O16  1  0.659433  0.290895  0.258630  1
  O  O17  1  0.340541  0.709151  0.160656  1
  O  O18  1  0.575993  0.314240  0.213003  1
  O  O19  1  0.423981  0.685806  0.206284  1
  O  O20  1  0.786184  0.445874  0.234275  1
  O  O21  1  0.213790  0.554173  0.185011  1
  O  O22  1  0.865417  0.487741  0.198101  1
  O  O23  1  0.134557  0.512305  0.221186  1
  O  O24  1  -0.000000  0.604667  0.239173  1
  O  O25  1  -0.000000  0.395379  0.180114  1
  O  O26  1  0.659249  0.327104  0.306287  1
  O  O27  1  0.340724  0.672943  0.113000  1
  O  O28  1  0.504928  0.357688  0.271998  1
  O  O29  1  0.495046  0.642359  0.147288  1
  O  O30  1  0.534281  0.094311  0.275936  1
  O  O31  1  0.465692  0.905735  0.143351  1
  O  O32  1  0.588810  0.188028  0.141430  1
  O  O33  1  0.411164  0.812019  0.277857  1
  O  O34  1  0.786965  0.362180  0.153928  1
  O  O35  1  0.213009  0.637867  0.265359  1
  O  O36  1  0.622683  0.470110  0.144925  1
  O  O37  1  0.377291  0.529937  0.274362  1
  O  O38  1  0.524433  0.850265  0.247236  1
  O  O39  1  0.475540  0.149782  0.172051  1
  O  O40  1  0.494358  0.569430  0.244400  1
  O  O41  1  0.505615  0.430617  0.174887  1
  O  O42  1  0.765470  0.937981  0.404218  1
  O  O43  1  0.234503  0.062066  0.411506  1
  O  O44  1  0.636258  0.735335  0.421692  1
  O  O45  1  0.363715  0.264711  0.394032  1
  O  O46  1  0.665076  0.671529  0.380494  1
  O  O47  1  0.334897  0.328517  0.435230  1
  O  O48  1  0.824661  0.701211  0.418086  1
  O  O49  1  0.175313  0.298836  0.397638  1
  O  O50  1  0.632862  0.046301  0.375983  1
  O  O51  1  0.367112  0.953745  0.439742  1
  O  O52  1  0.830735  0.211853  0.388610  1
  O  O53  1  0.169239  0.788194  0.427115  1
  O  O54  1  0.712465  0.169247  0.419583  1
  O  O55  1  0.287509  0.830799  0.396141  1
  O  O56  1  0.659433  0.290895  0.456849  1
  O  O57  1  0.340541  0.709151  0.358875  1
  O  O58  1  0.575993  0.314240  0.411222  1
  O  O59  1  0.423981  0.685806  0.404503  1
  O  O60  1  0.786184  0.445874  0.432494  1
  O  O61  1  0.213790  0.554173  0.383230  1
  O  O62  1  0.865417  0.487741  0.396320  1
  O  O63  1  0.134557  0.512305  0.419405  1
  O  O64  1  -0.000000  0.604667  0.437392  1
  O  O65  1  0.000000  0.395379  0.378333  1
  O  O66  1  0.659249  0.327104  0.504506  1
  O  O67  1  0.340724  0.672943  0.311218  1
  O  O68  1  0.504928  0.357688  0.470217  1
  O  O69  1  0.495046  0.642359  0.345507  1
  O  O70  1  0.534281  0.094311  0.474155  1
  O  O71  1  0.465692  0.905735  0.341569  1
  O  O72  1  0.588810  0.188028  0.339648  1
  O  O73  1  0.411164  0.812019  0.476076  1
  O  O74  1  0.786965  0.362180  0.352146  1
  O  O75  1  0.213009  0.637867  0.463578  1
  O  O76  1  0.622683  0.470110  0.343144  1
  O  O77  1  0.377291  0.529937  0.472581  1
  O  O78  1  0.524433  0.850265  0.445455  1
  O  O79  1  0.475540  0.149782  0.370270  1
  O  O80  1  0.494358  0.569430  0.442619  1
  O  O81  1  0.505615  0.430617  0.373105  1
  O  O82  1  0.765470  0.937981  0.602437  1
  O  O83  1  0.234503  0.062066  0.609725  1
  O  O84  1  0.636258  0.735335  0.619911  1
  O  O85  1  0.363715  0.264711  0.592251  1
  O  O86  1  0.665076  0.671529  0.578713  1
  O  O87  1  0.334897  0.328517  0.633448  1
  O  O88  1  0.824661  0.701211  0.616305  1
  O  O89  1  0.175313  0.298836  0.595857  1
  O  O90  1  0.632862  0.046301  0.574201  1
  O  O91  1  0.367112  0.953745  0.637960  1
  O  O92  1  0.830735  0.211853  0.586828  1
  O  O93  1  0.169239  0.788194  0.625333  1
  O  O94  1  0.712465  0.169247  0.617802  1
  O  O95  1  0.287509  0.830799  0.594359  1
  O  O96  1  0.659433  0.290895  0.655068  1
  O  O97  1  0.340541  0.709151  0.557094  1
  O  O98  1  0.575993  0.314240  0.609440  1
  O  O99  1  0.423981  0.685806  0.602721  1
  O  O100  1  0.786184  0.445874  0.630713  1
  O  O101  1  0.213790  0.554173  0.581449  1
  O  O102  1  0.865417  0.487741  0.594538  1
  O  O103  1  0.134557  0.512305  0.617623  1
  O  O104  1  0.000000  0.604667  0.635610  1
  O  O105  1  -0.000000  0.395379  0.576551  1
  O  O106  1  0.659249  0.327104  0.702725  1
  O  O107  1  0.340724  0.672943  0.509437  1
  O  O108  1  0.504928  0.357688  0.668436  1
  O  O109  1  0.495046  0.642359  0.543726  1
  O  O110  1  0.534281  0.094311  0.672374  1
  O  O111  1  0.465692  0.905735  0.539788  1
  O  O112  1  0.588810  0.188028  0.537867  1
  O  O113  1  0.411164  0.812019  0.674294  1
  O  O114  1  0.786965  0.362180  0.550365  1
  O  O115  1  0.213009  0.637867  0.661797  1
  O  O116  1  0.622683  0.470110  0.541362  1
  O  O117  1  0.377291  0.529937  0.670799  1
  O  O118  1  0.524433  0.850265  0.643673  1
  O  O119  1  0.475540  0.149782  0.568488  1
  O  O120  1  0.494358  0.569430  0.640837  1
  O  O121  1  0.505615  0.430617  0.571324  1
  O  O122  1  0.340724  0.672943  0.707656  1
  Si  Si123  1  0.725597  0.764380  0.208460  1
  Si  Si124  1  0.274377  0.235666  0.210826  1
  Si  Si125  1  0.742006  0.089846  0.199747  1
  Si  Si126  1  0.257967  0.910201  0.219540  1
  Si  Si127  1  0.682354  0.303689  0.232661  1
  Si  Si128  1  0.317620  0.696357  0.186626  1
  Si  Si129  1  0.872560  0.564939  0.224110  1
  Si  Si130  1  0.127414  0.435107  0.195177  1
  Si  Si131  1  0.592013  0.269881  0.278398  1
  Si  Si132  1  0.407961  0.730166  0.140889  1
  Si  Si133  1  0.666666  0.341635  0.136511  1
  Si  Si134  1  0.333308  0.658412  0.282776  1
  Si  Si135  1  0.872621  0.364157  0.179346  1
  Si  Si136  1  0.127353  0.635889  0.239941  1
  Si  Si137  1  0.523077  0.710592  0.230275  1
  Si  Si138  1  0.476897  0.289454  0.189012  1
  Si  Si139  1  0.534982  0.068103  0.157181  1
  Si  Si140  1  0.464992  0.931944  0.262106  1
  Si  Si141  1  0.571598  0.554252  0.161425  1
  Si  Si142  1  0.428375  0.445795  0.257862  1
  Si  Si143  1  0.725597  0.764380  0.406679  1
  Si  Si144  1  0.274377  0.235666  0.409045  1
  Si  Si145  1  0.742006  0.089846  0.397965  1
  Si  Si146  1  0.257967  0.910201  0.417759  1
  Si  Si147  1  0.682354  0.303689  0.430879  1
  Si  Si148  1  0.317620  0.696357  0.384845  1
  Si  Si149  1  0.872560  0.564939  0.422329  1
  Si  Si150  1  0.127414  0.435107  0.393396  1
  Si  Si151  1  0.592013  0.269881  0.476617  1
  Si  Si152  1  0.407961  0.730166  0.339108  1
  Si  Si153  1  0.666666  0.341635  0.334729  1
  Si  Si154  1  0.333308  0.658412  0.480995  1
  Si  Si155  1  0.872621  0.364157  0.377564  1
  Si  Si156  1  0.127353  0.635889  0.438160  1
  Si  Si157  1  0.523077  0.710592  0.428494  1
  Si  Si158  1  0.476897  0.289454  0.387231  1
  Si  Si159  1  0.534982  0.068103  0.355400  1
  Si  Si160  1  0.464992  0.931944  0.460325  1
  Si  Si161  1  0.571598  0.554252  0.359644  1
  Si  Si162  1  0.428375  0.445795  0.456081  1
  Si  Si163  1  0.725597  0.764380  0.604898  1
  Si  Si164  1  0.274377  0.235666  0.607264  1
  Si  Si165  1  0.742006  0.089846  0.596184  1
  Si  Si166  1  0.257967  0.910201  0.615978  1
  Si  Si167  1  0.682354  0.303689  0.629098  1
  Si  Si168  1  0.317620  0.696357  0.583064  1
  Si  Si169  1  0.872560  0.564939  0.620547  1
  Si  Si170  1  0.127414  0.435107  0.591614  1
  Si  Si171  1  0.592013  0.269881  0.674835  1
  Si  Si172  1  0.407961  0.730166  0.537326  1
  Si  Si173  1  0.666666  0.341635  0.532948  1
  Si  Si174  1  0.333308  0.658412  0.679214  1
  Si  Si175  1  0.872621  0.364157  0.575783  1
  Si  Si176  1  0.127353  0.635889  0.636378  1
  Si  Si177  1  0.523077  0.710592  0.626712  1
  Si  Si178  1  0.476897  0.289454  0.585449  1
  Si  Si179  1  0.534982  0.068103  0.553618  1
  Si  Si180  1  0.464992  0.931944  0.658543  1
  Si  Si181  1  0.571598  0.554252  0.557862  1
  Si  Si182  1  0.428375  0.445795  0.654299  1
  H  H183  1  0.659249  0.327104  0.092138  1
  H  H184  1  0.340724  0.672943  0.097069  1
  H  H185  1  0.659249  0.327104  0.718656  1
  H  H186  1  0.340724  0.672943  0.723586  1
