# generated using pymatgen
data_Si8H2O17
_symmetry_space_group_name_H-M   'P 1'
_cell_length_a   8.53699923
_cell_length_b   21.45113807
_cell_length_c   44.33604467
_cell_angle_alpha   132.18472294
_cell_angle_beta   90.00000000
_cell_angle_gamma   90.00000000
_symmetry_Int_Tables_number   1
_chemical_formula_structural   Si8H2O17
_chemical_formula_sum   'Si32 H8 O68'
_cell_volume   6016.18476924
_cell_formula_units_Z   4
loop_
 _symmetry_equiv_pos_site_id
 _symmetry_equiv_pos_as_xyz
  1  'x, y, z'
loop_
 _atom_site_type_symbol
 _atom_site_label
 _atom_site_symmetry_multiplicity
 _atom_site_fract_x
 _atom_site_fract_y
 _atom_site_fract_z
 _atom_site_occupancy
  O  O1  1  0.432786  0.062758  0.172496  1
  O  O2  1  0.066999  0.562757  0.172496  1
  O  O3  1  0.149187  0.827907  0.373127  1
  O  O4  1  0.350598  0.327907  0.373127  1
  O  O5  1  0.850598  0.172023  0.322480  1
  O  O6  1  0.649187  0.672023  0.322480  1
  O  O7  1  0.286142  0.923867  0.442370  1
  O  O8  1  0.213643  0.423867  0.442370  1
  O  O9  1  0.286142  0.923866  0.366239  1
  O  O10  1  0.213644  0.423866  0.366239  1
  O  O11  1  0.713643  0.076064  0.253237  1
  O  O12  1  0.786143  0.576064  0.253237  1
  O  O13  1  0.713643  0.076064  0.329368  1
  O  O14  1  0.786141  0.576064  0.329368  1
  O  O15  1  0.028473  0.833540  0.428988  1
  O  O16  1  0.471311  0.333540  0.428988  1
  O  O17  1  0.028474  0.833540  0.320927  1
  O  O18  1  0.471312  0.333540  0.320927  1
  O  O19  1  0.971311  0.166390  0.266619  1
  O  O20  1  0.528473  0.666390  0.266619  1
  O  O21  1  0.971310  0.166390  0.374680  1
  O  O22  1  0.528474  0.666390  0.374680  1
  O  O23  1  0.296993  0.768166  0.398928  1
  O  O24  1  0.202791  0.268166  0.398929  1
  O  O25  1  0.296995  0.768166  0.308506  1
  O  O26  1  0.202792  0.268167  0.308506  1
  O  O27  1  0.702791  0.231764  0.296679  1
  O  O28  1  0.796994  0.731764  0.296679  1
  O  O29  1  0.702791  0.231765  0.387102  1
  O  O30  1  0.796993  0.731764  0.387101  1
  O  O31  1  0.432786  0.062758  0.401463  1
  O  O32  1  0.066999  0.562759  0.401463  1
  O  O33  1  0.432786  0.062758  0.497400  1
  O  O34  1  0.066999  0.562757  0.497399  1
  O  O35  1  0.566999  0.937173  0.294145  1
  O  O36  1  0.932786  0.437172  0.294145  1
  O  O37  1  0.566999  0.937172  0.198207  1
  O  O38  1  0.932786  0.437173  0.198208  1
  O  O39  1  0.561239  0.920801  0.346151  1
  O  O40  1  0.938545  0.420800  0.346150  1
  O  O41  1  0.561239  0.920800  0.460467  1
  O  O42  1  0.938547  0.420801  0.460467  1
  O  O43  1  0.438547  0.079130  0.349457  1
  O  O44  1  0.061239  0.579130  0.349457  1
  O  O45  1  0.438546  0.079130  0.235141  1
  O  O46  1  0.061238  0.579130  0.235141  1
  O  O47  1  0.494770  0.968212  0.418713  1
  O  O48  1  0.005015  0.468212  0.418713  1
  O  O49  1  0.505015  0.031718  0.276895  1
  O  O50  1  0.994770  0.531718  0.276894  1
  O  O51  1  0.978961  0.706515  0.245438  1
  O  O52  1  0.520823  0.206515  0.245438  1
  O  O53  1  0.978961  0.706515  0.421935  1
  O  O54  1  0.520824  0.206515  0.421935  1
  O  O55  1  0.020824  0.293416  0.450169  1
  O  O56  1  0.478961  0.793416  0.450169  1
  O  O57  1  0.020823  0.293416  0.273672  1
  O  O58  1  0.478961  0.793416  0.273672  1
  O  O59  1  0.767839  0.835916  0.288966  1
  O  O60  1  0.731945  0.335916  0.288966  1
  O  O61  1  0.767838  0.835916  0.462492  1
  O  O62  1  0.731945  0.335916  0.462492  1
  O  O63  1  0.231945  0.164015  0.406641  1
  O  O64  1  0.267839  0.664015  0.406641  1
  O  O65  1  0.231947  0.164014  0.233115  1
  O  O66  1  0.267840  0.664015  0.233115  1
  O  O67  1  0.566999  0.937172  0.523111  1
  O  O68  1  0.932786  0.437173  0.523111  1
  Si  Si69  1  0.183646  0.841267  0.412107  1
  Si  Si70  1  0.316139  0.341267  0.412107  1
  Si  Si71  1  0.183644  0.841267  0.342829  1
  Si  Si72  1  0.316136  0.341267  0.342829  1
  Si  Si73  1  0.816140  0.158664  0.283500  1
  Si  Si74  1  0.683645  0.658664  0.283500  1
  Si  Si75  1  0.816140  0.158663  0.352778  1
  Si  Si76  1  0.683645  0.658664  0.352779  1
  Si  Si77  1  0.449772  0.970747  0.384690  1
  Si  Si78  1  0.050013  0.470746  0.384690  1
  Si  Si79  1  0.449772  0.970747  0.454382  1
  Si  Si80  1  0.050012  0.470748  0.454383  1
  Si  Si81  1  0.550012  0.029184  0.310917  1
  Si  Si82  1  0.949773  0.529184  0.310917  1
  Si  Si83  1  0.550012  0.029184  0.241225  1
  Si  Si84  1  0.949773  0.529183  0.241224  1
  Si  Si85  1  0.895252  0.780197  0.287577  1
  Si  Si86  1  0.604534  0.280197  0.287577  1
  Si  Si87  1  0.895253  0.780196  0.427675  1
  Si  Si88  1  0.604533  0.280196  0.427675  1
  Si  Si89  1  0.104534  0.219733  0.408030  1
  Si  Si90  1  0.395253  0.719734  0.408031  1
  Si  Si91  1  0.104533  0.219734  0.267932  1
  Si  Si92  1  0.395252  0.719735  0.267933  1
  Si  Si93  1  0.594249  0.872306  0.475534  1
  Si  Si94  1  0.905536  0.372307  0.475535  1
  Si  Si95  1  0.594250  0.872305  0.299571  1
  Si  Si96  1  0.905536  0.372306  0.299571  1
  Si  Si97  1  0.405535  0.127625  0.220073  1
  Si  Si98  1  0.094248  0.627624  0.220073  1
  Si  Si99  1  0.405535  0.127625  0.396036  1
  Si  Si100  1  0.094248  0.627624  0.396036  1
  H  H101  1  0.432786  0.062758  0.152197  1
  H  H102  1  0.066999  0.562757  0.152196  1
  H  H103  1  0.432786  0.062758  0.517699  1
  H  H104  1  0.066999  0.562757  0.517699  1
  H  H105  1  0.566999  0.937172  0.177908  1
  H  H106  1  0.932786  0.437173  0.177908  1
  H  H107  1  0.566999  0.937172  0.543410  1
  H  H108  1  0.932786  0.437173  0.543411  1
