# generated using pymatgen
data_Si4H2O9
_symmetry_space_group_name_H-M   'P 1'
_cell_length_a   12.23055356
_cell_length_b   5.14927914
_cell_length_c   32.08028615
_cell_angle_alpha   90.00000000
_cell_angle_beta   120.00000000
_cell_angle_gamma   90.00000000
_symmetry_Int_Tables_number   1
_chemical_formula_structural   Si4H2O9
_chemical_formula_sum   'Si8 H4 O18'
_cell_volume   1749.69122711
_cell_formula_units_Z   2
loop_
 _symmetry_equiv_pos_site_id
 _symmetry_equiv_pos_as_xyz
  1  'x, y, z'
loop_
 _atom_site_type_symbol
 _atom_site_label
 _atom_site_symmetry_multiplicity
 _atom_site_fract_x
 _atom_site_fract_y
 _atom_site_fract_z
 _atom_site_occupancy
  O  O1  1  0.645958  0.515041  0.377906  1
  O  O2  1  0.993640  0.487026  0.262290  1
  O  O3  1  0.348241  0.991891  0.264411  1
  O  O4  1  -0.000000  0.998533  0.377188  1
  O  O5  1  0.000000  0.498498  0.376310  1
  O  O6  1  0.354150  0.491893  0.262163  1
  O  O7  1  0.006163  0.987191  0.264228  1
  O  O8  1  0.651562  0.015048  0.375746  1
  O  O9  1  0.413079  0.765196  0.208159  1
  O  O10  1  0.793488  0.742700  0.353295  1
  O  O11  1  0.793838  0.758125  0.208025  1
  O  O12  1  0.586605  0.242236  0.431871  1
  O  O13  1  0.206289  0.265267  0.286747  1
  O  O14  1  0.206290  0.259170  0.432034  1
  O  O15  1  0.554943  0.753626  0.299170  1
  O  O16  1  0.890090  0.751238  0.299042  1
  O  O17  1  0.445006  0.253680  0.340935  1
  O  O18  1  0.109890  0.246902  0.340953  1
  Si  Si19  1  0.665583  0.757444  0.352795  1
  Si  Si20  1  0.920193  0.745533  0.256876  1
  Si  Si21  1  0.334331  0.249871  0.287308  1
  Si  Si22  1  0.079877  0.249240  0.383141  1
  Si  Si23  1  0.920013  0.749253  0.352660  1
  Si  Si24  1  0.414327  0.749865  0.256926  1
  Si  Si25  1  0.079817  0.245479  0.287299  1
  Si  Si26  1  0.585602  0.257436  0.383174  1
  H  H27  1  0.413079  0.765196  0.180104  1
  H  H28  1  0.793838  0.758125  0.179970  1
  H  H29  1  0.586605  0.242236  0.459926  1
  H  H30  1  0.206290  0.259170  0.460089  1
