# generated using pymatgen
data_Si16H2O33
_symmetry_space_group_name_H-M   'P 1'
_cell_length_a   8.53699923
_cell_length_b   21.45113807
_cell_length_c   58.74097814
_cell_angle_alpha   132.18472294
_cell_angle_beta   90.00000000
_cell_angle_gamma   90.00000000
_symmetry_Int_Tables_number   1
_chemical_formula_structural   Si16H2O33
_chemical_formula_sum   'Si64 H8 O132'
_cell_volume   7970.86390191
_cell_formula_units_Z   4
loop_
 _symmetry_equiv_pos_site_id
 _symmetry_equiv_pos_as_xyz
  1  'x, y, z'
loop_
 _atom_site_type_symbol
 _atom_site_label
 _atom_site_symmetry_multiplicity
 _atom_site_fract_x
 _atom_site_fract_y
 _atom_site_fract_z
 _atom_site_occupancy
  O  O1  1  0.432786  0.062758  0.130195  1
  O  O2  1  0.066999  0.562757  0.130195  1
  O  O3  1  0.149187  0.827907  0.281626  1
  O  O4  1  0.350598  0.327907  0.281626  1
  O  O5  1  0.850598  0.172023  0.243399  1
  O  O6  1  0.649187  0.672023  0.243399  1
  O  O7  1  0.286142  0.923867  0.333889  1
  O  O8  1  0.213643  0.423867  0.333889  1
  O  O9  1  0.286142  0.923866  0.276427  1
  O  O10  1  0.213644  0.423866  0.276427  1
  O  O11  1  0.713643  0.076064  0.191136  1
  O  O12  1  0.786143  0.576064  0.191136  1
  O  O13  1  0.713643  0.076064  0.248598  1
  O  O14  1  0.786141  0.576064  0.248598  1
  O  O15  1  0.028473  0.833540  0.323788  1
  O  O16  1  0.471311  0.333540  0.323788  1
  O  O17  1  0.028474  0.833540  0.242227  1
  O  O18  1  0.471312  0.333540  0.242227  1
  O  O19  1  0.971311  0.166390  0.201237  1
  O  O20  1  0.528473  0.666390  0.201237  1
  O  O21  1  0.971310  0.166390  0.282798  1
  O  O22  1  0.528474  0.666390  0.282798  1
  O  O23  1  0.296993  0.768166  0.301100  1
  O  O24  1  0.202791  0.268166  0.301100  1
  O  O25  1  0.296995  0.768166  0.232851  1
  O  O26  1  0.202792  0.268167  0.232852  1
  O  O27  1  0.702791  0.231764  0.223925  1
  O  O28  1  0.796994  0.731764  0.223925  1
  O  O29  1  0.702791  0.231765  0.292174  1
  O  O30  1  0.796993  0.731764  0.292173  1
  O  O31  1  0.432786  0.062758  0.303013  1
  O  O32  1  0.066999  0.562759  0.303013  1
  O  O33  1  0.432786  0.062758  0.375423  1
  O  O34  1  0.066999  0.562757  0.375423  1
  O  O35  1  0.566999  0.937173  0.222012  1
  O  O36  1  0.932786  0.437172  0.222012  1
  O  O37  1  0.566999  0.937172  0.149601  1
  O  O38  1  0.932786  0.437173  0.149602  1
  O  O39  1  0.561239  0.920801  0.261265  1
  O  O40  1  0.938545  0.420800  0.261265  1
  O  O41  1  0.561239  0.920800  0.347547  1
  O  O42  1  0.938547  0.420801  0.347547  1
  O  O43  1  0.438547  0.079130  0.263760  1
  O  O44  1  0.061239  0.579130  0.263760  1
  O  O45  1  0.438546  0.079130  0.177478  1
  O  O46  1  0.061238  0.579130  0.177478  1
  O  O47  1  0.494770  0.968212  0.316033  1
  O  O48  1  0.005015  0.468212  0.316033  1
  O  O49  1  0.505015  0.031718  0.208992  1
  O  O50  1  0.994770  0.531718  0.208992  1
  O  O51  1  0.978961  0.706515  0.185250  1
  O  O52  1  0.520823  0.206515  0.185250  1
  O  O53  1  0.978961  0.706515  0.318465  1
  O  O54  1  0.520824  0.206515  0.318465  1
  O  O55  1  0.020824  0.293416  0.339775  1
  O  O56  1  0.478961  0.793416  0.339775  1
  O  O57  1  0.020823  0.293416  0.206560  1
  O  O58  1  0.478961  0.793416  0.206560  1
  O  O59  1  0.767839  0.835916  0.218104  1
  O  O60  1  0.731945  0.335916  0.218104  1
  O  O61  1  0.767838  0.835916  0.349076  1
  O  O62  1  0.731945  0.335916  0.349076  1
  O  O63  1  0.231945  0.164015  0.306921  1
  O  O64  1  0.267839  0.664015  0.306921  1
  O  O65  1  0.231947  0.164014  0.175949  1
  O  O66  1  0.267840  0.664015  0.175949  1
  O  O67  1  0.149187  0.827907  0.526854  1
  O  O68  1  0.350598  0.327907  0.526854  1
  O  O69  1  0.850598  0.172023  0.488627  1
  O  O70  1  0.649187  0.672023  0.488627  1
  O  O71  1  0.286142  0.923867  0.579117  1
  O  O72  1  0.213643  0.423867  0.579117  1
  O  O73  1  0.286142  0.923866  0.521655  1
  O  O74  1  0.213644  0.423866  0.521655  1
  O  O75  1  0.713643  0.076064  0.436364  1
  O  O76  1  0.786143  0.576064  0.436364  1
  O  O77  1  0.713643  0.076064  0.493826  1
  O  O78  1  0.786141  0.576064  0.493826  1
  O  O79  1  0.028473  0.833540  0.569016  1
  O  O80  1  0.471311  0.333540  0.569016  1
  O  O81  1  0.028474  0.833540  0.487455  1
  O  O82  1  0.471312  0.333540  0.487455  1
  O  O83  1  0.971311  0.166390  0.446465  1
  O  O84  1  0.528473  0.666390  0.446465  1
  O  O85  1  0.971310  0.166390  0.528026  1
  O  O86  1  0.528474  0.666390  0.528026  1
  O  O87  1  0.296993  0.768166  0.546328  1
  O  O88  1  0.202791  0.268166  0.546328  1
  O  O89  1  0.296995  0.768166  0.478079  1
  O  O90  1  0.202792  0.268167  0.478080  1
  O  O91  1  0.702791  0.231764  0.469153  1
  O  O92  1  0.796994  0.731764  0.469153  1
  O  O93  1  0.702791  0.231765  0.537402  1
  O  O94  1  0.796993  0.731764  0.537401  1
  O  O95  1  0.432786  0.062758  0.548241  1
  O  O96  1  0.066999  0.562759  0.548241  1
  O  O97  1  0.432786  0.062758  0.620651  1
  O  O98  1  0.066999  0.562757  0.620651  1
  O  O99  1  0.566999  0.937173  0.467240  1
  O  O100  1  0.932786  0.437172  0.467240  1
  O  O101  1  0.566999  0.937172  0.394829  1
  O  O102  1  0.932786  0.437173  0.394830  1
  O  O103  1  0.561239  0.920801  0.506493  1
  O  O104  1  0.938545  0.420800  0.506493  1
  O  O105  1  0.561239  0.920800  0.592775  1
  O  O106  1  0.938547  0.420801  0.592775  1
  O  O107  1  0.438547  0.079130  0.508988  1
  O  O108  1  0.061239  0.579130  0.508988  1
  O  O109  1  0.438546  0.079130  0.422706  1
  O  O110  1  0.061238  0.579130  0.422706  1
  O  O111  1  0.494770  0.968212  0.561261  1
  O  O112  1  0.005015  0.468212  0.561261  1
  O  O113  1  0.505015  0.031718  0.454220  1
  O  O114  1  0.994770  0.531718  0.454220  1
  O  O115  1  0.978961  0.706515  0.430478  1
  O  O116  1  0.520823  0.206515  0.430478  1
  O  O117  1  0.978961  0.706515  0.563693  1
  O  O118  1  0.520824  0.206515  0.563693  1
  O  O119  1  0.020824  0.293416  0.585003  1
  O  O120  1  0.478961  0.793416  0.585003  1
  O  O121  1  0.020823  0.293416  0.451788  1
  O  O122  1  0.478961  0.793416  0.451788  1
  O  O123  1  0.767839  0.835916  0.463332  1
  O  O124  1  0.731945  0.335916  0.463332  1
  O  O125  1  0.767838  0.835916  0.594304  1
  O  O126  1  0.731945  0.335916  0.594304  1
  O  O127  1  0.231945  0.164015  0.552149  1
  O  O128  1  0.267839  0.664015  0.552149  1
  O  O129  1  0.231947  0.164014  0.421177  1
  O  O130  1  0.267840  0.664015  0.421177  1
  O  O131  1  0.566999  0.937172  0.640057  1
  O  O132  1  0.932786  0.437173  0.640058  1
  Si  Si133  1  0.183646  0.841267  0.311047  1
  Si  Si134  1  0.316139  0.341267  0.311047  1
  Si  Si135  1  0.183644  0.841267  0.258757  1
  Si  Si136  1  0.316136  0.341267  0.258757  1
  Si  Si137  1  0.816140  0.158664  0.213978  1
  Si  Si138  1  0.683645  0.658664  0.213978  1
  Si  Si139  1  0.816140  0.158663  0.266267  1
  Si  Si140  1  0.683645  0.658664  0.266267  1
  Si  Si141  1  0.449772  0.970747  0.290354  1
  Si  Si142  1  0.050013  0.470746  0.290353  1
  Si  Si143  1  0.449772  0.970747  0.342955  1
  Si  Si144  1  0.050012  0.470748  0.342956  1
  Si  Si145  1  0.550012  0.029184  0.234672  1
  Si  Si146  1  0.949773  0.529184  0.234672  1
  Si  Si147  1  0.550012  0.029184  0.182070  1
  Si  Si148  1  0.949773  0.529183  0.182069  1
  Si  Si149  1  0.895252  0.780197  0.217055  1
  Si  Si150  1  0.604534  0.280197  0.217055  1
  Si  Si151  1  0.895253  0.780196  0.322797  1
  Si  Si152  1  0.604533  0.280196  0.322797  1
  Si  Si153  1  0.104534  0.219733  0.307970  1
  Si  Si154  1  0.395253  0.719734  0.307970  1
  Si  Si155  1  0.104533  0.219734  0.202228  1
  Si  Si156  1  0.395252  0.719735  0.202228  1
  Si  Si157  1  0.594249  0.872306  0.358920  1
  Si  Si158  1  0.905536  0.372307  0.358920  1
  Si  Si159  1  0.594250  0.872305  0.226108  1
  Si  Si160  1  0.905536  0.372306  0.226108  1
  Si  Si161  1  0.405535  0.127625  0.166105  1
  Si  Si162  1  0.094248  0.627624  0.166105  1
  Si  Si163  1  0.405535  0.127625  0.298917  1
  Si  Si164  1  0.094248  0.627624  0.298917  1
  Si  Si165  1  0.183646  0.841267  0.556275  1
  Si  Si166  1  0.316139  0.341267  0.556275  1
  Si  Si167  1  0.183644  0.841267  0.503985  1
  Si  Si168  1  0.316136  0.341267  0.503985  1
  Si  Si169  1  0.816140  0.158664  0.459206  1
  Si  Si170  1  0.683645  0.658664  0.459206  1
  Si  Si171  1  0.816140  0.158663  0.511495  1
  Si  Si172  1  0.683645  0.658664  0.511495  1
  Si  Si173  1  0.449772  0.970747  0.535582  1
  Si  Si174  1  0.050013  0.470746  0.535581  1
  Si  Si175  1  0.449772  0.970747  0.588183  1
  Si  Si176  1  0.050012  0.470748  0.588184  1
  Si  Si177  1  0.550012  0.029184  0.479900  1
  Si  Si178  1  0.949773  0.529184  0.479900  1
  Si  Si179  1  0.550012  0.029184  0.427298  1
  Si  Si180  1  0.949773  0.529183  0.427297  1
  Si  Si181  1  0.895252  0.780197  0.462283  1
  Si  Si182  1  0.604534  0.280197  0.462283  1
  Si  Si183  1  0.895253  0.780196  0.568025  1
  Si  Si184  1  0.604533  0.280196  0.568025  1
  Si  Si185  1  0.104534  0.219733  0.553198  1
  Si  Si186  1  0.395253  0.719734  0.553198  1
  Si  Si187  1  0.104533  0.219734  0.447456  1
  Si  Si188  1  0.395252  0.719735  0.447456  1
  Si  Si189  1  0.594249  0.872306  0.604148  1
  Si  Si190  1  0.905536  0.372307  0.604149  1
  Si  Si191  1  0.594250  0.872305  0.471336  1
  Si  Si192  1  0.905536  0.372306  0.471336  1
  Si  Si193  1  0.405535  0.127625  0.411333  1
  Si  Si194  1  0.094248  0.627624  0.411333  1
  Si  Si195  1  0.405535  0.127625  0.544145  1
  Si  Si196  1  0.094248  0.627624  0.544145  1
  H  H197  1  0.432786  0.062758  0.114874  1
  H  H198  1  0.066999  0.562757  0.114874  1
  H  H199  1  0.566999  0.937172  0.134280  1
  H  H200  1  0.932786  0.437173  0.134280  1
  H  H201  1  0.432786  0.062758  0.635973  1
  H  H202  1  0.066999  0.562757  0.635973  1
  H  H203  1  0.566999  0.937172  0.655379  1
  H  H204  1  0.932786  0.437173  0.655379  1
