# generated using pymatgen
data_Si10H6O23
_symmetry_space_group_name_H-M   'P 1'
_cell_length_a   15.01225698
_cell_length_b   16.36465187
_cell_length_c   58.34996772
_cell_angle_alpha   30.07656819
_cell_angle_beta   90.00000000
_cell_angle_gamma   90.00000000
_symmetry_Int_Tables_number   1
_chemical_formula_structural   Si10H6O23
_chemical_formula_sum   'Si40 H24 O92'
_cell_volume   7184.01248984
_cell_formula_units_Z   4
loop_
 _symmetry_equiv_pos_site_id
 _symmetry_equiv_pos_as_xyz
  1  'x, y, z'
loop_
 _atom_site_type_symbol
 _atom_site_label
 _atom_site_symmetry_multiplicity
 _atom_site_fract_x
 _atom_site_fract_y
 _atom_site_fract_z
 _atom_site_occupancy
  O  O1  1  0.663956  0.812102  0.268678  1
  O  O2  1  0.330186  0.441817  0.216491  1
  O  O3  1  0.002081  0.557598  0.270744  1
  O  O4  1  0.335418  0.249320  0.217148  1
  O  O5  1  0.163509  0.189726  0.226588  1
  O  O6  1  0.831204  0.557181  0.280772  1
  O  O7  1  0.497246  0.250577  0.319202  1
  O  O8  1  0.501550  0.441597  0.226081  1
  O  O9  1  0.835194  0.753809  0.277803  1
  O  O10  1  0.168932  0.806105  0.319899  1
  O  O11  1  0.772940  0.022692  0.199692  1
  O  O12  1  0.439752  0.226593  0.252300  1
  O  O13  1  0.106367  0.751408  0.210890  1
  O  O14  1  0.892060  0.767511  0.202209  1
  O  O15  1  0.225226  0.247460  0.251611  1
  O  O16  1  0.558697  0.981223  0.209897  1
  O  O17  1  0.273160  0.980775  0.294794  1
  O  O18  1  0.941660  0.781725  0.241530  1
  O  O19  1  0.605807  0.247158  0.285401  1
  O  O20  1  0.391931  0.231188  0.294247  1
  O  O21  1  0.725974  0.753633  0.244114  1
  O  O22  1  0.059125  0.015811  0.286184  1
  O  O23  1  0.549233  0.649247  0.289494  1
  O  O24  1  0.215865  0.406612  0.254384  1
  O  O25  1  0.882456  0.943331  0.281048  1
  O  O26  1  0.120431  0.588435  0.291266  1
  O  O27  1  0.451016  0.054546  0.254396  1
  O  O28  1  0.786211  0.353916  0.280624  1
  O  O29  1  0.048781  0.350772  0.206373  1
  O  O30  1  0.717396  0.591014  0.242623  1
  O  O31  1  0.380011  0.057664  0.215259  1
  O  O32  1  0.619781  0.412275  0.204773  1
  O  O33  1  0.953133  0.943831  0.242497  1
  O  O34  1  0.286368  0.644872  0.215626  1
  O  O35  1  0.494417  0.837993  0.277444  1
  O  O36  1  0.161932  0.524495  0.186408  1
  O  O37  1  0.829486  0.640182  0.198377  1
  O  O38  1  0.171188  0.479162  0.277848  1
  O  O39  1  0.505509  0.358528  0.186768  1
  O  O40  1  0.837499  0.161246  0.199046  1
  O  O41  1  0.995516  0.166259  0.216910  1
  O  O42  1  0.663151  0.475115  0.310077  1
  O  O43  1  0.329980  0.359956  0.297694  1
  O  O44  1  0.670929  0.520272  0.218654  1
  O  O45  1  0.004289  0.640700  0.309039  1
  O  O46  1  0.336715  0.833440  0.297657  1
  O  O47  1  0.663956  0.812102  0.430225  1
  O  O48  1  0.330186  0.441817  0.378038  1
  O  O49  1  0.997782  0.746366  0.339237  1
  O  O50  1  0.002081  0.557598  0.432291  1
  O  O51  1  0.335418  0.249320  0.378695  1
  O  O52  1  0.667885  0.192408  0.337727  1
  O  O53  1  0.163509  0.189726  0.388135  1
  O  O54  1  0.831204  0.557181  0.442319  1
  O  O55  1  0.501550  0.441597  0.387628  1
  O  O56  1  0.835194  0.753809  0.439350  1
  O  O57  1  0.772940  0.022692  0.361239  1
  O  O58  1  0.439752  0.226593  0.413847  1
  O  O59  1  0.106367  0.751408  0.372437  1
  O  O60  1  0.892060  0.767511  0.363755  1
  O  O61  1  0.225226  0.247460  0.413157  1
  O  O62  1  0.558697  0.981223  0.371444  1
  O  O63  1  0.273160  0.980775  0.456341  1
  O  O64  1  0.941660  0.781725  0.403077  1
  O  O65  1  0.605807  0.247158  0.446948  1
  O  O66  1  0.391931  0.231188  0.455794  1
  O  O67  1  0.725974  0.753633  0.405661  1
  O  O68  1  0.059125  0.015811  0.447730  1
  O  O69  1  0.549233  0.649247  0.451041  1
  O  O70  1  0.215865  0.406612  0.415931  1
  O  O71  1  0.882456  0.943331  0.442595  1
  O  O72  1  0.120431  0.588435  0.452813  1
  O  O73  1  0.451016  0.054546  0.415943  1
  O  O74  1  0.786211  0.353916  0.442171  1
  O  O75  1  0.048781  0.350772  0.367920  1
  O  O76  1  0.717396  0.591014  0.404169  1
  O  O77  1  0.380011  0.057664  0.376806  1
  O  O78  1  0.619781  0.412275  0.366320  1
  O  O79  1  0.953133  0.943831  0.404043  1
  O  O80  1  0.286368  0.644872  0.377173  1
  O  O81  1  0.494417  0.837993  0.438991  1
  O  O82  1  0.161932  0.524495  0.347955  1
  O  O83  1  0.829486  0.640182  0.359924  1
  O  O84  1  0.171188  0.479162  0.439395  1
  O  O85  1  0.505509  0.358528  0.348315  1
  O  O86  1  0.837499  0.161246  0.360593  1
  O  O87  1  0.995516  0.166259  0.378457  1
  O  O88  1  0.663151  0.475115  0.471624  1
  O  O89  1  0.329980  0.359956  0.459241  1
  O  O90  1  0.670929  0.520272  0.380201  1
  O  O91  1  0.004289  0.640700  0.470586  1
  O  O92  1  0.336715  0.833440  0.459204  1
  Si  Si93  1  0.561731  0.812652  0.263451  1
  Si  Si94  1  0.227395  0.410484  0.226405  1
  Si  Si95  1  0.103995  0.589692  0.264439  1
  Si  Si96  1  0.438023  0.220859  0.226893  1
  Si  Si97  1  0.060406  0.186573  0.232157  1
  Si  Si98  1  0.729027  0.588496  0.270312  1
  Si  Si99  1  0.394312  0.224408  0.322951  1
  Si  Si100  1  0.603983  0.410299  0.231813  1
  Si  Si101  1  0.937603  0.780603  0.268196  1
  Si  Si102  1  0.271974  0.810783  0.323307  1
  Si  Si103  1  0.585287  0.472122  0.327708  1
  Si  Si104  1  0.251677  0.465891  0.264078  1
  Si  Si105  1  0.918093  0.062890  0.232901  1
  Si  Si106  1  0.414646  0.936760  0.263842  1
  Si  Si107  1  0.751874  0.532191  0.232625  1
  Si  Si108  1  0.749747  0.836398  0.247795  1
  Si  Si109  1  0.415680  0.337788  0.246513  1
  Si  Si110  1  0.916733  0.663166  0.250412  1
  Si  Si111  1  0.249117  0.168121  0.246913  1
  Si  Si112  1  0.582061  0.168713  0.328491  1
  Si  Si113  1  0.561731  0.812652  0.424998  1
  Si  Si114  1  0.227395  0.410484  0.387952  1
  Si  Si115  1  0.894770  0.774817  0.334782  1
  Si  Si116  1  0.103995  0.589692  0.425986  1
  Si  Si117  1  0.438023  0.220859  0.388440  1
  Si  Si118  1  0.770162  0.189691  0.333610  1
  Si  Si119  1  0.060406  0.186573  0.393704  1
  Si  Si120  1  0.729027  0.588496  0.431859  1
  Si  Si121  1  0.603983  0.410299  0.393360  1
  Si  Si122  1  0.937603  0.780603  0.429743  1
  Si  Si123  1  0.251677  0.465891  0.425625  1
  Si  Si124  1  0.918093  0.062890  0.394448  1
  Si  Si125  1  0.085034  0.528333  0.329809  1
  Si  Si126  1  0.414646  0.936760  0.425389  1
  Si  Si127  1  0.751874  0.532191  0.394172  1
  Si  Si128  1  0.749747  0.836398  0.409342  1
  Si  Si129  1  0.415680  0.337788  0.408060  1
  Si  Si130  1  0.083528  0.827906  0.329690  1
  Si  Si131  1  0.916733  0.663166  0.411959  1
  Si  Si132  1  0.249117  0.168121  0.408460  1
  H  H133  1  0.772940  0.022692  0.184267  1
  H  H134  1  0.106367  0.751408  0.195465  1
  H  H135  1  0.892060  0.767511  0.186784  1
  H  H136  1  0.558697  0.981223  0.194473  1
  H  H137  1  0.048781  0.350772  0.190949  1
  H  H138  1  0.380011  0.057664  0.199835  1
  H  H139  1  0.619781  0.412275  0.189349  1
  H  H140  1  0.286368  0.644872  0.200202  1
  H  H141  1  0.161932  0.524495  0.170984  1
  H  H142  1  0.829486  0.640182  0.182953  1
  H  H143  1  0.505509  0.358528  0.171344  1
  H  H144  1  0.837499  0.161246  0.183622  1
  H  H145  1  0.273160  0.980775  0.471765  1
  H  H146  1  0.605807  0.247158  0.462372  1
  H  H147  1  0.391931  0.231188  0.471218  1
  H  H148  1  0.059125  0.015811  0.463155  1
  H  H149  1  0.549233  0.649247  0.466465  1
  H  H150  1  0.882456  0.943331  0.458019  1
  H  H151  1  0.120431  0.588435  0.468237  1
  H  H152  1  0.786211  0.353916  0.457595  1
  H  H153  1  0.663151  0.475115  0.487048  1
  H  H154  1  0.329980  0.359956  0.474665  1
  H  H155  1  0.004289  0.640700  0.486010  1
  H  H156  1  0.336715  0.833440  0.474628  1
