# generated using pymatgen
data_Si14H6O31
_symmetry_space_group_name_H-M   'P 1'
_cell_length_a   15.01225698
_cell_length_b   16.36465187
_cell_length_c   56.55755130
_cell_angle_alpha   30.07656819
_cell_angle_beta   90.00000000
_cell_angle_gamma   90.00000000
_symmetry_Int_Tables_number   1
_chemical_formula_structural   Si14H6O31
_chemical_formula_sum   'Si56 H24 O124'
_cell_volume   6963.3312722
_cell_formula_units_Z   4
loop_
 _symmetry_equiv_pos_site_id
 _symmetry_equiv_pos_as_xyz
  1  'x, y, z'
loop_
 _atom_site_type_symbol
 _atom_site_label
 _atom_site_symmetry_multiplicity
 _atom_site_fract_x
 _atom_site_fract_y
 _atom_site_fract_z
 _atom_site_occupancy
  Si  Si1  1  0.394312  0.224408  0.327335  1
  Si  Si2  1  0.271974  0.810783  0.327702  1
  Si  Si3  1  0.585287  0.472122  0.332243  1
  Si  Si4  1  0.582061  0.168713  0.333050  1
  Si  Si5  1  0.561731  0.812652  0.432616  1
  Si  Si6  1  0.227395  0.410484  0.394396  1
  Si  Si7  1  0.894770  0.774817  0.339541  1
  Si  Si8  1  0.103995  0.589692  0.433635  1
  Si  Si9  1  0.438023  0.220859  0.394899  1
  Si  Si10  1  0.770162  0.189691  0.338331  1
  Si  Si11  1  0.060406  0.186573  0.400330  1
  Si  Si12  1  0.729027  0.588496  0.439694  1
  Si  Si13  1  0.394312  0.224408  0.494002  1
  Si  Si14  1  0.603983  0.410299  0.399975  1
  Si  Si15  1  0.937603  0.780603  0.437511  1
  Si  Si16  1  0.271974  0.810783  0.494368  1
  Si  Si17  1  0.585287  0.472122  0.498910  1
  Si  Si18  1  0.251677  0.465891  0.433263  1
  Si  Si19  1  0.918093  0.062890  0.401098  1
  Si  Si20  1  0.085034  0.528333  0.334410  1
  Si  Si21  1  0.414646  0.936760  0.433019  1
  Si  Si22  1  0.751874  0.532191  0.400812  1
  Si  Si23  1  0.749747  0.836398  0.416464  1
  Si  Si24  1  0.415680  0.337788  0.415140  1
  Si  Si25  1  0.083528  0.827906  0.334287  1
  Si  Si26  1  0.916733  0.663166  0.419163  1
  Si  Si27  1  0.249117  0.168121  0.415554  1
  Si  Si28  1  0.582061  0.168713  0.499716  1
  O  O29  1  0.497246  0.250577  0.323467  1
  O  O30  1  0.168932  0.806105  0.324186  1
  O  O31  1  0.273160  0.980775  0.298285  1
  O  O32  1  0.605807  0.247158  0.288594  1
  O  O33  1  0.391931  0.231188  0.297721  1
  O  O34  1  0.059125  0.015811  0.289402  1
  O  O35  1  0.549233  0.649247  0.292817  1
  O  O36  1  0.882456  0.943331  0.284104  1
  O  O37  1  0.120431  0.588435  0.294646  1
  O  O38  1  0.786211  0.353916  0.283667  1
  O  O39  1  0.663151  0.475115  0.314052  1
  O  O40  1  0.329980  0.359956  0.301278  1
  O  O41  1  0.004289  0.640700  0.312982  1
  O  O42  1  0.336715  0.833440  0.301239  1
  O  O43  1  0.663956  0.812102  0.438008  1
  O  O44  1  0.330186  0.441817  0.384167  1
  O  O45  1  0.997782  0.746366  0.344137  1
  O  O46  1  0.002081  0.557598  0.440140  1
  O  O47  1  0.335418  0.249320  0.384845  1
  O  O48  1  0.667885  0.192408  0.342579  1
  O  O49  1  0.163509  0.189726  0.394585  1
  O  O50  1  0.831204  0.557181  0.450486  1
  O  O51  1  0.497246  0.250577  0.490134  1
  O  O52  1  0.501550  0.441597  0.394061  1
  O  O53  1  0.835194  0.753809  0.447423  1
  O  O54  1  0.168932  0.806105  0.490853  1
  O  O55  1  0.772940  0.022692  0.366836  1
  O  O56  1  0.439752  0.226593  0.421112  1
  O  O57  1  0.106367  0.751408  0.378388  1
  O  O58  1  0.892060  0.767511  0.369432  1
  O  O59  1  0.225226  0.247460  0.420400  1
  O  O60  1  0.558697  0.981223  0.377365  1
  O  O61  1  0.273160  0.980775  0.464952  1
  O  O62  1  0.941660  0.781725  0.410000  1
  O  O63  1  0.605807  0.247158  0.455261  1
  O  O64  1  0.391931  0.231188  0.464388  1
  O  O65  1  0.725974  0.753633  0.412666  1
  O  O66  1  0.059125  0.015811  0.456069  1
  O  O67  1  0.549233  0.649247  0.459484  1
  O  O68  1  0.215865  0.406612  0.423261  1
  O  O69  1  0.882456  0.943331  0.450771  1
  O  O70  1  0.120431  0.588435  0.461313  1
  O  O71  1  0.451016  0.054546  0.423274  1
  O  O72  1  0.786211  0.353916  0.450333  1
  O  O73  1  0.048781  0.350772  0.373729  1
  O  O74  1  0.717396  0.591014  0.411127  1
  O  O75  1  0.380011  0.057664  0.382897  1
  O  O76  1  0.619781  0.412275  0.372078  1
  O  O77  1  0.953133  0.943831  0.410997  1
  O  O78  1  0.286368  0.644872  0.383275  1
  O  O79  1  0.494417  0.837993  0.447053  1
  O  O80  1  0.161932  0.524495  0.353131  1
  O  O81  1  0.829486  0.640182  0.365479  1
  O  O82  1  0.171188  0.479162  0.447469  1
  O  O83  1  0.505509  0.358528  0.353502  1
  O  O84  1  0.837499  0.161246  0.366169  1
  O  O85  1  0.995516  0.166259  0.384599  1
  O  O86  1  0.663151  0.475115  0.480719  1
  O  O87  1  0.329980  0.359956  0.467944  1
  O  O88  1  0.670929  0.520272  0.386400  1
  O  O89  1  0.004289  0.640700  0.479648  1
  O  O90  1  0.336715  0.833440  0.467906  1
  H  H91  1  0.273160  0.980775  0.282373  1
  H  H92  1  0.605807  0.247158  0.272682  1
  H  H93  1  0.391931  0.231188  0.281809  1
  H  H94  1  0.059125  0.015811  0.273489  1
  H  H95  1  0.549233  0.649247  0.276904  1
  H  H96  1  0.882456  0.943331  0.268191  1
  H  H97  1  0.120431  0.588435  0.278733  1
  H  H98  1  0.786211  0.353916  0.267754  1
  H  H99  1  0.663151  0.475115  0.298140  1
  H  H100  1  0.329980  0.359956  0.285365  1
  H  H101  1  0.004289  0.640700  0.297069  1
  H  H102  1  0.336715  0.833440  0.285326  1
  Si  Si103  1  0.561731  0.812652  0.599283  1
  Si  Si104  1  0.227395  0.410484  0.561063  1
  Si  Si105  1  0.894770  0.774817  0.506208  1
  Si  Si106  1  0.103995  0.589692  0.600302  1
  Si  Si107  1  0.438023  0.220859  0.561566  1
  Si  Si108  1  0.770162  0.189691  0.504998  1
  Si  Si109  1  0.060406  0.186573  0.566997  1
  Si  Si110  1  0.729027  0.588496  0.606361  1
  Si  Si111  1  0.394312  0.224408  0.660668  1
  Si  Si112  1  0.603983  0.410299  0.566642  1
  Si  Si113  1  0.937603  0.780603  0.604178  1
  Si  Si114  1  0.271974  0.810783  0.661035  1
  Si  Si115  1  0.585287  0.472122  0.665576  1
  Si  Si116  1  0.251677  0.465891  0.599929  1
  Si  Si117  1  0.918093  0.062890  0.567765  1
  Si  Si118  1  0.085034  0.528333  0.501077  1
  Si  Si119  1  0.414646  0.936760  0.599685  1
  Si  Si120  1  0.751874  0.532191  0.567479  1
  Si  Si121  1  0.749747  0.836398  0.583131  1
  Si  Si122  1  0.415680  0.337788  0.581808  1
  Si  Si123  1  0.083528  0.827906  0.500954  1
  Si  Si124  1  0.916733  0.663166  0.585831  1
  Si  Si125  1  0.249117  0.168121  0.582221  1
  Si  Si126  1  0.582061  0.168713  0.666384  1
  Si  Si127  1  0.894770  0.774817  0.672874  1
  Si  Si128  1  0.770162  0.189691  0.671664  1
  Si  Si129  1  0.085034  0.528333  0.667744  1
  Si  Si130  1  0.083528  0.827906  0.667621  1
  O  O131  1  0.663956  0.812102  0.604675  1
  O  O132  1  0.330186  0.441817  0.550834  1
  O  O133  1  0.997782  0.746366  0.510803  1
  O  O134  1  0.002081  0.557598  0.606806  1
  O  O135  1  0.335418  0.249320  0.551512  1
  O  O136  1  0.667885  0.192408  0.509246  1
  O  O137  1  0.163509  0.189726  0.561251  1
  O  O138  1  0.831204  0.557181  0.617152  1
  O  O139  1  0.497246  0.250577  0.656800  1
  O  O140  1  0.501550  0.441597  0.560728  1
  O  O141  1  0.835194  0.753809  0.614089  1
  O  O142  1  0.168932  0.806105  0.657520  1
  O  O143  1  0.772940  0.022692  0.533502  1
  O  O144  1  0.439752  0.226593  0.587778  1
  O  O145  1  0.106367  0.751408  0.545056  1
  O  O146  1  0.892060  0.767511  0.536099  1
  O  O147  1  0.225226  0.247460  0.587067  1
  O  O148  1  0.558697  0.981223  0.544032  1
  O  O149  1  0.273160  0.980775  0.631619  1
  O  O150  1  0.941660  0.781725  0.576666  1
  O  O151  1  0.605807  0.247158  0.621928  1
  O  O152  1  0.391931  0.231188  0.631055  1
  O  O153  1  0.725974  0.753633  0.579332  1
  O  O154  1  0.059125  0.015811  0.622735  1
  O  O155  1  0.549233  0.649247  0.626150  1
  O  O156  1  0.215865  0.406612  0.589928  1
  O  O157  1  0.882456  0.943331  0.617437  1
  O  O158  1  0.120431  0.588435  0.627979  1
  O  O159  1  0.451016  0.054546  0.589940  1
  O  O160  1  0.786211  0.353916  0.617000  1
  O  O161  1  0.048781  0.350772  0.540396  1
  O  O162  1  0.717396  0.591014  0.577794  1
  O  O163  1  0.380011  0.057664  0.549563  1
  O  O164  1  0.619781  0.412275  0.538744  1
  O  O165  1  0.953133  0.943831  0.577664  1
  O  O166  1  0.286368  0.644872  0.549943  1
  O  O167  1  0.494417  0.837993  0.613719  1
  O  O168  1  0.161932  0.524495  0.519798  1
  O  O169  1  0.829486  0.640182  0.532146  1
  O  O170  1  0.171188  0.479162  0.614136  1
  O  O171  1  0.505509  0.358528  0.520169  1
  O  O172  1  0.837499  0.161246  0.532837  1
  O  O173  1  0.995516  0.166259  0.551266  1
  O  O174  1  0.663151  0.475115  0.647386  1
  O  O175  1  0.329980  0.359956  0.634611  1
  O  O176  1  0.670929  0.520272  0.553066  1
  O  O177  1  0.004289  0.640700  0.646315  1
  O  O178  1  0.336715  0.833440  0.634572  1
  O  O179  1  0.997782  0.746366  0.677470  1
  O  O180  1  0.667885  0.192408  0.675913  1
  O  O181  1  0.772940  0.022692  0.700169  1
  O  O182  1  0.106367  0.751408  0.711722  1
  O  O183  1  0.892060  0.767511  0.702766  1
  O  O184  1  0.558697  0.981223  0.710698  1
  O  O185  1  0.048781  0.350772  0.707063  1
  O  O186  1  0.380011  0.057664  0.716230  1
  O  O187  1  0.619781  0.412275  0.705412  1
  O  O188  1  0.286368  0.644872  0.716609  1
  O  O189  1  0.161932  0.524495  0.686465  1
  O  O190  1  0.829486  0.640182  0.698813  1
  O  O191  1  0.505509  0.358528  0.686835  1
  O  O192  1  0.837499  0.161246  0.699503  1
  H  H193  1  0.772940  0.022692  0.716082  1
  H  H194  1  0.106367  0.751408  0.727635  1
  H  H195  1  0.892060  0.767511  0.718679  1
  H  H196  1  0.558697  0.981223  0.726611  1
  H  H197  1  0.048781  0.350772  0.722975  1
  H  H198  1  0.380011  0.057664  0.732143  1
  H  H199  1  0.619781  0.412275  0.721325  1
  H  H200  1  0.286368  0.644872  0.732522  1
  H  H201  1  0.161932  0.524495  0.702378  1
  H  H202  1  0.829486  0.640182  0.714726  1
  H  H203  1  0.505509  0.358528  0.702748  1
  H  H204  1  0.837499  0.161246  0.715416  1
