# generated using pymatgen
data_Si12H2O25
_symmetry_space_group_name_H-M   'P 1'
_cell_length_a   13.52203314
_cell_length_b   20.02277416
_cell_length_c   58.32727677
_cell_angle_alpha   132.48095289
_cell_angle_beta   120.00000000
_cell_angle_gamma   70.26486427
_symmetry_Int_Tables_number   1
_chemical_formula_structural   Si12H2O25
_chemical_formula_sum   'Si72 H12 O150'
_cell_volume   10086.2960641
_cell_formula_units_Z   6
loop_
 _symmetry_equiv_pos_site_id
 _symmetry_equiv_pos_as_xyz
  1  'x, y, z'
loop_
 _atom_site_type_symbol
 _atom_site_label
 _atom_site_symmetry_multiplicity
 _atom_site_fract_x
 _atom_site_fract_y
 _atom_site_fract_z
 _atom_site_occupancy
  O  O1  1  0.232893  0.218228  0.254435  1
  O  O2  1  0.232850  0.218134  0.184440  1
  O  O3  1  0.027934  0.166577  0.141902  1
  O  O4  1  0.027945  0.166949  0.225667  1
  O  O5  1  0.304850  0.166720  0.141775  1
  O  O6  1  0.099650  0.207380  0.201502  1
  O  O7  1  0.450263  0.207291  0.201313  1
  O  O8  1  0.361422  0.500211  0.141835  1
  O  O9  1  0.361093  0.500188  0.225577  1
  O  O10  1  0.216205  0.459538  0.232722  1
  O  O11  1  0.432476  0.540755  0.201362  1
  O  O12  1  0.333077  0.333445  0.198583  1
  O  O13  1  0.078437  0.333365  0.198694  1
  O  O14  1  0.200700  0.884780  0.254233  1
  O  O15  1  0.333210  0.833597  0.225579  1
  O  O16  1  0.116906  0.874102  0.201333  1
  O  O17  1  0.411603  0.666889  0.198609  1
  O  O18  1  0.533998  0.218038  0.254241  1
  O  O19  1  0.666571  0.166748  0.225631  1
  O  O20  1  0.882830  0.126308  0.232756  1
  O  O21  1  -0.000000  0.000000  0.198613  1
  O  O22  1  0.745039  0.000000  0.198683  1
  O  O23  1  0.565890  0.551583  0.254285  1
  O  O24  1  0.867376  0.551335  0.254289  1
  O  O25  1  0.566128  0.551522  0.184401  1
  O  O26  1  0.638688  0.499882  0.141763  1
  O  O27  1  0.783527  0.540401  0.201314  1
  O  O28  1  -0.000000  0.499894  0.225602  1
  O  O29  1  0.666664  0.666573  0.198537  1
  O  O30  1  0.899416  0.884800  0.254276  1
  O  O31  1  0.899381  0.884839  0.184358  1
  O  O32  1  0.694477  0.833630  0.141796  1
  O  O33  1  0.694668  0.833246  0.225492  1
  O  O34  1  0.971763  0.833544  0.141772  1
  O  O35  1  0.549514  0.792832  0.232610  1
  O  O36  1  0.765972  0.873953  0.201326  1
  O  O37  1  0.100248  0.115445  0.261168  1
  O  O38  1  0.099945  0.115244  0.331081  1
  O  O39  1  0.232893  0.218228  0.486270  1
  O  O40  1  0.232850  0.218134  0.416275  1
  O  O41  1  0.305169  0.166928  0.290006  1
  O  O42  1  0.027934  0.166577  0.373737  1
  O  O43  1  0.027945  0.166949  0.457501  1
  O  O44  1  0.304850  0.166720  0.373610  1
  O  O45  1  0.233227  0.126246  0.314079  1
  O  O46  1  0.099650  0.207380  0.433337  1
  O  O47  1  0.450305  0.207259  0.282793  1
  O  O48  1  0.450263  0.207291  0.433148  1
  O  O49  1  0.254710  0.000000  0.257769  1
  O  O50  1  0.254475  0.000000  0.316782  1
  O  O51  1  0.433649  0.448645  0.261104  1
  O  O52  1  0.132403  0.448787  0.261237  1
  O  O53  1  0.433905  0.448661  0.331034  1
  O  O54  1  0.361422  0.500211  0.373670  1
  O  O55  1  0.361093  0.500188  0.457412  1
  O  O56  1  0.216205  0.459538  0.464557  1
  O  O57  1  0.216365  0.459632  0.314160  1
  O  O58  1  0.432476  0.540755  0.433196  1
  O  O59  1  0.078447  0.333580  0.257835  1
  O  O60  1  0.333519  0.333510  0.316929  1
  O  O61  1  0.333077  0.333445  0.430418  1
  O  O62  1  0.078437  0.333365  0.430528  1
  O  O63  1  0.465571  0.782175  0.261121  1
  O  O64  1  0.200700  0.884780  0.486068  1
  O  O65  1  0.333210  0.833597  0.457413  1
  O  O66  1  0.333152  0.833493  0.289819  1
  O  O67  1  0.116800  0.873873  0.282693  1
  O  O68  1  0.116906  0.874102  0.433168  1
  O  O69  1  0.411603  0.666889  0.430443  1
  O  O70  1  0.411487  0.666870  0.257684  1
  O  O71  1  0.799092  0.115416  0.261249  1
  O  O72  1  0.533998  0.218038  0.486076  1
  O  O73  1  0.666571  0.166748  0.457466  1
  O  O74  1  0.666440  0.166620  0.289829  1
  O  O75  1  0.882830  0.126308  0.464591  1
  O  O76  1  0.882602  0.126040  0.314176  1
  O  O77  1  0.000000  -0.000000  0.430448  1
  O  O78  1  0.745039  -0.000000  0.430518  1
  O  O79  1  0.588236  0.333279  0.316769  1
  O  O80  1  0.565890  0.551583  0.486119  1
  O  O81  1  0.867376  0.551335  0.486124  1
  O  O82  1  0.566128  0.551522  0.416235  1
  O  O83  1  0.638361  0.500140  0.289837  1
  O  O84  1  0.638688  0.499882  0.373598  1
  O  O85  1  0.567323  0.459446  0.314047  1
  O  O86  1  0.783464  0.540760  0.282792  1
  O  O87  1  0.783527  0.540401  0.433149  1
  O  O88  1  -0.000000  0.499894  0.457437  1
  O  O89  1  0.921339  0.666475  0.257662  1
  O  O90  1  -0.000000  0.500213  0.289940  1
  O  O91  1  0.666664  0.666573  0.430371  1
  O  O92  1  0.588120  0.333346  0.257681  1
  O  O93  1  0.766961  0.781857  0.261054  1
  O  O94  1  0.766915  0.782098  0.331016  1
  O  O95  1  0.899416  0.884800  0.486111  1
  O  O96  1  0.899381  0.884839  0.416192  1
  O  O97  1  0.971815  0.833010  0.289724  1
  O  O98  1  0.694477  0.833630  0.373631  1
  O  O99  1  0.694668  0.833246  0.457327  1
  O  O100  1  0.971763  0.833544  0.373607  1
  O  O101  1  0.900410  0.792777  0.314013  1
  O  O102  1  0.549514  0.792832  0.464445  1
  O  O103  1  0.549435  0.792993  0.314053  1
  O  O104  1  0.765972  0.873953  0.433160  1
  O  O105  1  -0.000000  -0.000000  0.316853  1
  O  O106  1  0.921401  0.666813  0.316833  1
  O  O107  1  0.666314  0.666915  0.316825  1
  O  O108  1  0.744884  -0.000000  0.257691  1
  O  O109  1  0.100248  0.115445  0.493003  1
  O  O110  1  0.099945  0.115244  0.562915  1
  O  O111  1  0.305169  0.166928  0.521841  1
  O  O112  1  0.027934  0.166577  0.605572  1
  O  O113  1  0.304850  0.166720  0.605445  1
  O  O114  1  0.233227  0.126246  0.545913  1
  O  O115  1  0.450305  0.207259  0.514628  1
  O  O116  1  0.254710  -0.000000  0.489603  1
  O  O117  1  0.254475  0.000000  0.548617  1
  O  O118  1  0.433649  0.448645  0.492939  1
  O  O119  1  0.132403  0.448787  0.493071  1
  O  O120  1  0.433905  0.448661  0.562868  1
  O  O121  1  0.361422  0.500211  0.605505  1
  O  O122  1  0.216365  0.459632  0.545995  1
  O  O123  1  0.078447  0.333580  0.489670  1
  O  O124  1  0.333519  0.333510  0.548763  1
  O  O125  1  0.465571  0.782175  0.492955  1
  O  O126  1  0.333152  0.833493  0.521654  1
  O  O127  1  0.116800  0.873873  0.514528  1
  O  O128  1  0.411487  0.666870  0.489519  1
  O  O129  1  0.799092  0.115416  0.493084  1
  O  O130  1  0.666440  0.166620  0.521664  1
  O  O131  1  0.882602  0.126040  0.546011  1
  O  O132  1  0.588236  0.333279  0.548603  1
  O  O133  1  0.638361  0.500140  0.521671  1
  O  O134  1  0.638688  0.499882  0.605432  1
  O  O135  1  0.567323  0.459446  0.545882  1
  O  O136  1  0.783464  0.540760  0.514626  1
  O  O137  1  0.921339  0.666475  0.489496  1
  O  O138  1  -0.000000  0.500213  0.521774  1
  O  O139  1  0.588120  0.333346  0.489516  1
  O  O140  1  0.766961  0.781857  0.492888  1
  O  O141  1  0.766915  0.782098  0.562850  1
  O  O142  1  0.971815  0.833010  0.521559  1
  O  O143  1  0.694477  0.833630  0.605466  1
  O  O144  1  0.971763  0.833544  0.605442  1
  O  O145  1  0.900410  0.792777  0.545848  1
  O  O146  1  0.549435  0.792993  0.545888  1
  O  O147  1  0.000000  0.000000  0.548688  1
  O  O148  1  0.921401  0.666813  0.548667  1
  O  O149  1  0.666314  0.666915  0.548659  1
  O  O150  1  0.744884  -0.000000  0.489526  1
  Si  Si151  1  0.105739  0.229249  0.180834  1
  Si  Si152  1  0.105794  0.229455  0.233766  1
  Si  Si153  1  0.332961  0.229323  0.180740  1
  Si  Si154  1  0.438957  0.562784  0.180780  1
  Si  Si155  1  0.333328  0.437568  0.229050  1
  Si  Si156  1  0.438690  0.562731  0.233619  1
  Si  Si157  1  0.105440  0.437506  0.229131  1
  Si  Si158  1  0.227710  0.896062  0.233617  1
  Si  Si159  1  0.438648  0.771022  0.229045  1
  Si  Si160  1  0.561029  0.229232  0.233603  1
  Si  Si161  1  0.772066  0.104301  0.229168  1
  Si  Si162  1  -0.000000  0.104311  0.226477  1
  Si  Si163  1  0.666438  0.562476  0.180703  1
  Si  Si164  1  0.894328  0.562367  0.233599  1
  Si  Si165  1  0.772218  0.896042  0.180735  1
  Si  Si166  1  0.666754  0.770713  0.228975  1
  Si  Si167  1  0.772250  0.895895  0.233584  1
  Si  Si168  1  0.000000  0.896063  0.180721  1
  Si  Si169  1  0.333197  0.229352  0.286492  1
  Si  Si170  1  0.227361  0.104317  0.281869  1
  Si  Si171  1  0.105739  0.229249  0.412669  1
  Si  Si172  1  0.227045  0.104182  0.334683  1
  Si  Si173  1  0.105794  0.229455  0.465601  1
  Si  Si174  1  0.332961  0.229323  0.412575  1
  Si  Si175  1  0.438957  0.562784  0.412615  1
  Si  Si176  1  0.333328  0.437568  0.460885  1
  Si  Si177  1  0.438690  0.562731  0.465453  1
  Si  Si178  1  0.333667  0.437593  0.334730  1
  Si  Si179  1  0.105416  0.437711  0.281911  1
  Si  Si180  1  0.105440  0.437506  0.460965  1
  Si  Si181  1  0.227710  0.896062  0.465451  1
  Si  Si182  1  0.438648  0.771022  0.460880  1
  Si  Si183  1  0.438607  0.770974  0.281766  1
  Si  Si184  1  0.227590  0.895928  0.286307  1
  Si  Si185  1  0.561029  0.229232  0.465437  1
  Si  Si186  1  0.772066  0.104301  0.461003  1
  Si  Si187  1  0.561027  0.229172  0.286324  1
  Si  Si188  1  0.771993  0.104145  0.281858  1
  Si  Si189  1  -0.000000  0.104022  0.334773  1
  Si  Si190  1  0.000000  0.104311  0.458312  1
  Si  Si191  1  0.666141  0.562774  0.286372  1
  Si  Si192  1  0.894388  0.562664  0.286410  1
  Si  Si193  1  0.666438  0.562476  0.412538  1
  Si  Si194  1  0.894328  0.562367  0.465433  1
  Si  Si195  1  0.560844  0.437477  0.281761  1
  Si  Si196  1  0.561079  0.437413  0.334654  1
  Si  Si197  1  -0.000000  0.895785  0.286326  1
  Si  Si198  1  0.772218  0.896042  0.412570  1
  Si  Si199  1  0.894097  0.770618  0.281715  1
  Si  Si200  1  0.666613  0.771025  0.334678  1
  Si  Si201  1  0.666754  0.770713  0.460810  1
  Si  Si202  1  0.894090  0.770925  0.334662  1
  Si  Si203  1  0.772250  0.895895  0.465419  1
  Si  Si204  1  -0.000000  0.896063  0.412556  1
  Si  Si205  1  0.333197  0.229352  0.518327  1
  Si  Si206  1  0.227361  0.104317  0.513703  1
  Si  Si207  1  0.227045  0.104182  0.566518  1
  Si  Si208  1  0.333667  0.437593  0.566564  1
  Si  Si209  1  0.105416  0.437711  0.513746  1
  Si  Si210  1  0.438607  0.770974  0.513600  1
  Si  Si211  1  0.227590  0.895928  0.518141  1
  Si  Si212  1  0.561027  0.229172  0.518158  1
  Si  Si213  1  0.771993  0.104145  0.513692  1
  Si  Si214  1  -0.000000  0.104022  0.566607  1
  Si  Si215  1  0.666141  0.562774  0.518206  1
  Si  Si216  1  0.894388  0.562664  0.518245  1
  Si  Si217  1  0.560844  0.437477  0.513595  1
  Si  Si218  1  0.561079  0.437413  0.566489  1
  Si  Si219  1  0.000000  0.895785  0.518161  1
  Si  Si220  1  0.894097  0.770618  0.513550  1
  Si  Si221  1  0.666613  0.771025  0.566513  1
  Si  Si222  1  0.894090  0.770925  0.566496  1
  H  H223  1  0.027934  0.166577  0.126472  1
  H  H224  1  0.304850  0.166720  0.126345  1
  H  H225  1  0.361422  0.500211  0.126405  1
  H  H226  1  0.638688  0.499882  0.126333  1
  H  H227  1  0.694477  0.833630  0.126366  1
  H  H228  1  0.971763  0.833544  0.126342  1
  H  H229  1  0.027934  0.166577  0.621002  1
  H  H230  1  0.304850  0.166720  0.620875  1
  H  H231  1  0.361422  0.500211  0.620935  1
  H  H232  1  0.638688  0.499882  0.620862  1
  H  H233  1  0.694477  0.833630  0.620896  1
  H  H234  1  0.971763  0.833544  0.620872  1
