# generated using pymatgen
data_Si28H6O59
_symmetry_space_group_name_H-M   'P 1'
_cell_length_a   15.01225698
_cell_length_b   16.36465187
_cell_length_c   65.98380985
_cell_angle_alpha   30.07656819
_cell_angle_beta   90.00000000
_cell_angle_gamma   90.00000000
_symmetry_Int_Tables_number   1
_chemical_formula_structural   Si28H6O59
_chemical_formula_sum   'Si112 H24 O236'
_cell_volume   8123.88648423
_cell_formula_units_Z   4
loop_
 _symmetry_equiv_pos_site_id
 _symmetry_equiv_pos_as_xyz
  1  'x, y, z'
loop_
 _atom_site_type_symbol
 _atom_site_label
 _atom_site_symmetry_multiplicity
 _atom_site_fract_x
 _atom_site_fract_y
 _atom_site_fract_z
 _atom_site_occupancy
  Si  Si1  1  0.561731  0.812652  0.227957  1
  Si  Si2  1  0.227395  0.410484  0.195196  1
  Si  Si3  1  0.103995  0.589692  0.228830  1
  Si  Si4  1  0.438023  0.220859  0.195628  1
  Si  Si5  1  0.060406  0.186573  0.200283  1
  Si  Si6  1  0.729027  0.588496  0.234024  1
  Si  Si7  1  0.394312  0.224408  0.280573  1
  Si  Si8  1  0.603983  0.410299  0.199979  1
  Si  Si9  1  0.937603  0.780603  0.232152  1
  Si  Si10  1  0.271974  0.810783  0.280887  1
  Si  Si11  1  0.585287  0.472122  0.284780  1
  Si  Si12  1  0.251677  0.465891  0.228511  1
  Si  Si13  1  0.918093  0.062890  0.200941  1
  Si  Si14  1  0.414646  0.936760  0.228302  1
  Si  Si15  1  0.751874  0.532191  0.200697  1
  Si  Si16  1  0.749747  0.836398  0.214112  1
  Si  Si17  1  0.415680  0.337788  0.212978  1
  Si  Si18  1  0.916733  0.663166  0.216426  1
  Si  Si19  1  0.249117  0.168121  0.213332  1
  Si  Si20  1  0.582061  0.168713  0.285471  1
  Si  Si21  1  0.561731  0.812652  0.370814  1
  Si  Si22  1  0.227395  0.410484  0.338053  1
  Si  Si23  1  0.894770  0.774817  0.291035  1
  Si  Si24  1  0.103995  0.589692  0.371687  1
  Si  Si25  1  0.438023  0.220859  0.338485  1
  Si  Si26  1  0.770162  0.189691  0.289998  1
  Si  Si27  1  0.060406  0.186573  0.343140  1
  Si  Si28  1  0.729027  0.588496  0.376881  1
  Si  Si29  1  0.394312  0.224408  0.423430  1
  Si  Si30  1  0.603983  0.410299  0.342836  1
  Si  Si31  1  0.937603  0.780603  0.375009  1
  Si  Si32  1  0.271974  0.810783  0.423744  1
  Si  Si33  1  0.585287  0.472122  0.427637  1
  Si  Si34  1  0.251677  0.465891  0.371368  1
  Si  Si35  1  0.918093  0.062890  0.343798  1
  Si  Si36  1  0.085034  0.528333  0.286638  1
  Si  Si37  1  0.414646  0.936760  0.371159  1
  Si  Si38  1  0.751874  0.532191  0.343554  1
  Si  Si39  1  0.749747  0.836398  0.356969  1
  Si  Si40  1  0.415680  0.337788  0.355835  1
  Si  Si41  1  0.083528  0.827906  0.286532  1
  Si  Si42  1  0.916733  0.663166  0.359283  1
  Si  Si43  1  0.249117  0.168121  0.356189  1
  Si  Si44  1  0.582061  0.168713  0.428328  1
  O  O45  1  0.663956  0.812102  0.232579  1
  O  O46  1  0.330186  0.441817  0.186429  1
  O  O47  1  0.002081  0.557598  0.234405  1
  O  O48  1  0.335418  0.249320  0.187010  1
  O  O49  1  0.163509  0.189726  0.195358  1
  O  O50  1  0.831204  0.557181  0.243273  1
  O  O51  1  0.497246  0.250577  0.277257  1
  O  O52  1  0.501550  0.441597  0.194910  1
  O  O53  1  0.835194  0.753809  0.240648  1
  O  O54  1  0.168932  0.806105  0.277874  1
  O  O55  1  0.772940  0.022692  0.171573  1
  O  O56  1  0.439752  0.226593  0.218095  1
  O  O57  1  0.106367  0.751408  0.181476  1
  O  O58  1  0.892060  0.767511  0.173799  1
  O  O59  1  0.225226  0.247460  0.217486  1
  O  O60  1  0.558697  0.981223  0.180598  1
  O  O61  1  0.273160  0.980775  0.255673  1
  O  O62  1  0.941660  0.781725  0.208571  1
  O  O63  1  0.605807  0.247158  0.247367  1
  O  O64  1  0.391931  0.231188  0.255190  1
  O  O65  1  0.725974  0.753633  0.210856  1
  O  O66  1  0.059125  0.015811  0.248059  1
  O  O67  1  0.549233  0.649247  0.250986  1
  O  O68  1  0.215865  0.406612  0.219939  1
  O  O69  1  0.882456  0.943331  0.243518  1
  O  O70  1  0.120431  0.588435  0.252554  1
  O  O71  1  0.451016  0.054546  0.219949  1
  O  O72  1  0.786211  0.353916  0.243143  1
  O  O73  1  0.048781  0.350772  0.177482  1
  O  O74  1  0.717396  0.591014  0.209538  1
  O  O75  1  0.380011  0.057664  0.185340  1
  O  O76  1  0.619781  0.412275  0.176067  1
  O  O77  1  0.953133  0.943831  0.209426  1
  O  O78  1  0.286368  0.644872  0.185665  1
  O  O79  1  0.494417  0.837993  0.240331  1
  O  O80  1  0.161932  0.524495  0.159827  1
  O  O81  1  0.829486  0.640182  0.170411  1
  O  O82  1  0.171188  0.479162  0.240688  1
  O  O83  1  0.505509  0.358528  0.160145  1
  O  O84  1  0.837499  0.161246  0.171003  1
  O  O85  1  0.995516  0.166259  0.186800  1
  O  O86  1  0.663151  0.475115  0.269188  1
  O  O87  1  0.329980  0.359956  0.258238  1
  O  O88  1  0.670929  0.520272  0.188343  1
  O  O89  1  0.004289  0.640700  0.268270  1
  O  O90  1  0.336715  0.833440  0.258205  1
  O  O91  1  0.663956  0.812102  0.375436  1
  O  O92  1  0.330186  0.441817  0.329286  1
  O  O93  1  0.997782  0.746366  0.294974  1
  O  O94  1  0.002081  0.557598  0.377263  1
  O  O95  1  0.335418  0.249320  0.329867  1
  O  O96  1  0.667885  0.192408  0.293640  1
  O  O97  1  0.163509  0.189726  0.338215  1
  O  O98  1  0.831204  0.557181  0.386131  1
  O  O99  1  0.497246  0.250577  0.420115  1
  O  O100  1  0.501550  0.441597  0.337767  1
  O  O101  1  0.835194  0.753809  0.383505  1
  O  O102  1  0.168932  0.806105  0.420731  1
  O  O103  1  0.772940  0.022692  0.314431  1
  O  O104  1  0.439752  0.226593  0.360953  1
  O  O105  1  0.106367  0.751408  0.324333  1
  O  O106  1  0.892060  0.767511  0.316656  1
  O  O107  1  0.225226  0.247460  0.360343  1
  O  O108  1  0.558697  0.981223  0.323456  1
  O  O109  1  0.273160  0.980775  0.398530  1
  O  O110  1  0.941660  0.781725  0.351429  1
  O  O111  1  0.605807  0.247158  0.390224  1
  O  O112  1  0.391931  0.231188  0.398047  1
  O  O113  1  0.725974  0.753633  0.353713  1
  O  O114  1  0.059125  0.015811  0.390916  1
  O  O115  1  0.549233  0.649247  0.393843  1
  O  O116  1  0.215865  0.406612  0.362796  1
  O  O117  1  0.882456  0.943331  0.386375  1
  O  O118  1  0.120431  0.588435  0.395411  1
  O  O119  1  0.451016  0.054546  0.362806  1
  O  O120  1  0.786211  0.353916  0.386000  1
  O  O121  1  0.048781  0.350772  0.320339  1
  O  O122  1  0.717396  0.591014  0.352395  1
  O  O123  1  0.380011  0.057664  0.328197  1
  O  O124  1  0.619781  0.412275  0.318924  1
  O  O125  1  0.953133  0.943831  0.352284  1
  O  O126  1  0.286368  0.644872  0.328522  1
  O  O127  1  0.494417  0.837993  0.383188  1
  O  O128  1  0.161932  0.524495  0.302684  1
  O  O129  1  0.829486  0.640182  0.313268  1
  O  O130  1  0.171188  0.479162  0.383545  1
  O  O131  1  0.505509  0.358528  0.303002  1
  O  O132  1  0.837499  0.161246  0.313860  1
  O  O133  1  0.995516  0.166259  0.329657  1
  O  O134  1  0.663151  0.475115  0.412045  1
  O  O135  1  0.329980  0.359956  0.401095  1
  O  O136  1  0.670929  0.520272  0.331200  1
  O  O137  1  0.004289  0.640700  0.411127  1
  O  O138  1  0.336715  0.833440  0.401062  1
  H  H139  1  0.772940  0.022692  0.157934  1
  H  H140  1  0.106367  0.751408  0.167836  1
  H  H141  1  0.892060  0.767511  0.160160  1
  H  H142  1  0.558697  0.981223  0.166959  1
  H  H143  1  0.048781  0.350772  0.163842  1
  H  H144  1  0.380011  0.057664  0.171700  1
  H  H145  1  0.619781  0.412275  0.162427  1
  H  H146  1  0.286368  0.644872  0.172025  1
  H  H147  1  0.161932  0.524495  0.146187  1
  H  H148  1  0.829486  0.640182  0.156771  1
  H  H149  1  0.505509  0.358528  0.146505  1
  H  H150  1  0.837499  0.161246  0.157363  1
  O  O151  1  0.663956  0.812102  0.518293  1
  O  O152  1  0.330186  0.441817  0.472143  1
  O  O153  1  0.997782  0.746366  0.437831  1
  O  O154  1  0.002081  0.557598  0.520120  1
  O  O155  1  0.335418  0.249320  0.472724  1
  O  O156  1  0.667885  0.192408  0.436497  1
  O  O157  1  0.163509  0.189726  0.481072  1
  O  O158  1  0.831204  0.557181  0.528988  1
  O  O159  1  0.497246  0.250577  0.562972  1
  O  O160  1  0.501550  0.441597  0.480624  1
  O  O161  1  0.835194  0.753809  0.526362  1
  O  O162  1  0.168932  0.806105  0.563588  1
  O  O163  1  0.772940  0.022692  0.457288  1
  O  O164  1  0.439752  0.226593  0.503810  1
  O  O165  1  0.106367  0.751408  0.467190  1
  O  O166  1  0.892060  0.767511  0.459514  1
  O  O167  1  0.225226  0.247460  0.503200  1
  O  O168  1  0.558697  0.981223  0.466313  1
  O  O169  1  0.273160  0.980775  0.541388  1
  O  O170  1  0.941660  0.781725  0.494286  1
  O  O171  1  0.605807  0.247158  0.533081  1
  O  O172  1  0.391931  0.231188  0.540904  1
  O  O173  1  0.725974  0.753633  0.496571  1
  O  O174  1  0.059125  0.015811  0.533773  1
  O  O175  1  0.549233  0.649247  0.536700  1
  O  O176  1  0.215865  0.406612  0.505653  1
  O  O177  1  0.882456  0.943331  0.529232  1
  O  O178  1  0.120431  0.588435  0.538268  1
  O  O179  1  0.451016  0.054546  0.505663  1
  O  O180  1  0.786211  0.353916  0.528857  1
  O  O181  1  0.048781  0.350772  0.463196  1
  O  O182  1  0.717396  0.591014  0.495252  1
  O  O183  1  0.380011  0.057664  0.471054  1
  O  O184  1  0.619781  0.412275  0.461781  1
  O  O185  1  0.953133  0.943831  0.495141  1
  O  O186  1  0.286368  0.644872  0.471379  1
  O  O187  1  0.494417  0.837993  0.526045  1
  O  O188  1  0.161932  0.524495  0.445541  1
  O  O189  1  0.829486  0.640182  0.456125  1
  O  O190  1  0.171188  0.479162  0.526402  1
  O  O191  1  0.505509  0.358528  0.445859  1
  O  O192  1  0.837499  0.161246  0.456717  1
  O  O193  1  0.995516  0.166259  0.472514  1
  O  O194  1  0.663151  0.475115  0.554902  1
  O  O195  1  0.329980  0.359956  0.543952  1
  O  O196  1  0.670929  0.520272  0.474057  1
  O  O197  1  0.004289  0.640700  0.553984  1
  O  O198  1  0.336715  0.833440  0.543919  1
  Si  Si199  1  0.561731  0.812652  0.513671  1
  Si  Si200  1  0.227395  0.410484  0.480911  1
  Si  Si201  1  0.894770  0.774817  0.433892  1
  Si  Si202  1  0.103995  0.589692  0.514544  1
  Si  Si203  1  0.438023  0.220859  0.481342  1
  Si  Si204  1  0.770162  0.189691  0.432855  1
  Si  Si205  1  0.060406  0.186573  0.485997  1
  Si  Si206  1  0.729027  0.588496  0.519738  1
  Si  Si207  1  0.394312  0.224408  0.566287  1
  Si  Si208  1  0.603983  0.410299  0.485693  1
  Si  Si209  1  0.937603  0.780603  0.517866  1
  Si  Si210  1  0.271974  0.810783  0.566602  1
  Si  Si211  1  0.585287  0.472122  0.570494  1
  Si  Si212  1  0.251677  0.465891  0.514225  1
  Si  Si213  1  0.918093  0.062890  0.486656  1
  Si  Si214  1  0.085034  0.528333  0.429495  1
  Si  Si215  1  0.414646  0.936760  0.514016  1
  Si  Si216  1  0.751874  0.532191  0.486411  1
  Si  Si217  1  0.749747  0.836398  0.499826  1
  Si  Si218  1  0.415680  0.337788  0.498692  1
  Si  Si219  1  0.083528  0.827906  0.429389  1
  Si  Si220  1  0.916733  0.663166  0.502140  1
  Si  Si221  1  0.249117  0.168121  0.499046  1
  Si  Si222  1  0.582061  0.168713  0.571186  1
  Si  Si223  1  0.561731  0.812652  0.656528  1
  Si  Si224  1  0.227395  0.410484  0.623768  1
  Si  Si225  1  0.894770  0.774817  0.576749  1
  Si  Si226  1  0.103995  0.589692  0.657401  1
  Si  Si227  1  0.438023  0.220859  0.624199  1
  Si  Si228  1  0.770162  0.189691  0.575713  1
  Si  Si229  1  0.060406  0.186573  0.628854  1
  Si  Si230  1  0.729027  0.588496  0.662595  1
  Si  Si231  1  0.394312  0.224408  0.709144  1
  Si  Si232  1  0.603983  0.410299  0.628550  1
  Si  Si233  1  0.937603  0.780603  0.660724  1
  Si  Si234  1  0.271974  0.810783  0.709459  1
  Si  Si235  1  0.585287  0.472122  0.713351  1
  Si  Si236  1  0.251677  0.465891  0.657082  1
  Si  Si237  1  0.918093  0.062890  0.629513  1
  Si  Si238  1  0.085034  0.528333  0.572352  1
  Si  Si239  1  0.414646  0.936760  0.656873  1
  Si  Si240  1  0.751874  0.532191  0.629268  1
  Si  Si241  1  0.749747  0.836398  0.642684  1
  Si  Si242  1  0.415680  0.337788  0.641549  1
  Si  Si243  1  0.083528  0.827906  0.572246  1
  Si  Si244  1  0.916733  0.663166  0.644998  1
  Si  Si245  1  0.249117  0.168121  0.641904  1
  Si  Si246  1  0.582061  0.168713  0.714043  1
  Si  Si247  1  0.561731  0.812652  0.799385  1
  Si  Si248  1  0.227395  0.410484  0.766625  1
  Si  Si249  1  0.894770  0.774817  0.719607  1
  Si  Si250  1  0.103995  0.589692  0.800258  1
  Si  Si251  1  0.438023  0.220859  0.767056  1
  Si  Si252  1  0.770162  0.189691  0.718570  1
  Si  Si253  1  0.060406  0.186573  0.771711  1
  Si  Si254  1  0.729027  0.588496  0.805452  1
  Si  Si255  1  0.603983  0.410299  0.771407  1
  Si  Si256  1  0.937603  0.780603  0.803581  1
  Si  Si257  1  0.251677  0.465891  0.799939  1
  Si  Si258  1  0.918093  0.062890  0.772370  1
  Si  Si259  1  0.085034  0.528333  0.715209  1
  Si  Si260  1  0.414646  0.936760  0.799731  1
  Si  Si261  1  0.751874  0.532191  0.772125  1
  Si  Si262  1  0.749747  0.836398  0.785541  1
  Si  Si263  1  0.415680  0.337788  0.784406  1
  Si  Si264  1  0.083528  0.827906  0.715104  1
  Si  Si265  1  0.916733  0.663166  0.787855  1
  Si  Si266  1  0.249117  0.168121  0.784761  1
  O  O267  1  0.663956  0.812102  0.661150  1
  O  O268  1  0.330186  0.441817  0.615001  1
  O  O269  1  0.997782  0.746366  0.580689  1
  O  O270  1  0.002081  0.557598  0.662977  1
  O  O271  1  0.335418  0.249320  0.615581  1
  O  O272  1  0.667885  0.192408  0.579354  1
  O  O273  1  0.163509  0.189726  0.623929  1
  O  O274  1  0.831204  0.557181  0.671845  1
  O  O275  1  0.497246  0.250577  0.705829  1
  O  O276  1  0.501550  0.441597  0.623481  1
  O  O277  1  0.835194  0.753809  0.669220  1
  O  O278  1  0.168932  0.806105  0.706445  1
  O  O279  1  0.772940  0.022692  0.600145  1
  O  O280  1  0.439752  0.226593  0.646667  1
  O  O281  1  0.106367  0.751408  0.610048  1
  O  O282  1  0.892060  0.767511  0.602371  1
  O  O283  1  0.225226  0.247460  0.646057  1
  O  O284  1  0.558697  0.981223  0.609170  1
  O  O285  1  0.273160  0.980775  0.684245  1
  O  O286  1  0.941660  0.781725  0.637143  1
  O  O287  1  0.605807  0.247158  0.675938  1
  O  O288  1  0.391931  0.231188  0.683761  1
  O  O289  1  0.725974  0.753633  0.639428  1
  O  O290  1  0.059125  0.015811  0.676630  1
  O  O291  1  0.549233  0.649247  0.679558  1
  O  O292  1  0.215865  0.406612  0.648510  1
  O  O293  1  0.882456  0.943331  0.672089  1
  O  O294  1  0.120431  0.588435  0.681125  1
  O  O295  1  0.451016  0.054546  0.648520  1
  O  O296  1  0.786211  0.353916  0.671714  1
  O  O297  1  0.048781  0.350772  0.606054  1
  O  O298  1  0.717396  0.591014  0.638109  1
  O  O299  1  0.380011  0.057664  0.613912  1
  O  O300  1  0.619781  0.412275  0.604638  1
  O  O301  1  0.953133  0.943831  0.637998  1
  O  O302  1  0.286368  0.644872  0.614236  1
  O  O303  1  0.494417  0.837993  0.668902  1
  O  O304  1  0.161932  0.524495  0.588398  1
  O  O305  1  0.829486  0.640182  0.598982  1
  O  O306  1  0.171188  0.479162  0.669259  1
  O  O307  1  0.505509  0.358528  0.588716  1
  O  O308  1  0.837499  0.161246  0.599574  1
  O  O309  1  0.995516  0.166259  0.615371  1
  O  O310  1  0.663151  0.475115  0.697759  1
  O  O311  1  0.329980  0.359956  0.686809  1
  O  O312  1  0.670929  0.520272  0.616914  1
  O  O313  1  0.004289  0.640700  0.696841  1
  O  O314  1  0.336715  0.833440  0.686776  1
  O  O315  1  0.663956  0.812102  0.804007  1
  O  O316  1  0.330186  0.441817  0.757858  1
  O  O317  1  0.997782  0.746366  0.723546  1
  O  O318  1  0.002081  0.557598  0.805834  1
  O  O319  1  0.335418  0.249320  0.758439  1
  O  O320  1  0.667885  0.192408  0.722211  1
  O  O321  1  0.163509  0.189726  0.766786  1
  O  O322  1  0.831204  0.557181  0.814702  1
  O  O323  1  0.501550  0.441597  0.766338  1
  O  O324  1  0.835194  0.753809  0.812077  1
  O  O325  1  0.772940  0.022692  0.743002  1
  O  O326  1  0.439752  0.226593  0.789524  1
  O  O327  1  0.106367  0.751408  0.752905  1
  O  O328  1  0.892060  0.767511  0.745228  1
  O  O329  1  0.225226  0.247460  0.788914  1
  O  O330  1  0.558697  0.981223  0.752027  1
  O  O331  1  0.273160  0.980775  0.827102  1
  O  O332  1  0.941660  0.781725  0.780000  1
  O  O333  1  0.605807  0.247158  0.818795  1
  O  O334  1  0.391931  0.231188  0.826618  1
  O  O335  1  0.725974  0.753633  0.782285  1
  O  O336  1  0.059125  0.015811  0.819487  1
  O  O337  1  0.549233  0.649247  0.822415  1
  O  O338  1  0.215865  0.406612  0.791367  1
  O  O339  1  0.882456  0.943331  0.814946  1
  O  O340  1  0.120431  0.588435  0.823982  1
  O  O341  1  0.451016  0.054546  0.791378  1
  O  O342  1  0.786211  0.353916  0.814572  1
  O  O343  1  0.048781  0.350772  0.748911  1
  O  O344  1  0.717396  0.591014  0.780966  1
  O  O345  1  0.380011  0.057664  0.756769  1
  O  O346  1  0.619781  0.412275  0.747496  1
  O  O347  1  0.953133  0.943831  0.780855  1
  O  O348  1  0.286368  0.644872  0.757093  1
  O  O349  1  0.494417  0.837993  0.811759  1
  O  O350  1  0.161932  0.524495  0.731256  1
  O  O351  1  0.829486  0.640182  0.741840  1
  O  O352  1  0.171188  0.479162  0.812116  1
  O  O353  1  0.505509  0.358528  0.731573  1
  O  O354  1  0.837499  0.161246  0.742431  1
  O  O355  1  0.995516  0.166259  0.758228  1
  O  O356  1  0.663151  0.475115  0.840616  1
  O  O357  1  0.329980  0.359956  0.829667  1
  O  O358  1  0.670929  0.520272  0.759771  1
  O  O359  1  0.004289  0.640700  0.839699  1
  O  O360  1  0.336715  0.833440  0.829634  1
  H  H361  1  0.273160  0.980775  0.840742  1
  H  H362  1  0.605807  0.247158  0.832435  1
  H  H363  1  0.391931  0.231188  0.840258  1
  H  H364  1  0.059125  0.015811  0.833127  1
  H  H365  1  0.549233  0.649247  0.836054  1
  H  H366  1  0.882456  0.943331  0.828586  1
  H  H367  1  0.120431  0.588435  0.837622  1
  H  H368  1  0.786211  0.353916  0.828211  1
  H  H369  1  0.663151  0.475115  0.854256  1
  H  H370  1  0.329980  0.359956  0.843307  1
  H  H371  1  0.004289  0.640700  0.853339  1
  H  H372  1  0.336715  0.833440  0.843274  1
