# generated using pymatgen
data_Si30H2O61
_symmetry_space_group_name_H-M   'P 1'
_cell_length_a   5.07185669
_cell_length_b   13.91779927
_cell_length_c   63.27679536
_cell_angle_alpha   90.00000000
_cell_angle_beta   90.00000000
_cell_angle_gamma   90.00000000
_symmetry_Int_Tables_number   1
_chemical_formula_structural   Si30H2O61
_chemical_formula_sum   'Si60 H4 O122'
_cell_volume   4466.65098097
_cell_formula_units_Z   2
loop_
 _symmetry_equiv_pos_site_id
 _symmetry_equiv_pos_as_xyz
  1  'x, y, z'
loop_
 _atom_site_type_symbol
 _atom_site_label
 _atom_site_symmetry_multiplicity
 _atom_site_fract_x
 _atom_site_fract_y
 _atom_site_fract_z
 _atom_site_occupancy
  O  O1  1  0.990821  0.826327  0.188884  1
  O  O2  1  0.491976  0.325898  0.189436  1
  O  O3  1  0.005620  0.826342  0.259729  1
  O  O4  1  0.502646  0.325771  0.259277  1
  O  O5  1  0.991768  0.173667  0.128631  1
  O  O6  1  0.491135  0.674048  0.128234  1
  O  O7  1  0.216623  0.247666  0.287482  1
  O  O8  1  0.293649  0.748309  0.287753  1
  O  O9  1  0.284166  0.749592  0.160899  1
  O  O10  1  0.707862  0.253456  0.156812  1
  O  O11  1  0.784143  0.750280  0.156318  1
  O  O12  1  0.207765  0.247419  0.161074  1
  O  O13  1  0.000000  0.639993  0.183018  1
  O  O14  1  0.498021  0.139751  0.183088  1
  O  O15  1  0.007515  0.639769  0.265543  1
  O  O16  1  0.506625  0.139533  0.265509  1
  O  O17  1  0.000000  0.360009  0.134547  1
  O  O18  1  0.497102  0.860393  0.134353  1
  O  O19  1  0.733008  0.981027  0.193840  1
  O  O20  1  0.232940  0.480849  0.194719  1
  O  O21  1  0.227887  0.986279  0.191639  1
  O  O22  1  0.727139  0.486611  0.190261  1
  O  O23  1  0.273070  0.979775  0.254964  1
  O  O24  1  0.730438  0.487590  0.258153  1
  O  O25  1  0.778222  0.987420  0.256857  1
  O  O26  1  0.236108  0.479403  0.254123  1
  O  O27  1  0.220017  0.012224  0.126271  1
  O  O28  1  0.730695  0.513913  0.127100  1
  O  O29  1  0.725131  0.020691  0.123442  1
  O  O30  1  0.236485  0.518527  0.122872  1
  O  O31  1  0.005756  0.085478  0.093267  1
  O  O32  1  0.531982  0.582569  0.093241  1
  O  O33  1  0.003456  0.914243  0.224310  1
  O  O34  1  0.531730  0.418235  0.224306  1
  O  O35  1  0.507299  0.000000  0.158766  1
  O  O36  1  0.029949  0.500080  0.158763  1
  O  O37  1  0.006484  0.173361  0.320018  1
  O  O38  1  0.501796  0.673613  0.320364  1
  O  O39  1  0.990821  0.826327  0.451090  1
  O  O40  1  0.491976  0.325898  0.451643  1
  O  O41  1  0.005620  0.826342  0.521936  1
  O  O42  1  0.502646  0.325771  0.521484  1
  O  O43  1  0.991768  0.173667  0.390838  1
  O  O44  1  0.491135  0.674048  0.390441  1
  O  O45  1  0.216623  0.247666  0.549689  1
  O  O46  1  0.793465  0.750514  0.292186  1
  O  O47  1  0.716843  0.252160  0.291941  1
  O  O48  1  0.293649  0.748309  0.549960  1
  O  O49  1  0.284166  0.749592  0.423106  1
  O  O50  1  0.707862  0.253456  0.419019  1
  O  O51  1  0.784143  0.750280  0.418524  1
  O  O52  1  0.207765  0.247419  0.423281  1
  O  O53  1  0.008295  0.359706  0.314073  1
  O  O54  1  0.506357  0.859948  0.314170  1
  O  O55  1  -0.000000  0.639993  0.445225  1
  O  O56  1  0.498021  0.139751  0.445294  1
  O  O57  1  0.007515  0.639769  0.527750  1
  O  O58  1  0.506625  0.139533  0.527715  1
  O  O59  1  0.000000  0.360009  0.396754  1
  O  O60  1  0.497102  0.860393  0.396559  1
  O  O61  1  0.767057  0.014347  0.323401  1
  O  O62  1  0.240417  0.519184  0.325582  1
  O  O63  1  0.261859  0.017433  0.324383  1
  O  O64  1  0.734866  0.512455  0.321845  1
  O  O65  1  0.733008  0.981027  0.456046  1
  O  O66  1  0.232940  0.480849  0.456925  1
  O  O67  1  0.227887  0.986279  0.453846  1
  O  O68  1  0.727139  0.486611  0.452468  1
  O  O69  1  0.273070  0.979775  0.517170  1
  O  O70  1  0.730438  0.487590  0.520359  1
  O  O71  1  0.778222  0.987420  0.519063  1
  O  O72  1  0.236108  0.479403  0.516329  1
  O  O73  1  0.220017  0.012224  0.388478  1
  O  O74  1  0.730695  0.513913  0.389307  1
  O  O75  1  0.725131  0.020691  0.385649  1
  O  O76  1  0.236485  0.518527  0.385078  1
  O  O77  1  0.005756  0.085478  0.355474  1
  O  O78  1  0.531982  0.582569  0.355448  1
  O  O79  1  0.003456  0.914243  0.486516  1
  O  O80  1  0.531730  0.418235  0.486512  1
  O  O81  1  0.500884  0.000000  0.289881  1
  O  O82  1  0.029550  0.500022  0.289891  1
  O  O83  1  0.507299  0.000000  0.420973  1
  O  O84  1  0.029949  0.500080  0.420970  1
  O  O85  1  0.006484  0.173361  0.582225  1
  O  O86  1  0.501796  0.673613  0.582571  1
  O  O87  1  0.990821  0.826327  0.713297  1
  O  O88  1  0.491976  0.325898  0.713849  1
  O  O89  1  0.991768  0.173667  0.653045  1
  O  O90  1  0.491135  0.674048  0.652648  1
  O  O91  1  0.793465  0.750514  0.554392  1
  O  O92  1  0.716843  0.252160  0.554148  1
  O  O93  1  0.284166  0.749592  0.685312  1
  O  O94  1  0.707862  0.253456  0.681225  1
  O  O95  1  0.784143  0.750280  0.680731  1
  O  O96  1  0.207765  0.247419  0.685487  1
  O  O97  1  0.008295  0.359706  0.576280  1
  O  O98  1  0.506357  0.859948  0.576376  1
  O  O99  1  0.000000  0.639993  0.707431  1
  O  O100  1  0.498021  0.139751  0.707501  1
  O  O101  1  0.000000  0.360009  0.658961  1
  O  O102  1  0.497102  0.860393  0.658766  1
  O  O103  1  0.767057  0.014347  0.585607  1
  O  O104  1  0.240417  0.519184  0.587789  1
  O  O105  1  0.261859  0.017433  0.586589  1
  O  O106  1  0.734866  0.512455  0.584052  1
  O  O107  1  0.733008  0.981027  0.718253  1
  O  O108  1  0.232940  0.480849  0.719132  1
  O  O109  1  0.227887  0.986279  0.716052  1
  O  O110  1  0.727139  0.486611  0.714674  1
  O  O111  1  0.220017  0.012224  0.650684  1
  O  O112  1  0.730695  0.513913  0.651514  1
  O  O113  1  0.725131  0.020691  0.647856  1
  O  O114  1  0.236485  0.518527  0.647285  1
  O  O115  1  0.005756  0.085478  0.617681  1
  O  O116  1  0.531982  0.582569  0.617654  1
  O  O117  1  0.003456  0.914243  0.748723  1
  O  O118  1  0.531730  0.418235  0.748719  1
  O  O119  1  0.500884  0.000000  0.552088  1
  O  O120  1  0.029550  0.500022  0.552098  1
  O  O121  1  0.507299  0.000000  0.683180  1
  O  O122  1  0.029949  0.500080  0.683176  1
  Si  Si123  1  0.014142  0.742585  0.172591  1
  Si  Si124  1  0.477113  0.242679  0.172919  1
  Si  Si125  1  0.024142  0.742300  0.275984  1
  Si  Si126  1  0.486532  0.242348  0.275743  1
  Si  Si127  1  0.977201  0.257562  0.144946  1
  Si  Si128  1  0.514031  0.757561  0.144628  1
  Si  Si129  1  0.989979  0.926572  0.199905  1
  Si  Si130  1  0.495953  0.427496  0.199929  1
  Si  Si131  1  0.014752  0.926582  0.248722  1
  Si  Si132  1  0.500074  0.427249  0.248723  1
  Si  Si133  1  0.986320  0.073308  0.117657  1
  Si  Si134  1  0.497906  0.572726  0.117618  1
  Si  Si135  1  0.490741  0.026701  0.182576  1
  Si  Si136  1  0.996858  0.526888  0.182512  1
  Si  Si137  1  0.514917  0.026571  0.266069  1
  Si  Si138  1  -0.000000  0.526687  0.266116  1
  Si  Si139  1  0.486682  0.973365  0.134960  1
  Si  Si140  1  -0.000000  0.473132  0.135004  1
  Si  Si141  1  0.986935  0.257143  0.303705  1
  Si  Si142  1  0.523767  0.757045  0.303954  1
  Si  Si143  1  0.014142  0.742585  0.434798  1
  Si  Si144  1  0.477113  0.242679  0.435126  1
  Si  Si145  1  0.024142  0.742300  0.538191  1
  Si  Si146  1  0.486532  0.242348  0.537949  1
  Si  Si147  1  0.977201  0.257562  0.407153  1
  Si  Si148  1  0.514031  0.757561  0.406835  1
  Si  Si149  1  0.009607  0.073159  0.331045  1
  Si  Si150  1  0.502451  0.572423  0.331039  1
  Si  Si151  1  0.989979  0.926572  0.462112  1
  Si  Si152  1  0.495953  0.427496  0.462135  1
  Si  Si153  1  0.014752  0.926582  0.510929  1
  Si  Si154  1  0.500074  0.427249  0.510929  1
  Si  Si155  1  0.986320  0.073308  0.379864  1
  Si  Si156  1  0.497906  0.572726  0.379825  1
  Si  Si157  1  0.509394  0.972966  0.313685  1
  Si  Si158  1  0.003164  0.472803  0.313653  1
  Si  Si159  1  0.490741  0.026701  0.444783  1
  Si  Si160  1  0.996858  0.526888  0.444719  1
  Si  Si161  1  0.514917  0.026571  0.528275  1
  Si  Si162  1  0.000000  0.526687  0.528323  1
  Si  Si163  1  0.486682  0.973365  0.397167  1
  Si  Si164  1  -0.000000  0.473132  0.397211  1
  Si  Si165  1  0.986935  0.257143  0.565912  1
  Si  Si166  1  0.523767  0.757045  0.566161  1
  Si  Si167  1  0.014142  0.742585  0.697004  1
  Si  Si168  1  0.477113  0.242679  0.697333  1
  Si  Si169  1  0.977201  0.257562  0.669360  1
  Si  Si170  1  0.514031  0.757561  0.669041  1
  Si  Si171  1  0.009607  0.073159  0.593252  1
  Si  Si172  1  0.502451  0.572423  0.593245  1
  Si  Si173  1  0.989979  0.926572  0.724318  1
  Si  Si174  1  0.495953  0.427496  0.724342  1
  Si  Si175  1  0.986320  0.073308  0.642070  1
  Si  Si176  1  0.497906  0.572726  0.642031  1
  Si  Si177  1  0.509394  0.972966  0.575892  1
  Si  Si178  1  0.003164  0.472803  0.575860  1
  Si  Si179  1  0.490741  0.026701  0.706990  1
  Si  Si180  1  0.996858  0.526888  0.706925  1
  Si  Si181  1  0.486682  0.973365  0.659373  1
  Si  Si182  1  0.000000  0.473132  0.659417  1
  H  H183  1  0.005756  0.085478  0.079044  1
  H  H184  1  0.531982  0.582569  0.079018  1
  H  H185  1  0.003456  0.914243  0.762946  1
  H  H186  1  0.531730  0.418235  0.762942  1
