# generated using pymatgen
data_Si20H6O43
_symmetry_space_group_name_H-M   'P 1'
_cell_length_a   15.01225698
_cell_length_b   16.36465187
_cell_length_c   65.98380985
_cell_angle_alpha   30.07656819
_cell_angle_beta   90.00000000
_cell_angle_gamma   90.00000000
_symmetry_Int_Tables_number   1
_chemical_formula_structural   Si20H6O43
_chemical_formula_sum   'Si80 H24 O172'
_cell_volume   8123.88648423
_cell_formula_units_Z   4
loop_
 _symmetry_equiv_pos_site_id
 _symmetry_equiv_pos_as_xyz
  1  'x, y, z'
loop_
 _atom_site_type_symbol
 _atom_site_label
 _atom_site_symmetry_multiplicity
 _atom_site_fract_x
 _atom_site_fract_y
 _atom_site_fract_z
 _atom_site_occupancy
  Si  Si1  1  0.394312  0.224408  0.280573  1
  Si  Si2  1  0.271974  0.810783  0.280887  1
  Si  Si3  1  0.585287  0.472122  0.284780  1
  Si  Si4  1  0.582061  0.168713  0.285471  1
  Si  Si5  1  0.561731  0.812652  0.370814  1
  Si  Si6  1  0.227395  0.410484  0.338053  1
  Si  Si7  1  0.894770  0.774817  0.291035  1
  Si  Si8  1  0.103995  0.589692  0.371687  1
  Si  Si9  1  0.438023  0.220859  0.338485  1
  Si  Si10  1  0.770162  0.189691  0.289998  1
  Si  Si11  1  0.060406  0.186573  0.343140  1
  Si  Si12  1  0.729027  0.588496  0.376881  1
  Si  Si13  1  0.394312  0.224408  0.423430  1
  Si  Si14  1  0.603983  0.410299  0.342836  1
  Si  Si15  1  0.937603  0.780603  0.375009  1
  Si  Si16  1  0.271974  0.810783  0.423744  1
  Si  Si17  1  0.585287  0.472122  0.427637  1
  Si  Si18  1  0.251677  0.465891  0.371368  1
  Si  Si19  1  0.918093  0.062890  0.343798  1
  Si  Si20  1  0.085034  0.528333  0.286638  1
  Si  Si21  1  0.414646  0.936760  0.371159  1
  Si  Si22  1  0.751874  0.532191  0.343554  1
  Si  Si23  1  0.749747  0.836398  0.356969  1
  Si  Si24  1  0.415680  0.337788  0.355835  1
  Si  Si25  1  0.083528  0.827906  0.286532  1
  Si  Si26  1  0.916733  0.663166  0.359283  1
  Si  Si27  1  0.249117  0.168121  0.356189  1
  Si  Si28  1  0.582061  0.168713  0.428328  1
  O  O29  1  0.497246  0.250577  0.277257  1
  O  O30  1  0.168932  0.806105  0.277874  1
  O  O31  1  0.273160  0.980775  0.255673  1
  O  O32  1  0.605807  0.247158  0.247367  1
  O  O33  1  0.391931  0.231188  0.255190  1
  O  O34  1  0.059125  0.015811  0.248059  1
  O  O35  1  0.549233  0.649247  0.250986  1
  O  O36  1  0.882456  0.943331  0.243518  1
  O  O37  1  0.120431  0.588435  0.252554  1
  O  O38  1  0.786211  0.353916  0.243143  1
  O  O39  1  0.663151  0.475115  0.269188  1
  O  O40  1  0.329980  0.359956  0.258238  1
  O  O41  1  0.004289  0.640700  0.268270  1
  O  O42  1  0.336715  0.833440  0.258205  1
  O  O43  1  0.663956  0.812102  0.375436  1
  O  O44  1  0.330186  0.441817  0.329286  1
  O  O45  1  0.997782  0.746366  0.294974  1
  O  O46  1  0.002081  0.557598  0.377263  1
  O  O47  1  0.335418  0.249320  0.329867  1
  O  O48  1  0.667885  0.192408  0.293640  1
  O  O49  1  0.163509  0.189726  0.338215  1
  O  O50  1  0.831204  0.557181  0.386131  1
  O  O51  1  0.497246  0.250577  0.420115  1
  O  O52  1  0.501550  0.441597  0.337767  1
  O  O53  1  0.835194  0.753809  0.383505  1
  O  O54  1  0.168932  0.806105  0.420731  1
  O  O55  1  0.772940  0.022692  0.314431  1
  O  O56  1  0.439752  0.226593  0.360953  1
  O  O57  1  0.106367  0.751408  0.324333  1
  O  O58  1  0.892060  0.767511  0.316656  1
  O  O59  1  0.225226  0.247460  0.360343  1
  O  O60  1  0.558697  0.981223  0.323456  1
  O  O61  1  0.273160  0.980775  0.398530  1
  O  O62  1  0.941660  0.781725  0.351429  1
  O  O63  1  0.605807  0.247158  0.390224  1
  O  O64  1  0.391931  0.231188  0.398047  1
  O  O65  1  0.725974  0.753633  0.353713  1
  O  O66  1  0.059125  0.015811  0.390916  1
  O  O67  1  0.549233  0.649247  0.393843  1
  O  O68  1  0.215865  0.406612  0.362796  1
  O  O69  1  0.882456  0.943331  0.386375  1
  O  O70  1  0.120431  0.588435  0.395411  1
  O  O71  1  0.451016  0.054546  0.362806  1
  O  O72  1  0.786211  0.353916  0.386000  1
  O  O73  1  0.048781  0.350772  0.320339  1
  O  O74  1  0.717396  0.591014  0.352395  1
  O  O75  1  0.380011  0.057664  0.328197  1
  O  O76  1  0.619781  0.412275  0.318924  1
  O  O77  1  0.953133  0.943831  0.352284  1
  O  O78  1  0.286368  0.644872  0.328522  1
  O  O79  1  0.494417  0.837993  0.383188  1
  O  O80  1  0.161932  0.524495  0.302684  1
  O  O81  1  0.829486  0.640182  0.313268  1
  O  O82  1  0.171188  0.479162  0.383545  1
  O  O83  1  0.505509  0.358528  0.303002  1
  O  O84  1  0.837499  0.161246  0.313860  1
  O  O85  1  0.995516  0.166259  0.329657  1
  O  O86  1  0.663151  0.475115  0.412045  1
  O  O87  1  0.329980  0.359956  0.401095  1
  O  O88  1  0.670929  0.520272  0.331200  1
  O  O89  1  0.004289  0.640700  0.411127  1
  O  O90  1  0.336715  0.833440  0.401062  1
  H  H91  1  0.273160  0.980775  0.242034  1
  H  H92  1  0.605807  0.247158  0.233727  1
  H  H93  1  0.391931  0.231188  0.241550  1
  H  H94  1  0.059125  0.015811  0.234419  1
  H  H95  1  0.549233  0.649247  0.237346  1
  H  H96  1  0.882456  0.943331  0.229878  1
  H  H97  1  0.120431  0.588435  0.238914  1
  H  H98  1  0.786211  0.353916  0.229503  1
  H  H99  1  0.663151  0.475115  0.255548  1
  H  H100  1  0.329980  0.359956  0.244599  1
  H  H101  1  0.004289  0.640700  0.254631  1
  H  H102  1  0.336715  0.833440  0.244566  1
  O  O103  1  0.663956  0.812102  0.518293  1
  O  O104  1  0.330186  0.441817  0.472143  1
  O  O105  1  0.997782  0.746366  0.437831  1
  O  O106  1  0.002081  0.557598  0.520120  1
  O  O107  1  0.335418  0.249320  0.472724  1
  O  O108  1  0.667885  0.192408  0.436497  1
  O  O109  1  0.163509  0.189726  0.481072  1
  O  O110  1  0.831204  0.557181  0.528988  1
  O  O111  1  0.497246  0.250577  0.562972  1
  O  O112  1  0.501550  0.441597  0.480624  1
  O  O113  1  0.835194  0.753809  0.526362  1
  O  O114  1  0.168932  0.806105  0.563588  1
  O  O115  1  0.772940  0.022692  0.457288  1
  O  O116  1  0.439752  0.226593  0.503810  1
  O  O117  1  0.106367  0.751408  0.467190  1
  O  O118  1  0.892060  0.767511  0.459514  1
  O  O119  1  0.225226  0.247460  0.503200  1
  O  O120  1  0.558697  0.981223  0.466313  1
  O  O121  1  0.273160  0.980775  0.541388  1
  O  O122  1  0.941660  0.781725  0.494286  1
  O  O123  1  0.605807  0.247158  0.533081  1
  O  O124  1  0.391931  0.231188  0.540904  1
  O  O125  1  0.725974  0.753633  0.496571  1
  O  O126  1  0.059125  0.015811  0.533773  1
  O  O127  1  0.549233  0.649247  0.536700  1
  O  O128  1  0.215865  0.406612  0.505653  1
  O  O129  1  0.882456  0.943331  0.529232  1
  O  O130  1  0.120431  0.588435  0.538268  1
  O  O131  1  0.451016  0.054546  0.505663  1
  O  O132  1  0.786211  0.353916  0.528857  1
  O  O133  1  0.048781  0.350772  0.463196  1
  O  O134  1  0.717396  0.591014  0.495252  1
  O  O135  1  0.380011  0.057664  0.471054  1
  O  O136  1  0.619781  0.412275  0.461781  1
  O  O137  1  0.953133  0.943831  0.495141  1
  O  O138  1  0.286368  0.644872  0.471379  1
  O  O139  1  0.494417  0.837993  0.526045  1
  O  O140  1  0.161932  0.524495  0.445541  1
  O  O141  1  0.829486  0.640182  0.456125  1
  O  O142  1  0.171188  0.479162  0.526402  1
  O  O143  1  0.505509  0.358528  0.445859  1
  O  O144  1  0.837499  0.161246  0.456717  1
  O  O145  1  0.995516  0.166259  0.472514  1
  O  O146  1  0.663151  0.475115  0.554902  1
  O  O147  1  0.329980  0.359956  0.543952  1
  O  O148  1  0.670929  0.520272  0.474057  1
  O  O149  1  0.004289  0.640700  0.553984  1
  O  O150  1  0.336715  0.833440  0.543919  1
  Si  Si151  1  0.561731  0.812652  0.513671  1
  Si  Si152  1  0.227395  0.410484  0.480911  1
  Si  Si153  1  0.894770  0.774817  0.433892  1
  Si  Si154  1  0.103995  0.589692  0.514544  1
  Si  Si155  1  0.438023  0.220859  0.481342  1
  Si  Si156  1  0.770162  0.189691  0.432855  1
  Si  Si157  1  0.060406  0.186573  0.485997  1
  Si  Si158  1  0.729027  0.588496  0.519738  1
  Si  Si159  1  0.394312  0.224408  0.566287  1
  Si  Si160  1  0.603983  0.410299  0.485693  1
  Si  Si161  1  0.937603  0.780603  0.517866  1
  Si  Si162  1  0.271974  0.810783  0.566602  1
  Si  Si163  1  0.585287  0.472122  0.570494  1
  Si  Si164  1  0.251677  0.465891  0.514225  1
  Si  Si165  1  0.918093  0.062890  0.486656  1
  Si  Si166  1  0.085034  0.528333  0.429495  1
  Si  Si167  1  0.414646  0.936760  0.514016  1
  Si  Si168  1  0.751874  0.532191  0.486411  1
  Si  Si169  1  0.749747  0.836398  0.499826  1
  Si  Si170  1  0.415680  0.337788  0.498692  1
  Si  Si171  1  0.083528  0.827906  0.429389  1
  Si  Si172  1  0.916733  0.663166  0.502140  1
  Si  Si173  1  0.249117  0.168121  0.499046  1
  Si  Si174  1  0.582061  0.168713  0.571186  1
  Si  Si175  1  0.561731  0.812652  0.656528  1
  Si  Si176  1  0.227395  0.410484  0.623768  1
  Si  Si177  1  0.894770  0.774817  0.576749  1
  Si  Si178  1  0.103995  0.589692  0.657401  1
  Si  Si179  1  0.438023  0.220859  0.624199  1
  Si  Si180  1  0.770162  0.189691  0.575713  1
  Si  Si181  1  0.060406  0.186573  0.628854  1
  Si  Si182  1  0.729027  0.588496  0.662595  1
  Si  Si183  1  0.394312  0.224408  0.709144  1
  Si  Si184  1  0.603983  0.410299  0.628550  1
  Si  Si185  1  0.937603  0.780603  0.660724  1
  Si  Si186  1  0.271974  0.810783  0.709459  1
  Si  Si187  1  0.585287  0.472122  0.713351  1
  Si  Si188  1  0.251677  0.465891  0.657082  1
  Si  Si189  1  0.918093  0.062890  0.629513  1
  Si  Si190  1  0.085034  0.528333  0.572352  1
  Si  Si191  1  0.414646  0.936760  0.656873  1
  Si  Si192  1  0.751874  0.532191  0.629268  1
  Si  Si193  1  0.749747  0.836398  0.642684  1
  Si  Si194  1  0.415680  0.337788  0.641549  1
  Si  Si195  1  0.083528  0.827906  0.572246  1
  Si  Si196  1  0.916733  0.663166  0.644998  1
  Si  Si197  1  0.249117  0.168121  0.641904  1
  Si  Si198  1  0.582061  0.168713  0.714043  1
  Si  Si199  1  0.894770  0.774817  0.719607  1
  Si  Si200  1  0.770162  0.189691  0.718570  1
  Si  Si201  1  0.085034  0.528333  0.715209  1
  Si  Si202  1  0.083528  0.827906  0.715104  1
  O  O203  1  0.663956  0.812102  0.661150  1
  O  O204  1  0.330186  0.441817  0.615001  1
  O  O205  1  0.997782  0.746366  0.580689  1
  O  O206  1  0.002081  0.557598  0.662977  1
  O  O207  1  0.335418  0.249320  0.615581  1
  O  O208  1  0.667885  0.192408  0.579354  1
  O  O209  1  0.163509  0.189726  0.623929  1
  O  O210  1  0.831204  0.557181  0.671845  1
  O  O211  1  0.497246  0.250577  0.705829  1
  O  O212  1  0.501550  0.441597  0.623481  1
  O  O213  1  0.835194  0.753809  0.669220  1
  O  O214  1  0.168932  0.806105  0.706445  1
  O  O215  1  0.772940  0.022692  0.600145  1
  O  O216  1  0.439752  0.226593  0.646667  1
  O  O217  1  0.106367  0.751408  0.610048  1
  O  O218  1  0.892060  0.767511  0.602371  1
  O  O219  1  0.225226  0.247460  0.646057  1
  O  O220  1  0.558697  0.981223  0.609170  1
  O  O221  1  0.273160  0.980775  0.684245  1
  O  O222  1  0.941660  0.781725  0.637143  1
  O  O223  1  0.605807  0.247158  0.675938  1
  O  O224  1  0.391931  0.231188  0.683761  1
  O  O225  1  0.725974  0.753633  0.639428  1
  O  O226  1  0.059125  0.015811  0.676630  1
  O  O227  1  0.549233  0.649247  0.679558  1
  O  O228  1  0.215865  0.406612  0.648510  1
  O  O229  1  0.882456  0.943331  0.672089  1
  O  O230  1  0.120431  0.588435  0.681125  1
  O  O231  1  0.451016  0.054546  0.648520  1
  O  O232  1  0.786211  0.353916  0.671714  1
  O  O233  1  0.048781  0.350772  0.606054  1
  O  O234  1  0.717396  0.591014  0.638109  1
  O  O235  1  0.380011  0.057664  0.613912  1
  O  O236  1  0.619781  0.412275  0.604638  1
  O  O237  1  0.953133  0.943831  0.637998  1
  O  O238  1  0.286368  0.644872  0.614236  1
  O  O239  1  0.494417  0.837993  0.668902  1
  O  O240  1  0.161932  0.524495  0.588398  1
  O  O241  1  0.829486  0.640182  0.598982  1
  O  O242  1  0.171188  0.479162  0.669259  1
  O  O243  1  0.505509  0.358528  0.588716  1
  O  O244  1  0.837499  0.161246  0.599574  1
  O  O245  1  0.995516  0.166259  0.615371  1
  O  O246  1  0.663151  0.475115  0.697759  1
  O  O247  1  0.329980  0.359956  0.686809  1
  O  O248  1  0.670929  0.520272  0.616914  1
  O  O249  1  0.004289  0.640700  0.696841  1
  O  O250  1  0.336715  0.833440  0.686776  1
  O  O251  1  0.997782  0.746366  0.723546  1
  O  O252  1  0.667885  0.192408  0.722211  1
  O  O253  1  0.772940  0.022692  0.743002  1
  O  O254  1  0.106367  0.751408  0.752905  1
  O  O255  1  0.892060  0.767511  0.745228  1
  O  O256  1  0.558697  0.981223  0.752027  1
  O  O257  1  0.048781  0.350772  0.748911  1
  O  O258  1  0.380011  0.057664  0.756769  1
  O  O259  1  0.619781  0.412275  0.747496  1
  O  O260  1  0.286368  0.644872  0.757093  1
  O  O261  1  0.161932  0.524495  0.731256  1
  O  O262  1  0.829486  0.640182  0.741840  1
  O  O263  1  0.505509  0.358528  0.731573  1
  O  O264  1  0.837499  0.161246  0.742431  1
  H  H265  1  0.772940  0.022692  0.756642  1
  H  H266  1  0.106367  0.751408  0.766544  1
  H  H267  1  0.892060  0.767511  0.758868  1
  H  H268  1  0.558697  0.981223  0.765667  1
  H  H269  1  0.048781  0.350772  0.762550  1
  H  H270  1  0.380011  0.057664  0.770408  1
  H  H271  1  0.619781  0.412275  0.761135  1
  H  H272  1  0.286368  0.644872  0.770733  1
  H  H273  1  0.161932  0.524495  0.744895  1
  H  H274  1  0.829486  0.640182  0.755479  1
  H  H275  1  0.505509  0.358528  0.745213  1
  H  H276  1  0.837499  0.161246  0.756071  1
