# generated using pymatgen
data_Si54H2O109
_symmetry_space_group_name_H-M   'P 1'
_cell_length_a   7.42120892
_cell_length_b   13.90537469
_cell_length_c   76.64400517
_cell_angle_alpha   90.00000000
_cell_angle_beta   90.00000000
_cell_angle_gamma   90.00000000
_symmetry_Int_Tables_number   1
_chemical_formula_structural   Si54H2O109
_chemical_formula_sum   'Si108 H4 O218'
_cell_volume   7909.25440658
_cell_formula_units_Z   2
loop_
 _symmetry_equiv_pos_site_id
 _symmetry_equiv_pos_as_xyz
  1  'x, y, z'
loop_
 _atom_site_type_symbol
 _atom_site_label
 _atom_site_symmetry_multiplicity
 _atom_site_fract_x
 _atom_site_fract_y
 _atom_site_fract_z
 _atom_site_occupancy
  O  O1  1  0.742727  0.998058  0.255020  1
  O  O2  1  0.240994  0.998206  0.135847  1
  O  O3  1  0.243609  0.002123  0.256796  1
  O  O4  1  0.743040  0.002213  0.137502  1
  O  O5  1  0.742930  0.497647  0.137473  1
  O  O6  1  0.243604  0.497728  0.256769  1
  O  O7  1  0.241218  0.501695  0.135819  1
  O  O8  1  0.742911  0.501876  0.254995  1
  O  O9  1  0.833534  -0.000000  0.286412  1
  O  O10  1  0.331847  0.000000  0.167237  1
  O  O11  1  0.169609  0.993443  0.288331  1
  O  O12  1  0.667944  0.993512  0.169019  1
  O  O13  1  0.831877  0.500094  0.106022  1
  O  O14  1  0.333640  0.500231  0.225357  1
  O  O15  1  0.168260  0.493878  0.104239  1
  O  O16  1  0.669844  0.493733  0.223429  1
  O  O17  1  0.168247  0.005915  0.104259  1
  O  O18  1  0.669812  0.006081  0.223448  1
  O  O19  1  0.831836  0.000000  0.106046  1
  O  O20  1  0.333588  -0.000000  0.225380  1
  O  O21  1  0.169699  0.506328  0.288310  1
  O  O22  1  0.668015  0.506255  0.168997  1
  O  O23  1  0.833603  0.499820  0.286390  1
  O  O24  1  0.331889  0.499996  0.167216  1
  O  O25  1  0.501065  0.959870  0.277079  1
  O  O26  1  0.000000  0.959536  0.157877  1
  O  O27  1  0.499480  0.460660  0.115528  1
  O  O28  1  0.001170  0.460418  0.234737  1
  O  O29  1  0.499446  0.039052  0.115564  1
  O  O30  1  0.001119  0.039346  0.234765  1
  O  O31  1  0.501121  0.539898  0.277051  1
  O  O32  1  -0.000000  0.540178  0.157842  1
  O  O33  1  0.755040  0.841559  0.269395  1
  O  O34  1  0.253521  0.841516  0.150153  1
  O  O35  1  0.250288  0.840884  0.269508  1
  O  O36  1  0.748328  0.840896  0.150207  1
  O  O37  1  0.752937  0.341554  0.122976  1
  O  O38  1  0.254832  0.341570  0.242281  1
  O  O39  1  0.249088  0.340959  0.122924  1
  O  O40  1  0.750654  0.340956  0.242170  1
  O  O41  1  0.249150  0.158872  0.122928  1
  O  O42  1  0.750688  0.158912  0.242172  1
  O  O43  1  0.752868  0.158246  0.122985  1
  O  O44  1  0.254805  0.158236  0.242290  1
  O  O45  1  0.250320  0.658924  0.269500  1
  O  O46  1  0.748401  0.658906  0.150199  1
  O  O47  1  0.755021  0.658311  0.269393  1
  O  O48  1  0.253466  0.658314  0.150148  1
  O  O49  1  0.672379  0.749939  0.241398  1
  O  O50  1  0.170381  0.749935  0.122155  1
  O  O51  1  0.335477  0.749927  0.241433  1
  O  O52  1  0.833536  0.749925  0.122135  1
  O  O53  1  0.670556  0.249931  0.150971  1
  O  O54  1  0.172512  0.249930  0.270274  1
  O  O55  1  0.333515  0.249929  0.150991  1
  O  O56  1  0.835519  0.249931  0.270236  1
  O  O57  1  0.003404  0.749928  0.253461  1
  O  O58  1  0.501478  0.749908  0.134172  1
  O  O59  1  0.001554  0.249908  0.138897  1
  O  O60  1  0.503492  0.249925  0.258187  1
  O  O61  1  0.982208  0.499651  0.076979  1
  O  O62  1  0.482172  0.499579  0.196255  1
  O  O63  1  0.982149  -0.000000  0.077002  1
  O  O64  1  0.482106  0.000000  0.196277  1
  O  O65  1  0.004405  0.346377  0.293659  1
  O  O66  1  0.502835  0.346366  0.174385  1
  O  O67  1  0.002766  0.846388  0.098734  1
  O  O68  1  0.504345  0.846378  0.217999  1
  O  O69  1  0.002785  0.653446  0.098735  1
  O  O70  1  0.504360  0.653461  0.218000  1
  O  O71  1  0.004406  0.153459  0.293659  1
  O  O72  1  0.502837  0.153465  0.174384  1
  O  O73  1  0.742727  0.998058  0.493536  1
  O  O74  1  0.240994  0.998206  0.374362  1
  O  O75  1  0.243609  0.002123  0.495311  1
  O  O76  1  0.743040  0.002213  0.376017  1
  O  O77  1  0.742930  0.497647  0.375988  1
  O  O78  1  0.243604  0.497728  0.495285  1
  O  O79  1  0.241218  0.501695  0.374334  1
  O  O80  1  0.742911  0.501876  0.493510  1
  O  O81  1  0.833534  -0.000000  0.524927  1
  O  O82  1  0.331847  -0.000000  0.405753  1
  O  O83  1  0.169609  0.993443  0.526846  1
  O  O84  1  0.667944  0.993512  0.407534  1
  O  O85  1  0.831877  0.500094  0.344537  1
  O  O86  1  0.333640  0.500231  0.463872  1
  O  O87  1  0.168260  0.493878  0.342754  1
  O  O88  1  0.669844  0.493733  0.461944  1
  O  O89  1  0.168247  0.005915  0.342775  1
  O  O90  1  0.669812  0.006081  0.461963  1
  O  O91  1  0.831836  0.000000  0.344561  1
  O  O92  1  0.333588  0.000000  0.463896  1
  O  O93  1  0.169699  0.506328  0.526825  1
  O  O94  1  0.668015  0.506255  0.407512  1
  O  O95  1  0.833603  0.499820  0.524906  1
  O  O96  1  0.331889  0.499996  0.405731  1
  O  O97  1  0.501065  0.959870  0.515595  1
  O  O98  1  0.000000  0.959536  0.396392  1
  O  O99  1  0.499480  0.460660  0.354043  1
  O  O100  1  0.001170  0.460418  0.473252  1
  O  O101  1  0.499446  0.039052  0.354079  1
  O  O102  1  0.001119  0.039346  0.473281  1
  O  O103  1  0.501121  0.539898  0.515566  1
  O  O104  1  0.000000  0.540178  0.396358  1
  O  O105  1  0.755040  0.841559  0.507911  1
  O  O106  1  0.253521  0.841516  0.388668  1
  O  O107  1  0.250288  0.840884  0.508024  1
  O  O108  1  0.748328  0.840896  0.388722  1
  O  O109  1  0.752937  0.341554  0.361492  1
  O  O110  1  0.254832  0.341570  0.480796  1
  O  O111  1  0.249088  0.340959  0.361439  1
  O  O112  1  0.750654  0.340956  0.480685  1
  O  O113  1  0.249150  0.158872  0.361443  1
  O  O114  1  0.750688  0.158912  0.480687  1
  O  O115  1  0.752868  0.158246  0.361500  1
  O  O116  1  0.254805  0.158236  0.480805  1
  O  O117  1  0.250320  0.658924  0.508015  1
  O  O118  1  0.748401  0.658906  0.388714  1
  O  O119  1  0.755021  0.658311  0.507908  1
  O  O120  1  0.253466  0.658314  0.388663  1
  O  O121  1  0.672379  0.749939  0.479914  1
  O  O122  1  0.170381  0.749935  0.360671  1
  O  O123  1  0.335477  0.749927  0.479948  1
  O  O124  1  0.833536  0.749925  0.360650  1
  O  O125  1  0.670556  0.249931  0.389486  1
  O  O126  1  0.172512  0.249930  0.508790  1
  O  O127  1  0.333515  0.249929  0.389506  1
  O  O128  1  0.835519  0.249931  0.508752  1
  O  O129  1  0.003404  0.749928  0.491977  1
  O  O130  1  0.501478  0.749908  0.372687  1
  O  O131  1  0.001554  0.249908  0.377412  1
  O  O132  1  0.503492  0.249925  0.496702  1
  O  O133  1  0.982208  0.499651  0.315495  1
  O  O134  1  0.482172  0.499579  0.434771  1
  O  O135  1  0.982149  -0.000000  0.315517  1
  O  O136  1  0.482106  -0.000000  0.434793  1
  O  O137  1  0.004405  0.346377  0.532174  1
  O  O138  1  0.502835  0.346366  0.412900  1
  O  O139  1  0.002766  0.846388  0.337250  1
  O  O140  1  0.504345  0.846378  0.456515  1
  O  O141  1  0.002785  0.653446  0.337250  1
  O  O142  1  0.504360  0.653461  0.456515  1
  O  O143  1  0.004406  0.153459  0.532174  1
  O  O144  1  0.502837  0.153465  0.412899  1
  O  O145  1  0.742727  0.998058  0.732051  1
  O  O146  1  0.240994  0.998206  0.612877  1
  O  O147  1  0.243609  0.002123  0.733826  1
  O  O148  1  0.743040  0.002213  0.614532  1
  O  O149  1  0.742930  0.497647  0.614504  1
  O  O150  1  0.243604  0.497728  0.733800  1
  O  O151  1  0.241218  0.501695  0.612850  1
  O  O152  1  0.742911  0.501876  0.732026  1
  O  O153  1  0.833534  -0.000000  0.763443  1
  O  O154  1  0.331847  -0.000000  0.644268  1
  O  O155  1  0.169609  0.993443  0.765362  1
  O  O156  1  0.667944  0.993512  0.646050  1
  O  O157  1  0.831877  0.500094  0.583053  1
  O  O158  1  0.333640  0.500231  0.702387  1
  O  O159  1  0.168260  0.493878  0.581269  1
  O  O160  1  0.669844  0.493733  0.700459  1
  O  O161  1  0.168247  0.005915  0.581290  1
  O  O162  1  0.669812  0.006081  0.700479  1
  O  O163  1  0.831836  -0.000000  0.583076  1
  O  O164  1  0.333588  -0.000000  0.702411  1
  O  O165  1  0.169699  0.506328  0.765340  1
  O  O166  1  0.668015  0.506255  0.646027  1
  O  O167  1  0.833603  0.499820  0.763421  1
  O  O168  1  0.331889  0.499996  0.644246  1
  O  O169  1  0.501065  0.959870  0.754110  1
  O  O170  1  -0.000000  0.959536  0.634907  1
  O  O171  1  0.499480  0.460660  0.592558  1
  O  O172  1  0.001170  0.460418  0.711768  1
  O  O173  1  0.499446  0.039052  0.592594  1
  O  O174  1  0.001119  0.039346  0.711796  1
  O  O175  1  0.501121  0.539898  0.754081  1
  O  O176  1  0.000000  0.540178  0.634873  1
  O  O177  1  0.755040  0.841559  0.746426  1
  O  O178  1  0.253521  0.841516  0.627183  1
  O  O179  1  0.250288  0.840884  0.746539  1
  O  O180  1  0.748328  0.840896  0.627237  1
  O  O181  1  0.752937  0.341554  0.600007  1
  O  O182  1  0.254832  0.341570  0.719312  1
  O  O183  1  0.249088  0.340959  0.599954  1
  O  O184  1  0.750654  0.340956  0.719201  1
  O  O185  1  0.249150  0.158872  0.599958  1
  O  O186  1  0.750688  0.158912  0.719203  1
  O  O187  1  0.752868  0.158246  0.600015  1
  O  O188  1  0.254805  0.158236  0.719320  1
  O  O189  1  0.250320  0.658924  0.746531  1
  O  O190  1  0.748401  0.658906  0.627229  1
  O  O191  1  0.755021  0.658311  0.746423  1
  O  O192  1  0.253466  0.658314  0.627178  1
  O  O193  1  0.672379  0.749939  0.718429  1
  O  O194  1  0.170381  0.749935  0.599186  1
  O  O195  1  0.335477  0.749927  0.718463  1
  O  O196  1  0.833536  0.749925  0.599165  1
  O  O197  1  0.670556  0.249931  0.628001  1
  O  O198  1  0.172512  0.249930  0.747305  1
  O  O199  1  0.333515  0.249929  0.628021  1
  O  O200  1  0.835519  0.249931  0.747267  1
  O  O201  1  0.003404  0.749928  0.730492  1
  O  O202  1  0.501478  0.749908  0.611202  1
  O  O203  1  0.001554  0.249908  0.615927  1
  O  O204  1  0.503492  0.249925  0.735217  1
  O  O205  1  0.982208  0.499651  0.554010  1
  O  O206  1  0.482172  0.499579  0.673286  1
  O  O207  1  0.982149  -0.000000  0.554032  1
  O  O208  1  0.482106  0.000000  0.673308  1
  O  O209  1  0.004405  0.346377  0.770689  1
  O  O210  1  0.502835  0.346366  0.651416  1
  O  O211  1  0.002766  0.846388  0.575765  1
  O  O212  1  0.504345  0.846378  0.695030  1
  O  O213  1  0.002785  0.653446  0.575766  1
  O  O214  1  0.504360  0.653461  0.695030  1
  O  O215  1  0.004406  0.153459  0.770689  1
  O  O216  1  0.502837  0.153465  0.651415  1
  O  O217  1  0.982208  0.499651  0.792525  1
  O  O218  1  0.982149  -0.000000  0.792547  1
  Si  Si219  1  0.707703  0.949738  0.272950  1
  Si  Si220  1  0.206089  0.949623  0.153755  1
  Si  Si221  1  0.292995  0.948487  0.273899  1
  Si  Si222  1  0.791404  0.948427  0.154614  1
  Si  Si223  1  0.706262  0.449939  0.119521  1
  Si  Si224  1  0.207835  0.449901  0.238811  1
  Si  Si225  1  0.291452  0.448789  0.118665  1
  Si  Si226  1  0.793074  0.448715  0.237866  1
  Si  Si227  1  0.291419  0.051006  0.118687  1
  Si  Si228  1  0.793034  0.051121  0.237883  1
  Si  Si229  1  0.706239  0.049839  0.119545  1
  Si  Si230  1  0.207799  0.049895  0.238833  1
  Si  Si231  1  0.293059  0.551307  0.273877  1
  Si  Si232  1  0.791443  0.551349  0.154591  1
  Si  Si233  1  0.707773  0.550103  0.272932  1
  Si  Si234  1  0.206138  0.550175  0.153734  1
  Si  Si235  1  0.795905  0.749940  0.258054  1
  Si  Si236  1  0.294059  0.749923  0.138797  1
  Si  Si237  1  0.210891  0.749918  0.258017  1
  Si  Si238  1  0.708981  0.749912  0.138719  1
  Si  Si239  1  0.794042  0.249912  0.134310  1
  Si  Si240  1  0.295955  0.249917  0.253611  1
  Si  Si241  1  0.209149  0.249922  0.134387  1
  Si  Si242  1  0.711012  0.249937  0.253645  1
  Si  Si243  1  0.998335  0.458986  0.296644  1
  Si  Si244  1  0.496999  0.458961  0.177391  1
  Si  Si245  1  0.997014  0.959066  0.095822  1
  Si  Si246  1  0.498321  0.959054  0.215082  1
  Si  Si247  1  0.997048  0.540782  0.095807  1
  Si  Si248  1  0.498362  0.540798  0.215067  1
  Si  Si249  1  0.998283  0.040864  0.296658  1
  Si  Si250  1  0.496960  0.040885  0.177405  1
  Si  Si251  1  0.002156  0.749916  0.109751  1
  Si  Si252  1  0.503902  0.749918  0.229022  1
  Si  Si253  1  0.003975  0.249917  0.282642  1
  Si  Si254  1  0.502231  0.249915  0.163365  1
  Si  Si255  1  0.707703  0.949738  0.511465  1
  Si  Si256  1  0.206089  0.949623  0.392271  1
  Si  Si257  1  0.292995  0.948487  0.512414  1
  Si  Si258  1  0.791404  0.948427  0.393130  1
  Si  Si259  1  0.706262  0.449939  0.358036  1
  Si  Si260  1  0.207835  0.449901  0.477327  1
  Si  Si261  1  0.291452  0.448789  0.357180  1
  Si  Si262  1  0.793074  0.448715  0.476381  1
  Si  Si263  1  0.291419  0.051006  0.357202  1
  Si  Si264  1  0.793034  0.051121  0.476399  1
  Si  Si265  1  0.706239  0.049839  0.358060  1
  Si  Si266  1  0.207799  0.049895  0.477348  1
  Si  Si267  1  0.293059  0.551307  0.512393  1
  Si  Si268  1  0.791443  0.551349  0.393106  1
  Si  Si269  1  0.707773  0.550103  0.511447  1
  Si  Si270  1  0.206138  0.550175  0.392249  1
  Si  Si271  1  0.795905  0.749940  0.496569  1
  Si  Si272  1  0.294059  0.749923  0.377313  1
  Si  Si273  1  0.210891  0.749918  0.496532  1
  Si  Si274  1  0.708981  0.749912  0.377235  1
  Si  Si275  1  0.794042  0.249912  0.372826  1
  Si  Si276  1  0.295955  0.249917  0.492127  1
  Si  Si277  1  0.209149  0.249922  0.372902  1
  Si  Si278  1  0.711012  0.249937  0.492160  1
  Si  Si279  1  0.998335  0.458986  0.535159  1
  Si  Si280  1  0.496999  0.458961  0.415907  1
  Si  Si281  1  0.997014  0.959066  0.334337  1
  Si  Si282  1  0.498321  0.959054  0.453597  1
  Si  Si283  1  0.997048  0.540782  0.334323  1
  Si  Si284  1  0.498362  0.540798  0.453583  1
  Si  Si285  1  0.998283  0.040864  0.535174  1
  Si  Si286  1  0.496960  0.040885  0.415921  1
  Si  Si287  1  0.002156  0.749916  0.348266  1
  Si  Si288  1  0.503902  0.749918  0.467538  1
  Si  Si289  1  0.003975  0.249917  0.521157  1
  Si  Si290  1  0.502231  0.249915  0.401880  1
  Si  Si291  1  0.707703  0.949738  0.749981  1
  Si  Si292  1  0.206089  0.949623  0.630786  1
  Si  Si293  1  0.292995  0.948487  0.750929  1
  Si  Si294  1  0.791404  0.948427  0.631645  1
  Si  Si295  1  0.706262  0.449939  0.596551  1
  Si  Si296  1  0.207835  0.449901  0.715842  1
  Si  Si297  1  0.291452  0.448789  0.595695  1
  Si  Si298  1  0.793074  0.448715  0.714896  1
  Si  Si299  1  0.291419  0.051006  0.595717  1
  Si  Si300  1  0.793034  0.051121  0.714914  1
  Si  Si301  1  0.706239  0.049839  0.596575  1
  Si  Si302  1  0.207799  0.049895  0.715863  1
  Si  Si303  1  0.293059  0.551307  0.750908  1
  Si  Si304  1  0.791443  0.551349  0.631621  1
  Si  Si305  1  0.707773  0.550103  0.749962  1
  Si  Si306  1  0.206138  0.550175  0.630764  1
  Si  Si307  1  0.795905  0.749940  0.735084  1
  Si  Si308  1  0.294059  0.749923  0.615828  1
  Si  Si309  1  0.210891  0.749918  0.735048  1
  Si  Si310  1  0.708981  0.749912  0.615750  1
  Si  Si311  1  0.794042  0.249912  0.611341  1
  Si  Si312  1  0.295955  0.249917  0.730642  1
  Si  Si313  1  0.209149  0.249922  0.611418  1
  Si  Si314  1  0.711012  0.249937  0.730675  1
  Si  Si315  1  0.998335  0.458986  0.773674  1
  Si  Si316  1  0.496999  0.458961  0.654422  1
  Si  Si317  1  0.997014  0.959066  0.572852  1
  Si  Si318  1  0.498321  0.959054  0.692112  1
  Si  Si319  1  0.997048  0.540782  0.572838  1
  Si  Si320  1  0.498362  0.540798  0.692098  1
  Si  Si321  1  0.998283  0.040864  0.773689  1
  Si  Si322  1  0.496960  0.040885  0.654436  1
  Si  Si323  1  0.002156  0.749916  0.586781  1
  Si  Si324  1  0.503902  0.749918  0.706053  1
  Si  Si325  1  0.003975  0.249917  0.759673  1
  Si  Si326  1  0.502231  0.249915  0.640396  1
  H  H327  1  0.982208  0.499651  0.065237  1
  H  H328  1  0.982149  0.000000  0.065259  1
  H  H329  1  0.982208  0.499651  0.804268  1
  H  H330  1  0.982149  0.000000  0.804290  1
