# generated using pymatgen
data_Si20H2O41
_symmetry_space_group_name_H-M   'P 1'
_cell_length_a   13.02202298
_cell_length_b   9.37740949
_cell_length_c   45.29611331
_cell_angle_alpha   92.35000000
_cell_angle_beta   104.50000000
_cell_angle_gamma   107.30000000
_symmetry_Int_Tables_number   1
_chemical_formula_structural   Si20H2O41
_chemical_formula_sum   'Si40 H4 O82'
_cell_volume   5072.75278979
_cell_formula_units_Z   2
loop_
 _symmetry_equiv_pos_site_id
 _symmetry_equiv_pos_as_xyz
  1  'x, y, z'
loop_
 _atom_site_type_symbol
 _atom_site_label
 _atom_site_symmetry_multiplicity
 _atom_site_fract_x
 _atom_site_fract_y
 _atom_site_fract_z
 _atom_site_occupancy
  O  O1  1  0.659249  0.327104  0.134786  1
  O  O2  1  0.765470  0.937981  0.256927  1
  O  O3  1  0.234503  0.062066  0.266017  1
  O  O4  1  0.636258  0.735335  0.278721  1
  O  O5  1  0.363715  0.264711  0.244223  1
  O  O6  1  0.665076  0.671529  0.227338  1
  O  O7  1  0.334897  0.328517  0.295606  1
  O  O8  1  0.824661  0.701211  0.274223  1
  O  O9  1  0.175313  0.298836  0.248721  1
  O  O10  1  0.632862  0.046301  0.221711  1
  O  O11  1  0.367112  0.953745  0.301233  1
  O  O12  1  0.830735  0.211853  0.237460  1
  O  O13  1  0.169239  0.788194  0.285484  1
  O  O14  1  0.712465  0.169247  0.276091  1
  O  O15  1  0.287509  0.830799  0.246853  1
  O  O16  1  0.659433  0.290895  0.322570  1
  O  O17  1  0.340541  0.709151  0.200374  1
  O  O18  1  0.575993  0.314240  0.265662  1
  O  O19  1  0.423981  0.685806  0.257282  1
  O  O20  1  0.786184  0.445874  0.292194  1
  O  O21  1  0.213790  0.554173  0.230750  1
  O  O22  1  0.865417  0.487741  0.247076  1
  O  O23  1  0.134557  0.512305  0.275868  1
  O  O24  1  0.000000  0.604667  0.298302  1
  O  O25  1  0.000000  0.395379  0.224642  1
  O  O26  1  0.659249  0.327104  0.382009  1
  O  O27  1  0.340724  0.672943  0.140936  1
  O  O28  1  0.504928  0.357688  0.339243  1
  O  O29  1  0.495046  0.642359  0.183701  1
  O  O30  1  0.534281  0.094311  0.344154  1
  O  O31  1  0.465692  0.905735  0.178790  1
  O  O32  1  0.588810  0.188028  0.176394  1
  O  O33  1  0.411164  0.812019  0.346550  1
  O  O34  1  0.786965  0.362180  0.191982  1
  O  O35  1  0.213009  0.637867  0.330962  1
  O  O36  1  0.622683  0.470110  0.180754  1
  O  O37  1  0.377291  0.529937  0.342191  1
  O  O38  1  0.524433  0.850265  0.308358  1
  O  O39  1  0.475540  0.149782  0.214586  1
  O  O40  1  0.494358  0.569430  0.304821  1
  O  O41  1  0.505615  0.430617  0.218123  1
  O  O42  1  0.765470  0.937981  0.504150  1
  O  O43  1  0.234503  0.062066  0.513240  1
  O  O44  1  0.636258  0.735335  0.525944  1
  O  O45  1  0.363715  0.264711  0.491446  1
  O  O46  1  0.665076  0.671529  0.474561  1
  O  O47  1  0.334897  0.328517  0.542829  1
  O  O48  1  0.824661  0.701211  0.521446  1
  O  O49  1  0.175313  0.298836  0.495944  1
  O  O50  1  0.632862  0.046301  0.468934  1
  O  O51  1  0.367112  0.953745  0.548456  1
  O  O52  1  0.830735  0.211853  0.484683  1
  O  O53  1  0.169239  0.788194  0.532707  1
  O  O54  1  0.712465  0.169247  0.523314  1
  O  O55  1  0.287509  0.830799  0.494076  1
  O  O56  1  0.659433  0.290895  0.569793  1
  O  O57  1  0.340541  0.709151  0.447597  1
  O  O58  1  0.575993  0.314240  0.512885  1
  O  O59  1  0.423981  0.685806  0.504505  1
  O  O60  1  0.786184  0.445874  0.539416  1
  O  O61  1  0.213790  0.554173  0.477973  1
  O  O62  1  0.865417  0.487741  0.494299  1
  O  O63  1  0.134557  0.512305  0.523091  1
  O  O64  1  0.000000  0.604667  0.545525  1
  O  O65  1  0.000000  0.395379  0.471865  1
  O  O66  1  0.659249  0.327104  0.629231  1
  O  O67  1  0.340724  0.672943  0.388159  1
  O  O68  1  0.504928  0.357688  0.586466  1
  O  O69  1  0.495046  0.642359  0.430924  1
  O  O70  1  0.534281  0.094311  0.591377  1
  O  O71  1  0.465692  0.905735  0.426013  1
  O  O72  1  0.588810  0.188028  0.423617  1
  O  O73  1  0.411164  0.812019  0.593773  1
  O  O74  1  0.786965  0.362180  0.439205  1
  O  O75  1  0.213009  0.637867  0.578185  1
  O  O76  1  0.622683  0.470110  0.427976  1
  O  O77  1  0.377291  0.529937  0.589413  1
  O  O78  1  0.524433  0.850265  0.555581  1
  O  O79  1  0.475540  0.149782  0.461809  1
  O  O80  1  0.494358  0.569430  0.552044  1
  O  O81  1  0.505615  0.430617  0.465346  1
  O  O82  1  0.340724  0.672943  0.635381  1
  Si  Si83  1  0.725597  0.764380  0.259997  1
  Si  Si84  1  0.274377  0.235666  0.262948  1
  Si  Si85  1  0.742006  0.089846  0.249129  1
  Si  Si86  1  0.257967  0.910201  0.273816  1
  Si  Si87  1  0.682354  0.303689  0.290180  1
  Si  Si88  1  0.317620  0.696357  0.232765  1
  Si  Si89  1  0.872560  0.564939  0.279515  1
  Si  Si90  1  0.127414  0.435107  0.243429  1
  Si  Si91  1  0.592013  0.269881  0.347224  1
  Si  Si92  1  0.407961  0.730166  0.175720  1
  Si  Si93  1  0.666666  0.341635  0.170259  1
  Si  Si94  1  0.333308  0.658412  0.352685  1
  Si  Si95  1  0.872621  0.364157  0.223684  1
  Si  Si96  1  0.127353  0.635889  0.299260  1
  Si  Si97  1  0.523077  0.710592  0.287204  1
  Si  Si98  1  0.476897  0.289454  0.235740  1
  Si  Si99  1  0.534982  0.068103  0.196040  1
  Si  Si100  1  0.464992  0.931944  0.326905  1
  Si  Si101  1  0.571598  0.554252  0.201333  1
  Si  Si102  1  0.428375  0.445795  0.321611  1
  Si  Si103  1  0.725597  0.764380  0.507220  1
  Si  Si104  1  0.274377  0.235666  0.510170  1
  Si  Si105  1  0.742006  0.089846  0.496351  1
  Si  Si106  1  0.257967  0.910201  0.521039  1
  Si  Si107  1  0.682354  0.303689  0.537403  1
  Si  Si108  1  0.317620  0.696357  0.479987  1
  Si  Si109  1  0.872560  0.564939  0.526738  1
  Si  Si110  1  0.127414  0.435107  0.490652  1
  Si  Si111  1  0.592013  0.269881  0.594447  1
  Si  Si112  1  0.407961  0.730166  0.422943  1
  Si  Si113  1  0.666666  0.341635  0.417482  1
  Si  Si114  1  0.333308  0.658412  0.599908  1
  Si  Si115  1  0.872621  0.364157  0.470907  1
  Si  Si116  1  0.127353  0.635889  0.546483  1
  Si  Si117  1  0.523077  0.710592  0.534427  1
  Si  Si118  1  0.476897  0.289454  0.482963  1
  Si  Si119  1  0.534982  0.068103  0.443263  1
  Si  Si120  1  0.464992  0.931944  0.574127  1
  Si  Si121  1  0.571598  0.554252  0.448556  1
  Si  Si122  1  0.428375  0.445795  0.568834  1
  H  H123  1  0.659249  0.327104  0.114916  1
  H  H124  1  0.340724  0.672943  0.121066  1
  H  H125  1  0.659249  0.327104  0.649101  1
  H  H126  1  0.340724  0.672943  0.655251  1
