# generated using pymatgen
data_Si40H6O83
_symmetry_space_group_name_H-M   'P 1'
_cell_length_a   13.71920629
_cell_length_b   43.13182946
_cell_length_c   53.95927227
_cell_angle_alpha   108.54633442
_cell_angle_beta   120.00000000
_cell_angle_gamma   80.84906928
_symmetry_Int_Tables_number   1
_chemical_formula_structural   Si40H6O83
_chemical_formula_sum   'Si240 H36 O498'
_cell_volume   26215.7625354
_cell_formula_units_Z   6
loop_
 _symmetry_equiv_pos_site_id
 _symmetry_equiv_pos_as_xyz
  1  'x, y, z'
loop_
 _atom_site_type_symbol
 _atom_site_label
 _atom_site_symmetry_multiplicity
 _atom_site_fract_x
 _atom_site_fract_y
 _atom_site_fract_z
 _atom_site_occupancy
  O  O1  1  0.953122  0.090507  0.213064  1
  O  O2  1  0.766129  0.090614  0.213116  1
  O  O3  1  0.072997  0.080229  0.187464  1
  O  O4  1  0.371579  0.080107  0.140391  1
  O  O5  1  0.072012  0.080084  0.140510  1
  O  O6  1  0.555856  0.080080  0.187280  1
  O  O7  1  0.159815  0.076129  0.240299  1
  O  O8  1  0.680614  0.076152  0.240238  1
  O  O9  1  0.020275  0.032102  0.199244  1
  O  O10  1  0.702954  0.032134  0.199236  1
  O  O11  1  0.842458  0.143444  0.217588  1
  O  O12  1  0.939021  0.116875  0.260012  1
  O  O13  1  0.992663  0.129299  0.166318  1
  O  O14  1  0.502860  0.129351  0.166429  1
  O  O15  1  0.667178  0.166612  0.182030  1
  O  O16  1  0.207242  0.117254  0.190262  1
  O  O17  1  0.394009  0.115715  0.237828  1
  O  O18  1  0.395666  0.116606  0.190408  1
  O  O19  1  0.894351  0.005308  0.209175  1
  O  O20  1  0.851287  0.166659  0.134230  1
  O  O21  1  0.337271  0.165548  0.219980  1
  O  O22  1  0.566847  0.242618  0.226592  1
  O  O23  1  0.053279  0.242800  0.179243  1
  O  O24  1  0.053649  0.242359  0.226585  1
  O  O25  1  0.380108  0.242762  0.179080  1
  O  O26  1  0.776974  0.253403  0.259544  1
  O  O27  1  0.961270  0.253423  0.128501  1
  O  O28  1  0.960725  0.253518  0.259173  1
  O  O29  1  0.260755  0.253087  0.128244  1
  O  O30  1  0.173541  0.257331  0.161047  1
  O  O31  1  0.629344  0.301181  0.258367  1
  O  O32  1  0.056433  0.301368  0.178007  1
  O  O33  1  0.056998  0.301069  0.258114  1
  O  O34  1  0.313330  0.301220  0.177818  1
  O  O35  1  0.015348  0.189831  0.184397  1
  O  O36  1  0.491622  0.189913  0.184586  1
  O  O37  1  0.209985  0.215216  0.215662  1
  O  O38  1  0.394562  0.215761  0.215850  1
  O  O39  1  0.830526  0.204030  0.227327  1
  O  O40  1  0.437994  0.328132  0.233404  1
  O  O41  1  0.123772  0.328371  0.233494  1
  O  O42  1  0.852486  0.166822  0.181802  1
  O  O43  1  0.482366  0.166677  0.134473  1
  O  O44  1  0.285919  0.423843  0.213244  1
  O  O45  1  0.099369  0.424302  0.213492  1
  O  O46  1  0.405423  0.413548  0.187509  1
  O  O47  1  0.704832  0.413506  0.140560  1
  O  O48  1  0.404772  0.413172  0.140476  1
  O  O49  1  0.889195  0.413597  0.187454  1
  O  O50  1  0.492660  0.409475  0.240400  1
  O  O51  1  0.013503  0.409421  0.240318  1
  O  O52  1  0.353428  0.365453  0.199281  1
  O  O53  1  0.036658  0.365675  0.199325  1
  O  O54  1  0.175133  0.476811  0.217191  1
  O  O55  1  0.272028  0.451232  0.260111  1
  O  O56  1  0.327394  0.462694  0.166442  1
  O  O57  1  0.836622  0.462630  0.166282  1
  O  O58  1  0.186406  0.499995  0.134196  1
  O  O59  1  0.541539  0.449712  0.190249  1
  O  O60  1  0.729691  0.449288  0.237972  1
  O  O61  1  0.729422  0.450595  0.190509  1
  O  O62  1  0.227938  0.338646  0.209191  1
  O  O63  1  -0.000000  0.499917  0.181495  1
  O  O64  1  0.665655  0.498883  0.219693  1
  O  O65  1  0.506785  0.590511  0.161048  1
  O  O66  1  0.389954  0.634662  0.178014  1
  O  O67  1  0.646938  0.634354  0.177997  1
  O  O68  1  0.899912  0.575943  0.226600  1
  O  O69  1  0.385741  0.576245  0.179218  1
  O  O70  1  0.386331  0.575939  0.226704  1
  O  O71  1  0.713182  0.575817  0.179096  1
  O  O72  1  0.110263  0.586428  0.259501  1
  O  O73  1  0.294457  0.586785  0.128450  1
  O  O74  1  0.294458  0.586678  0.259491  1
  O  O75  1  0.594241  0.586424  0.128333  1
  O  O76  1  0.963480  0.634478  0.258391  1
  O  O77  1  0.389532  0.634579  0.258372  1
  O  O78  1  0.349837  0.523247  0.184639  1
  O  O79  1  0.825886  0.523186  0.184615  1
  O  O80  1  0.543700  0.549416  0.215963  1
  O  O81  1  0.728452  0.548486  0.215774  1
  O  O82  1  0.163413  0.537379  0.226904  1
  O  O83  1  0.186206  0.500109  0.181522  1
  O  O84  1  0.772169  0.661403  0.233507  1
  O  O85  1  0.456086  0.661570  0.233504  1
  O  O86  1  0.814393  0.500030  0.134236  1
  O  O87  1  0.508586  0.810136  0.217558  1
  O  O88  1  0.619444  0.757123  0.213145  1
  O  O89  1  0.432448  0.757348  0.213138  1
  O  O90  1  0.737605  0.746347  0.187039  1
  O  O91  1  0.038249  0.746875  0.140548  1
  O  O92  1  0.738083  0.746660  0.140282  1
  O  O93  1  0.222380  0.746711  0.187330  1
  O  O94  1  0.826134  0.742677  0.240140  1
  O  O95  1  0.347182  0.742765  0.240252  1
  O  O96  1  0.686329  0.698576  0.199291  1
  O  O97  1  0.370188  0.698824  0.199316  1
  O  O98  1  0.604945  0.783663  0.260034  1
  O  O99  1  0.661645  0.795996  0.166726  1
  O  O100  1  0.170297  0.796003  0.166533  1
  O  O101  1  0.334084  0.833287  0.181673  1
  O  O102  1  0.875398  0.782405  0.190567  1
  O  O103  1  0.063980  0.783612  0.238492  1
  O  O104  1  0.062908  0.783594  0.190598  1
  O  O105  1  0.561861  0.671739  0.209500  1
  O  O106  1  0.147294  0.833327  0.134395  1
  O  O107  1  0.995381  0.832222  0.218297  1
  O  O108  1  0.520025  0.833323  0.134699  1
  O  O109  1  0.295858  0.967969  0.258331  1
  O  O110  1  0.723428  0.968013  0.258407  1
  O  O111  1  0.233249  0.909422  0.226536  1
  O  O112  1  0.718892  0.909466  0.178880  1
  O  O113  1  0.718722  0.909566  0.226439  1
  O  O114  1  0.046495  0.909200  0.179089  1
  O  O115  1  0.443337  0.920166  0.259338  1
  O  O116  1  0.628236  0.919916  0.128101  1
  O  O117  1  0.627884  0.920149  0.259465  1
  O  O118  1  0.928940  0.920158  0.128472  1
  O  O119  1  0.840242  0.923984  0.160913  1
  O  O120  1  0.722850  0.967958  0.177791  1
  O  O121  1  0.980718  0.967874  0.178080  1
  O  O122  1  0.684227  0.856584  0.184891  1
  O  O123  1  0.159460  0.856539  0.184796  1
  O  O124  1  0.877423  0.883416  0.216263  1
  O  O125  1  0.062151  0.882130  0.215996  1
  O  O126  1  0.497127  0.870713  0.227264  1
  O  O127  1  0.104486  0.995012  0.233563  1
  O  O128  1  0.789927  0.994857  0.233404  1
  O  O129  1  0.521006  0.833431  0.182111  1
  O  O130  1  0.502624  0.129343  0.295632  1
  O  O131  1  0.953122  0.090507  0.467312  1
  O  O132  1  0.766149  0.090736  0.296456  1
  O  O133  1  0.279590  0.090779  0.343909  1
  O  O134  1  0.279557  0.090849  0.296508  1
  O  O135  1  0.952802  0.090467  0.343956  1
  O  O136  1  0.766129  0.090614  0.467363  1
  O  O137  1  0.072997  0.080229  0.441711  1
  O  O138  1  0.556120  0.079862  0.263494  1
  O  O139  1  0.371579  0.080107  0.394639  1
  O  O140  1  0.372446  0.079840  0.263922  1
  O  O141  1  0.072012  0.080084  0.394757  1
  O  O142  1  0.555856  0.080080  0.441527  1
  O  O143  1  0.159815  0.076129  0.494546  1
  O  O144  1  0.680614  0.076152  0.494485  1
  O  O145  1  0.159380  0.076021  0.362022  1
  O  O146  1  0.020275  0.032102  0.453491  1
  O  O147  1  0.704057  0.032160  0.264686  1
  O  O148  1  0.276871  0.032164  0.345101  1
  O  O149  1  0.276256  0.032214  0.264864  1
  O  O150  1  0.019752  0.031995  0.345148  1
  O  O151  1  0.702954  0.032134  0.453484  1
  O  O152  1  0.318396  0.143506  0.338548  1
  O  O153  1  0.842458  0.143444  0.471836  1
  O  O154  1  0.842211  0.143471  0.338385  1
  O  O155  1  0.123484  0.118366  0.307371  1
  O  O156  1  0.939021  0.116875  0.514259  1
  O  O157  1  0.939004  0.117162  0.307060  1
  O  O158  1  0.992663  0.129299  0.420565  1
  O  O159  1  0.502860  0.129351  0.420677  1
  O  O160  1  0.667178  0.166612  0.436277  1
  O  O161  1  0.666445  0.166649  0.340897  1
  O  O162  1  0.207242  0.117254  0.444509  1
  O  O163  1  0.394009  0.115715  0.492076  1
  O  O164  1  0.395666  0.116606  0.444655  1
  O  O165  1  0.895406  0.005116  0.289539  1
  O  O166  1  0.209805  0.005072  0.289619  1
  O  O167  1  0.894351  0.005308  0.463423  1
  O  O168  1  0.851287  0.166659  0.388477  1
  O  O169  1  0.337271  0.165548  0.474227  1
  O  O170  1  0.260257  0.253131  0.335636  1
  O  O171  1  0.777290  0.253425  0.335809  1
  O  O172  1  0.379900  0.242707  0.309960  1
  O  O173  1  0.566847  0.242618  0.480839  1
  O  O174  1  0.053279  0.242800  0.433490  1
  O  O175  1  0.053649  0.242359  0.480832  1
  O  O176  1  0.380108  0.242762  0.433327  1
  O  O177  1  0.566999  0.242994  0.310050  1
  O  O178  1  0.776974  0.253403  0.513792  1
  O  O179  1  0.961270  0.253423  0.382748  1
  O  O180  1  0.960725  0.253518  0.513420  1
  O  O181  1  0.260755  0.253087  0.382491  1
  O  O182  1  0.173312  0.257205  0.282776  1
  O  O183  1  0.652477  0.257258  0.282830  1
  O  O184  1  0.173541  0.257331  0.415294  1
  O  O185  1  0.313172  0.301161  0.323795  1
  O  O186  1  0.629344  0.301181  0.512614  1
  O  O187  1  0.056433  0.301368  0.432255  1
  O  O188  1  0.056998  0.301069  0.512361  1
  O  O189  1  0.313330  0.301220  0.432065  1
  O  O190  1  0.630387  0.301421  0.323830  1
  O  O191  1  0.015348  0.189831  0.438645  1
  O  O192  1  0.491394  0.189933  0.305360  1
  O  O193  1  0.491622  0.189913  0.438833  1
  O  O194  1  0.209985  0.215216  0.469910  1
  O  O195  1  0.394468  0.216718  0.263044  1
  O  O196  1  0.394562  0.215761  0.470098  1
  O  O197  1  0.340742  0.204034  0.356709  1
  O  O198  1  0.830526  0.204030  0.481574  1
  O  O199  1  0.830489  0.204042  0.356527  1
  O  O200  1  0.481094  0.166670  0.341176  1
  O  O201  1  0.126048  0.215920  0.332596  1
  O  O202  1  0.938945  0.217443  0.285104  1
  O  O203  1  0.938047  0.217141  0.332786  1
  O  O204  1  0.437994  0.328132  0.487651  1
  O  O205  1  0.123772  0.328371  0.487741  1
  O  O206  1  0.438838  0.328096  0.313853  1
  O  O207  1  0.852486  0.166822  0.436049  1
  O  O208  1  0.482366  0.166677  0.388720  1
  O  O209  1  0.994916  0.167817  0.303350  1
  O  O210  1  0.285919  0.423843  0.467491  1
  O  O211  1  0.099347  0.423813  0.296511  1
  O  O212  1  0.613211  0.424300  0.344135  1
  O  O213  1  0.613751  0.423837  0.296606  1
  O  O214  1  0.286198  0.423857  0.344023  1
  O  O215  1  0.099369  0.424302  0.467740  1
  O  O216  1  0.405423  0.413548  0.441756  1
  O  O217  1  0.889358  0.413033  0.263694  1
  O  O218  1  0.704832  0.413506  0.394807  1
  O  O219  1  0.704787  0.413329  0.263625  1
  O  O220  1  0.404772  0.413172  0.394723  1
  O  O221  1  0.889195  0.413597  0.441701  1
  O  O222  1  0.492660  0.409475  0.494648  1
  O  O223  1  0.013503  0.409421  0.494565  1
  O  O224  1  0.492732  0.409401  0.362137  1
  O  O225  1  0.353428  0.365453  0.453528  1
  O  O226  1  0.037078  0.365280  0.264651  1
  O  O227  1  0.610043  0.365642  0.345082  1
  O  O228  1  0.609674  0.365386  0.264647  1
  O  O229  1  0.352926  0.365326  0.345098  1
  O  O230  1  0.036658  0.365675  0.453572  1
  O  O231  1  0.650889  0.476841  0.338198  1
  O  O232  1  0.175133  0.476811  0.471439  1
  O  O233  1  0.175264  0.476777  0.338108  1
  O  O234  1  0.456597  0.451134  0.307033  1
  O  O235  1  0.272028  0.451232  0.514358  1
  O  O236  1  0.271937  0.450017  0.306734  1
  O  O237  1  0.327394  0.462694  0.420690  1
  O  O238  1  0.836083  0.462651  0.295753  1
  O  O239  1  0.836622  0.462630  0.420530  1
  O  O240  1  0.186406  0.499995  0.388443  1
  O  O241  1  0.541539  0.449712  0.444496  1
  O  O242  1  0.729691  0.449288  0.492219  1
  O  O243  1  0.729422  0.450595  0.444757  1
  O  O244  1  0.228632  0.338349  0.289553  1
  O  O245  1  0.542924  0.338495  0.289523  1
  O  O246  1  0.227938  0.338646  0.463438  1
  O  O247  1  0.000000  0.499917  0.435742  1
  O  O248  1  0.000000  0.499936  0.341068  1
  O  O249  1  0.665655  0.498883  0.473941  1
  O  O250  1  0.506785  0.590511  0.415295  1
  O  O251  1  0.389954  0.634662  0.432261  1
  O  O252  1  0.646938  0.634354  0.432245  1
  O  O253  1  0.713092  0.575988  0.309851  1
  O  O254  1  0.899912  0.575943  0.480847  1
  O  O255  1  0.385741  0.576245  0.433466  1
  O  O256  1  0.386331  0.575939  0.480952  1
  O  O257  1  0.713182  0.575817  0.433343  1
  O  O258  1  0.900130  0.576305  0.310003  1
  O  O259  1  0.594627  0.586816  0.335870  1
  O  O260  1  0.110263  0.586428  0.513749  1
  O  O261  1  0.294457  0.586785  0.382697  1
  O  O262  1  0.294458  0.586678  0.513738  1
  O  O263  1  0.594241  0.586424  0.382580  1
  O  O264  1  0.110266  0.586874  0.335842  1
  O  O265  1  0.506716  0.590691  0.282893  1
  O  O266  1  0.985695  0.590594  0.282801  1
  O  O267  1  0.647129  0.634618  0.323758  1
  O  O268  1  0.963480  0.634478  0.512639  1
  O  O269  1  0.389532  0.634579  0.512620  1
  O  O270  1  0.963128  0.634736  0.323730  1
  O  O271  1  0.349837  0.523247  0.438887  1
  O  O272  1  0.825281  0.523230  0.305440  1
  O  O273  1  0.825886  0.523186  0.438862  1
  O  O274  1  0.543700  0.549416  0.470210  1
  O  O275  1  0.728245  0.549815  0.263018  1
  O  O276  1  0.728452  0.548486  0.470021  1
  O  O277  1  0.673154  0.537403  0.356487  1
  O  O278  1  0.163413  0.537379  0.481151  1
  O  O279  1  0.163831  0.537340  0.356339  1
  O  O280  1  0.186206  0.500109  0.435769  1
  O  O281  1  0.458835  0.549883  0.332340  1
  O  O282  1  0.270872  0.549746  0.284551  1
  O  O283  1  0.270952  0.550856  0.332632  1
  O  O284  1  0.772169  0.661403  0.487754  1
  O  O285  1  0.456086  0.661570  0.487751  1
  O  O286  1  0.771611  0.661630  0.313546  1
  O  O287  1  0.814267  0.500107  0.341178  1
  O  O288  1  0.814393  0.500030  0.388484  1
  O  O289  1  0.331512  0.501145  0.304787  1
  O  O290  1  0.508586  0.810136  0.471805  1
  O  O291  1  0.619444  0.757123  0.467393  1
  O  O292  1  0.433336  0.757531  0.296419  1
  O  O293  1  0.947666  0.757259  0.343969  1
  O  O294  1  0.947218  0.757264  0.296363  1
  O  O295  1  0.619793  0.757426  0.343827  1
  O  O296  1  0.432448  0.757348  0.467385  1
  O  O297  1  0.737605  0.746347  0.441287  1
  O  O298  1  0.223152  0.746802  0.263704  1
  O  O299  1  0.038249  0.746875  0.394796  1
  O  O300  1  0.038197  0.746803  0.263382  1
  O  O301  1  0.738083  0.746660  0.394529  1
  O  O302  1  0.222380  0.746711  0.441577  1
  O  O303  1  0.826134  0.742677  0.494387  1
  O  O304  1  0.347182  0.742765  0.494499  1
  O  O305  1  0.826189  0.742862  0.361994  1
  O  O306  1  0.686329  0.698576  0.453539  1
  O  O307  1  0.370243  0.698892  0.264773  1
  O  O308  1  0.943436  0.698869  0.345136  1
  O  O309  1  0.943729  0.698747  0.264525  1
  O  O310  1  0.686199  0.698859  0.344945  1
  O  O311  1  0.370188  0.698824  0.453564  1
  O  O312  1  0.983447  0.810093  0.338262  1
  O  O313  1  0.507810  0.810199  0.338496  1
  O  O314  1  0.789703  0.783807  0.306994  1
  O  O315  1  0.604945  0.783663  0.514282  1
  O  O316  1  0.605081  0.784910  0.307292  1
  O  O317  1  0.661645  0.795996  0.420974  1
  O  O318  1  0.169939  0.795982  0.296139  1
  O  O319  1  0.170297  0.796003  0.420781  1
  O  O320  1  0.334084  0.833287  0.435920  1
  O  O321  1  0.875398  0.782405  0.444815  1
  O  O322  1  0.063980  0.783612  0.492739  1
  O  O323  1  0.062908  0.783594  0.444846  1
  O  O324  1  0.561327  0.671783  0.289507  1
  O  O325  1  0.877372  0.671976  0.289570  1
  O  O326  1  0.561861  0.671739  0.463747  1
  O  O327  1  0.147294  0.833327  0.388643  1
  O  O328  1  0.995381  0.832222  0.472544  1
  O  O329  1  0.333396  0.833302  0.341691  1
  O  O330  1  0.520025  0.833323  0.388946  1
  O  O331  1  0.295858  0.967969  0.512578  1
  O  O332  1  0.723428  0.968013  0.512654  1
  O  O333  1  0.046585  0.909215  0.309620  1
  O  O334  1  0.233249  0.909422  0.480783  1
  O  O335  1  0.718892  0.909466  0.433127  1
  O  O336  1  0.718722  0.909566  0.480686  1
  O  O337  1  0.046495  0.909200  0.433337  1
  O  O338  1  0.233523  0.909373  0.309736  1
  O  O339  1  0.927866  0.919881  0.335601  1
  O  O340  1  0.443337  0.920166  0.513585  1
  O  O341  1  0.628236  0.919916  0.382349  1
  O  O342  1  0.627884  0.920149  0.513712  1
  O  O343  1  0.928940  0.920158  0.382719  1
  O  O344  1  0.443860  0.919731  0.335550  1
  O  O345  1  0.840093  0.923863  0.282652  1
  O  O346  1  0.319196  0.923948  0.282727  1
  O  O347  1  0.840242  0.923984  0.415160  1
  O  O348  1  0.980070  0.967760  0.323657  1
  O  O349  1  0.722850  0.967958  0.432039  1
  O  O350  1  0.980718  0.967874  0.432327  1
  O  O351  1  0.297065  0.967854  0.323823  1
  O  O352  1  0.684227  0.856584  0.439138  1
  O  O353  1  0.159326  0.856546  0.305823  1
  O  O354  1  0.159460  0.856539  0.439043  1
  O  O355  1  0.877423  0.883416  0.470511  1
  O  O356  1  0.062089  0.882168  0.262920  1
  O  O357  1  0.062151  0.882130  0.470244  1
  O  O358  1  0.005597  0.870669  0.356560  1
  O  O359  1  0.497127  0.870713  0.481511  1
  O  O360  1  0.496609  0.870734  0.356792  1
  O  O361  1  0.146728  0.833432  0.341350  1
  O  O362  1  0.668642  0.834482  0.303504  1
  O  O363  1  0.791590  0.883843  0.332925  1
  O  O364  1  0.603630  0.883978  0.285031  1
  O  O365  1  0.603390  0.882673  0.332411  1
  O  O366  1  0.104486  0.995012  0.487811  1
  O  O367  1  0.789927  0.994857  0.487651  1
  O  O368  1  0.105577  0.994733  0.313864  1
  O  O369  1  0.521006  0.833431  0.436358  1
  O  O370  1  0.502624  0.129343  0.549880  1
  O  O371  1  0.766149  0.090736  0.550704  1
  O  O372  1  0.279590  0.090779  0.598156  1
  O  O373  1  0.279557  0.090849  0.550756  1
  O  O374  1  0.952802  0.090467  0.598203  1
  O  O375  1  0.556120  0.079862  0.517741  1
  O  O376  1  0.371579  0.080107  0.648886  1
  O  O377  1  0.372446  0.079840  0.518169  1
  O  O378  1  0.072012  0.080084  0.649004  1
  O  O379  1  0.159380  0.076021  0.616270  1
  O  O380  1  0.704057  0.032160  0.518933  1
  O  O381  1  0.276871  0.032164  0.599349  1
  O  O382  1  0.276256  0.032214  0.519111  1
  O  O383  1  0.019752  0.031995  0.599396  1
  O  O384  1  0.318396  0.143506  0.592795  1
  O  O385  1  0.842211  0.143471  0.592633  1
  O  O386  1  0.123484  0.118366  0.561618  1
  O  O387  1  0.939004  0.117162  0.561307  1
  O  O388  1  0.666445  0.166649  0.595145  1
  O  O389  1  0.895406  0.005116  0.543786  1
  O  O390  1  0.209805  0.005072  0.543867  1
  O  O391  1  0.851287  0.166659  0.642724  1
  O  O392  1  0.260257  0.253131  0.589883  1
  O  O393  1  0.777290  0.253425  0.590056  1
  O  O394  1  0.379900  0.242707  0.564207  1
  O  O395  1  0.566999  0.242994  0.564297  1
  O  O396  1  0.961270  0.253423  0.636995  1
  O  O397  1  0.260755  0.253087  0.636739  1
  O  O398  1  0.173312  0.257205  0.537023  1
  O  O399  1  0.652477  0.257258  0.537077  1
  O  O400  1  0.313172  0.301161  0.578042  1
  O  O401  1  0.630387  0.301421  0.578077  1
  O  O402  1  0.491394  0.189933  0.559608  1
  O  O403  1  0.394468  0.216718  0.517291  1
  O  O404  1  0.340742  0.204034  0.610956  1
  O  O405  1  0.830489  0.204042  0.610775  1
  O  O406  1  0.481094  0.166670  0.595423  1
  O  O407  1  0.126048  0.215920  0.586843  1
  O  O408  1  0.938945  0.217443  0.539351  1
  O  O409  1  0.938047  0.217141  0.587033  1
  O  O410  1  0.438838  0.328096  0.568101  1
  O  O411  1  0.482366  0.166677  0.642967  1
  O  O412  1  0.994916  0.167817  0.557598  1
  O  O413  1  0.099347  0.423813  0.550758  1
  O  O414  1  0.613211  0.424300  0.598383  1
  O  O415  1  0.613751  0.423837  0.550854  1
  O  O416  1  0.286198  0.423857  0.598271  1
  O  O417  1  0.889358  0.413033  0.517942  1
  O  O418  1  0.704832  0.413506  0.649054  1
  O  O419  1  0.704787  0.413329  0.517872  1
  O  O420  1  0.404772  0.413172  0.648971  1
  O  O421  1  0.492732  0.409401  0.616384  1
  O  O422  1  0.037078  0.365280  0.518899  1
  O  O423  1  0.610043  0.365642  0.599330  1
  O  O424  1  0.609674  0.365386  0.518895  1
  O  O425  1  0.352926  0.365326  0.599345  1
  O  O426  1  0.650889  0.476841  0.592446  1
  O  O427  1  0.175264  0.476777  0.592355  1
  O  O428  1  0.456597  0.451134  0.561280  1
  O  O429  1  0.271937  0.450017  0.560981  1
  O  O430  1  0.836083  0.462651  0.550000  1
  O  O431  1  0.186406  0.499995  0.642690  1
  O  O432  1  0.228632  0.338349  0.543800  1
  O  O433  1  0.542924  0.338495  0.543771  1
  O  O434  1  0.000000  0.499936  0.595316  1
  O  O435  1  0.713092  0.575988  0.564098  1
  O  O436  1  0.900130  0.576305  0.564250  1
  O  O437  1  0.594627  0.586816  0.590117  1
  O  O438  1  0.294457  0.586785  0.636944  1
  O  O439  1  0.594241  0.586424  0.636828  1
  O  O440  1  0.110266  0.586874  0.590089  1
  O  O441  1  0.506716  0.590691  0.537140  1
  O  O442  1  0.985695  0.590594  0.537048  1
  O  O443  1  0.647129  0.634618  0.578006  1
  O  O444  1  0.963128  0.634736  0.577977  1
  O  O445  1  0.825281  0.523230  0.559687  1
  O  O446  1  0.728245  0.549815  0.517265  1
  O  O447  1  0.673154  0.537403  0.610735  1
  O  O448  1  0.163831  0.537340  0.610586  1
  O  O449  1  0.458835  0.549883  0.586588  1
  O  O450  1  0.270872  0.549746  0.538799  1
  O  O451  1  0.270952  0.550856  0.586880  1
  O  O452  1  0.771611  0.661630  0.567794  1
  O  O453  1  0.814267  0.500107  0.595426  1
  O  O454  1  0.814393  0.500030  0.642731  1
  O  O455  1  0.331512  0.501145  0.559034  1
  O  O456  1  0.433336  0.757531  0.550666  1
  O  O457  1  0.947666  0.757259  0.598216  1
  O  O458  1  0.947218  0.757264  0.550610  1
  O  O459  1  0.619793  0.757426  0.598074  1
  O  O460  1  0.223152  0.746802  0.517952  1
  O  O461  1  0.038249  0.746875  0.649043  1
  O  O462  1  0.038197  0.746803  0.517629  1
  O  O463  1  0.738083  0.746660  0.648777  1
  O  O464  1  0.826189  0.742862  0.616241  1
  O  O465  1  0.370243  0.698892  0.519020  1
  O  O466  1  0.943436  0.698869  0.599384  1
  O  O467  1  0.943729  0.698747  0.518773  1
  O  O468  1  0.686199  0.698859  0.599192  1
  O  O469  1  0.983447  0.810093  0.592509  1
  O  O470  1  0.507810  0.810199  0.592744  1
  O  O471  1  0.789703  0.783807  0.561242  1
  O  O472  1  0.605081  0.784910  0.561539  1
  O  O473  1  0.169939  0.795982  0.550387  1
  O  O474  1  0.561327  0.671783  0.543754  1
  O  O475  1  0.877372  0.671976  0.543817  1
  O  O476  1  0.147294  0.833327  0.642890  1
  O  O477  1  0.333396  0.833302  0.595938  1
  O  O478  1  0.520025  0.833323  0.643194  1
  O  O479  1  0.046585  0.909215  0.563867  1
  O  O480  1  0.233523  0.909373  0.563983  1
  O  O481  1  0.927866  0.919881  0.589849  1
  O  O482  1  0.628236  0.919916  0.636596  1
  O  O483  1  0.928940  0.920158  0.636967  1
  O  O484  1  0.443860  0.919731  0.589797  1
  O  O485  1  0.840093  0.923863  0.536899  1
  O  O486  1  0.319196  0.923948  0.536974  1
  O  O487  1  0.980070  0.967760  0.577905  1
  O  O488  1  0.297065  0.967854  0.578070  1
  O  O489  1  0.159326  0.856546  0.560071  1
  O  O490  1  0.062089  0.882168  0.517167  1
  O  O491  1  0.005597  0.870669  0.610808  1
  O  O492  1  0.496609  0.870734  0.611039  1
  O  O493  1  0.146728  0.833432  0.595597  1
  O  O494  1  0.668642  0.834482  0.557751  1
  O  O495  1  0.791590  0.883843  0.587173  1
  O  O496  1  0.603630  0.883978  0.539278  1
  O  O497  1  0.603390  0.882673  0.586658  1
  O  O498  1  0.105577  0.994733  0.568111  1
  Si  Si499  1  0.333339  0.127708  0.209262  1
  Si  Si500  1  -0.000000  0.000000  0.204169  1
  Si  Si501  1  0.050740  0.069362  0.209188  1
  Si  Si502  1  0.674435  0.069392  0.209165  1
  Si  Si503  1  0.874401  0.110413  0.225590  1
  Si  Si504  1  0.925560  0.162243  0.166161  1
  Si  Si505  1  0.537127  0.162232  0.166368  1
  Si  Si506  1  0.086339  0.102296  0.171322  1
  Si  Si507  1  0.456447  0.102105  0.171288  1
  Si  Si508  1  0.774257  0.000000  0.204080  1
  Si  Si509  1  0.775060  0.000000  0.261502  1
  Si  Si510  1  0.333813  0.203318  0.228572  1
  Si  Si511  1  0.658302  0.263962  0.256696  1
  Si  Si512  1  0.058344  0.264100  0.161318  1
  Si  Si513  1  0.058432  0.263901  0.256526  1
  Si  Si514  1  0.282790  0.263959  0.161131  1
  Si  Si515  1  0.081735  0.222499  0.201287  1
  Si  Si516  1  0.459046  0.222722  0.201342  1
  Si  Si517  1  0.797115  0.171133  0.201866  1
  Si  Si518  1  0.876691  0.231530  0.257669  1
  Si  Si519  1  0.108464  0.333252  0.261463  1
  Si  Si520  1  0.558206  0.333286  0.261487  1
  Si  Si521  1  0.666656  0.461040  0.209270  1
  Si  Si522  1  0.383484  0.402752  0.209309  1
  Si  Si523  1  0.007768  0.402890  0.209333  1
  Si  Si524  1  0.207301  0.444073  0.225657  1
  Si  Si525  1  0.260175  0.495604  0.166145  1
  Si  Si526  1  0.870376  0.495538  0.166129  1
  Si  Si527  1  0.419875  0.435367  0.171366  1
  Si  Si528  1  0.789981  0.435623  0.171363  1
  Si  Si529  1  0.107820  0.333549  0.204150  1
  Si  Si530  1  0.333216  0.333335  0.204080  1
  Si  Si531  1  0.391483  0.597406  0.161273  1
  Si  Si532  1  0.616224  0.597126  0.161211  1
  Si  Si533  1  0.666596  0.536654  0.228540  1
  Si  Si534  1  0.666819  0.666482  0.204241  1
  Si  Si535  1  0.991741  0.597210  0.256667  1
  Si  Si536  1  0.391458  0.597353  0.256737  1
  Si  Si537  1  0.415001  0.556150  0.201482  1
  Si  Si538  1  0.792601  0.555838  0.201357  1
  Si  Si539  1  0.130229  0.504463  0.201447  1
  Si  Si540  1  0.209713  0.564505  0.257499  1
  Si  Si541  1  0.892573  0.666652  0.261505  1
  Si  Si542  1  -0.000000  0.794379  0.209256  1
  Si  Si543  1  0.716568  0.735820  0.209132  1
  Si  Si544  1  0.341035  0.736029  0.209193  1
  Si  Si545  1  0.540703  0.777140  0.225614  1
  Si  Si546  1  0.594554  0.828923  0.166618  1
  Si  Si547  1  0.204038  0.828884  0.166330  1
  Si  Si548  1  0.753268  0.768434  0.171282  1
  Si  Si549  1  0.123347  0.768881  0.171405  1
  Si  Si550  1  0.441345  0.666737  0.204281  1
  Si  Si551  1  0.000000  0.869991  0.228417  1
  Si  Si552  1  0.324850  0.930743  0.256610  1
  Si  Si553  1  0.724707  0.930720  0.161004  1
  Si  Si554  1  0.724741  0.930773  0.256635  1
  Si  Si555  1  0.950011  0.930664  0.161270  1
  Si  Si556  1  0.748350  0.889688  0.201403  1
  Si  Si557  1  0.125933  0.889267  0.201391  1
  Si  Si558  1  0.464030  0.837802  0.201807  1
  Si  Si559  1  0.543115  0.898160  0.257649  1
  Si  Si560  1  0.224820  -0.000000  0.261585  1
  Si  Si561  1  0.000000  0.130048  0.294491  1
  Si  Si562  1  0.333339  0.127708  0.463509  1
  Si  Si563  1  -0.000000  0.000000  0.458417  1
  Si  Si564  1  0.050740  0.069362  0.463435  1
  Si  Si565  1  0.674829  0.069360  0.266342  1
  Si  Si566  1  0.274663  0.069412  0.361799  1
  Si  Si567  1  0.274735  0.069416  0.266534  1
  Si  Si568  1  0.050158  0.069256  0.361884  1
  Si  Si569  1  0.674435  0.069392  0.463413  1
  Si  Si570  1  0.251596  0.110918  0.321779  1
  Si  Si571  1  0.874401  0.110413  0.479837  1
  Si  Si572  1  0.874294  0.110519  0.321658  1
  Si  Si573  1  0.925560  0.162243  0.420408  1
  Si  Si574  1  0.536449  0.162243  0.321088  1
  Si  Si575  1  0.537127  0.162232  0.420615  1
  Si  Si576  1  0.086339  0.102296  0.425570  1
  Si  Si577  1  0.456412  0.101767  0.265342  1
  Si  Si578  1  0.456447  0.102105  0.425535  1
  Si  Si579  1  0.774257  0.000000  0.458328  1
  Si  Si580  1  0.775060  0.000000  0.515750  1
  Si  Si581  1  0.333813  0.203318  0.482819  1
  Si  Si582  1  0.000000  0.205656  0.313785  1
  Si  Si583  1  0.282458  0.263933  0.313868  1
  Si  Si584  1  0.658302  0.263962  0.510944  1
  Si  Si585  1  0.058344  0.264100  0.415565  1
  Si  Si586  1  0.058432  0.263901  0.510774  1
  Si  Si587  1  0.282790  0.263959  0.415378  1
  Si  Si588  1  0.658757  0.264137  0.313931  1
  Si  Si589  1  0.081735  0.222499  0.455534  1
  Si  Si590  1  0.458959  0.223026  0.297459  1
  Si  Si591  1  0.459046  0.222722  0.455589  1
  Si  Si592  1  0.408040  0.171125  0.356804  1
  Si  Si593  1  0.797115  0.171133  0.456113  1
  Si  Si594  1  0.796479  0.171119  0.356583  1
  Si  Si595  1  0.246837  0.230969  0.351696  1
  Si  Si596  1  0.876691  0.231530  0.511916  1
  Si  Si597  1  0.876781  0.231425  0.351796  1
  Si  Si598  1  0.333423  0.333207  0.318893  1
  Si  Si599  1  0.108464  0.333252  0.515711  1
  Si  Si600  1  0.558206  0.333286  0.515735  1
  Si  Si601  1  0.333140  0.463374  0.294613  1
  Si  Si602  1  0.666656  0.461040  0.463517  1
  Si  Si603  1  0.558807  0.333461  0.318918  1
  Si  Si604  1  0.383484  0.402752  0.463556  1
  Si  Si605  1  0.007842  0.402498  0.266387  1
  Si  Si606  1  0.608052  0.402840  0.361930  1
  Si  Si607  1  0.608035  0.402651  0.266452  1
  Si  Si608  1  0.383362  0.402557  0.361892  1
  Si  Si609  1  0.007768  0.402890  0.463580  1
  Si  Si610  1  0.585026  0.444071  0.321712  1
  Si  Si611  1  0.207301  0.444073  0.479904  1
  Si  Si612  1  0.207493  0.443704  0.321551  1
  Si  Si613  1  0.260175  0.495604  0.420393  1
  Si  Si614  1  0.870174  0.495569  0.321200  1
  Si  Si615  1  0.870376  0.495538  0.420377  1
  Si  Si616  1  0.419875  0.435367  0.425613  1
  Si  Si617  1  0.789796  0.435170  0.265390  1
  Si  Si618  1  0.789981  0.435623  0.425611  1
  Si  Si619  1  0.107820  0.333549  0.458398  1
  Si  Si620  1  0.333216  0.333335  0.458327  1
  Si  Si621  1  0.391483  0.597406  0.415520  1
  Si  Si622  1  0.616224  0.597126  0.415458  1
  Si  Si623  1  0.666596  0.536654  0.482787  1
  Si  Si624  1  0.333217  0.538989  0.313792  1
  Si  Si625  1  0.666819  0.666482  0.458488  1
  Si  Si626  1  0.616230  0.597421  0.313901  1
  Si  Si627  1  0.991741  0.597210  0.510915  1
  Si  Si628  1  0.391458  0.597353  0.510984  1
  Si  Si629  1  0.991748  0.597484  0.313874  1
  Si  Si630  1  0.415001  0.556150  0.455729  1
  Si  Si631  1  0.792319  0.556258  0.297434  1
  Si  Si632  1  0.792601  0.555838  0.455604  1
  Si  Si633  1  0.740439  0.504501  0.356582  1
  Si  Si634  1  0.130229  0.504463  0.455695  1
  Si  Si635  1  0.130261  0.504420  0.356507  1
  Si  Si636  1  0.580087  0.564569  0.351693  1
  Si  Si637  1  0.209713  0.564505  0.511746  1
  Si  Si638  1  0.209936  0.564859  0.351719  1
  Si  Si639  1  0.892573  0.666652  0.515753  1
  Si  Si640  1  0.000000  0.794379  0.463504  1
  Si  Si641  1  0.666966  0.796710  0.294515  1
  Si  Si642  1  0.440907  0.666702  0.261534  1
  Si  Si643  1  0.716568  0.735820  0.463379  1
  Si  Si644  1  0.341601  0.736128  0.266435  1
  Si  Si645  1  0.941749  0.736115  0.361907  1
  Si  Si646  1  0.941641  0.736009  0.266232  1
  Si  Si647  1  0.716648  0.736097  0.361709  1
  Si  Si648  1  0.341035  0.736029  0.463440  1
  Si  Si649  1  0.918468  0.777152  0.321555  1
  Si  Si650  1  0.540703  0.777140  0.479862  1
  Si  Si651  1  0.540785  0.777555  0.321670  1
  Si  Si652  1  0.594554  0.828923  0.420865  1
  Si  Si653  1  0.203466  0.828908  0.321584  1
  Si  Si654  1  0.204038  0.828884  0.420578  1
  Si  Si655  1  0.753268  0.768434  0.425529  1
  Si  Si656  1  0.123659  0.768855  0.265544  1
  Si  Si657  1  0.123347  0.768881  0.425652  1
  Si  Si658  1  0.892038  0.666828  0.318799  1
  Si  Si659  1  0.666617  0.666698  0.318770  1
  Si  Si660  1  0.441345  0.666737  0.458528  1
  Si  Si661  1  0.000000  0.869991  0.482664  1
  Si  Si662  1  0.666692  0.872322  0.313785  1
  Si  Si663  1  0.949562  0.930513  0.313675  1
  Si  Si664  1  0.324850  0.930743  0.510857  1
  Si  Si665  1  0.724707  0.930720  0.415251  1
  Si  Si666  1  0.724741  0.930773  0.510882  1
  Si  Si667  1  0.950011  0.930664  0.415517  1
  Si  Si668  1  0.325389  0.930586  0.313780  1
  Si  Si669  1  0.748350  0.889688  0.455650  1
  Si  Si670  1  0.126042  0.889295  0.297373  1
  Si  Si671  1  0.125933  0.889267  0.455638  1
  Si  Si672  1  0.072935  0.837786  0.356740  1
  Si  Si673  1  0.464030  0.837802  0.456055  1
  Si  Si674  1  0.463343  0.837796  0.357025  1
  Si  Si675  1  0.913404  0.898071  0.351757  1
  Si  Si676  1  0.543115  0.898160  0.511896  1
  Si  Si677  1  0.543071  0.897700  0.351613  1
  Si  Si678  1  0.000000  0.000000  0.318877  1
  Si  Si679  1  0.225715  0.000000  0.318978  1
  Si  Si680  1  0.224820  -0.000000  0.515833  1
  Si  Si681  1  -0.000000  0.130048  0.548738  1
  Si  Si682  1  0.674829  0.069360  0.520590  1
  Si  Si683  1  0.274663  0.069412  0.616047  1
  Si  Si684  1  0.274735  0.069416  0.520781  1
  Si  Si685  1  0.050158  0.069256  0.616132  1
  Si  Si686  1  0.251596  0.110918  0.576026  1
  Si  Si687  1  0.874294  0.110519  0.575905  1
  Si  Si688  1  0.536449  0.162243  0.575336  1
  Si  Si689  1  0.456412  0.101767  0.519589  1
  Si  Si690  1  0.000000  0.205656  0.568032  1
  Si  Si691  1  0.282458  0.263933  0.568115  1
  Si  Si692  1  0.658757  0.264137  0.568178  1
  Si  Si693  1  0.458959  0.223026  0.551706  1
  Si  Si694  1  0.408040  0.171125  0.611051  1
  Si  Si695  1  0.796479  0.171119  0.610830  1
  Si  Si696  1  0.246837  0.230969  0.605943  1
  Si  Si697  1  0.876781  0.231425  0.606043  1
  Si  Si698  1  0.333423  0.333207  0.573140  1
  Si  Si699  1  0.333140  0.463374  0.548860  1
  Si  Si700  1  0.558807  0.333461  0.573165  1
  Si  Si701  1  0.007842  0.402498  0.520635  1
  Si  Si702  1  0.608052  0.402840  0.616178  1
  Si  Si703  1  0.608035  0.402651  0.520699  1
  Si  Si704  1  0.383362  0.402557  0.616140  1
  Si  Si705  1  0.585026  0.444071  0.575959  1
  Si  Si706  1  0.207493  0.443704  0.575799  1
  Si  Si707  1  0.870174  0.495569  0.575447  1
  Si  Si708  1  0.789796  0.435170  0.519637  1
  Si  Si709  1  0.333217  0.538989  0.568040  1
  Si  Si710  1  0.616230  0.597421  0.568148  1
  Si  Si711  1  0.991748  0.597484  0.568121  1
  Si  Si712  1  0.792319  0.556258  0.551681  1
  Si  Si713  1  0.740439  0.504501  0.610829  1
  Si  Si714  1  0.130261  0.504420  0.610755  1
  Si  Si715  1  0.580087  0.564569  0.605940  1
  Si  Si716  1  0.209936  0.564859  0.605966  1
  Si  Si717  1  0.666966  0.796710  0.548762  1
  Si  Si718  1  0.440907  0.666702  0.515782  1
  Si  Si719  1  0.341601  0.736128  0.520682  1
  Si  Si720  1  0.941749  0.736115  0.616154  1
  Si  Si721  1  0.941641  0.736009  0.520479  1
  Si  Si722  1  0.716648  0.736097  0.615956  1
  Si  Si723  1  0.918468  0.777152  0.575803  1
  Si  Si724  1  0.540785  0.777555  0.575917  1
  Si  Si725  1  0.203466  0.828908  0.575832  1
  Si  Si726  1  0.123659  0.768855  0.519791  1
  Si  Si727  1  0.892038  0.666828  0.573047  1
  Si  Si728  1  0.666617  0.666698  0.573018  1
  Si  Si729  1  0.666692  0.872322  0.568033  1
  Si  Si730  1  0.949562  0.930513  0.567923  1
  Si  Si731  1  0.325389  0.930586  0.568027  1
  Si  Si732  1  0.126042  0.889295  0.551620  1
  Si  Si733  1  0.072935  0.837786  0.610987  1
  Si  Si734  1  0.463343  0.837796  0.611273  1
  Si  Si735  1  0.913404  0.898071  0.606004  1
  Si  Si736  1  0.543071  0.897700  0.605860  1
  Si  Si737  1  0.000000  0.000000  0.573124  1
  Si  Si738  1  0.225715  0.000000  0.573225  1
  H  H739  1  0.371579  0.080107  0.123712  1
  H  H740  1  0.072012  0.080084  0.123830  1
  H  H741  1  0.851287  0.166659  0.117550  1
  H  H742  1  0.961270  0.253423  0.111821  1
  H  H743  1  0.260755  0.253087  0.111565  1
  H  H744  1  0.482366  0.166677  0.117793  1
  H  H745  1  0.704832  0.413506  0.123880  1
  H  H746  1  0.404772  0.413172  0.123797  1
  H  H747  1  0.186406  0.499995  0.117516  1
  H  H748  1  0.294457  0.586785  0.111770  1
  H  H749  1  0.594241  0.586424  0.111654  1
  H  H750  1  0.814393  0.500030  0.117557  1
  H  H751  1  0.038249  0.746875  0.123869  1
  H  H752  1  0.738083  0.746660  0.123603  1
  H  H753  1  0.147294  0.833327  0.117716  1
  H  H754  1  0.520025  0.833323  0.118020  1
  H  H755  1  0.628236  0.919916  0.111422  1
  H  H756  1  0.928940  0.920158  0.111793  1
  H  H757  1  0.371579  0.080107  0.665565  1
  H  H758  1  0.072012  0.080084  0.665684  1
  H  H759  1  0.851287  0.166659  0.659404  1
  H  H760  1  0.961270  0.253423  0.653675  1
  H  H761  1  0.260755  0.253087  0.653418  1
  H  H762  1  0.482366  0.166677  0.659647  1
  H  H763  1  0.704832  0.413506  0.665734  1
  H  H764  1  0.404772  0.413172  0.665650  1
  H  H765  1  0.186406  0.499995  0.659370  1
  H  H766  1  0.294457  0.586785  0.653624  1
  H  H767  1  0.594241  0.586424  0.653507  1
  H  H768  1  0.814393  0.500030  0.659410  1
  H  H769  1  0.038249  0.746875  0.665722  1
  H  H770  1  0.738083  0.746660  0.665456  1
  H  H771  1  0.147294  0.833327  0.659569  1
  H  H772  1  0.520025  0.833323  0.659873  1
  H  H773  1  0.628236  0.919916  0.653275  1
  H  H774  1  0.928940  0.920158  0.653646  1
