# generated using pymatgen
data_Si24H2O49
_symmetry_space_group_name_H-M   'P 1'
_cell_length_a   7.44973890
_cell_length_b   9.93999687
_cell_length_c   60.50406410
_cell_angle_alpha   108.91700000
_cell_angle_beta   90.00000000
_cell_angle_gamma   90.00000000
_symmetry_Int_Tables_number   1
_chemical_formula_structural   Si24H2O49
_chemical_formula_sum   'Si48 H4 O98'
_cell_volume   4238.36182484
_cell_formula_units_Z   2
loop_
 _symmetry_equiv_pos_site_id
 _symmetry_equiv_pos_as_xyz
  1  'x, y, z'
loop_
 _atom_site_type_symbol
 _atom_site_label
 _atom_site_symmetry_multiplicity
 _atom_site_fract_x
 _atom_site_fract_y
 _atom_site_fract_z
 _atom_site_occupancy
  O  O1  1  -0.000000  0.303826  0.102232  1
  O  O2  1  0.170954  0.770201  0.150000  1
  O  O3  1  0.670062  0.771964  0.303242  1
  O  O4  1  0.170222  0.229782  0.368607  1
  O  O5  1  0.670825  0.229129  0.215534  1
  O  O6  1  0.828472  0.230830  0.368725  1
  O  O7  1  0.329207  0.228999  0.215484  1
  O  O8  1  0.829239  0.770284  0.150038  1
  O  O9  1  0.328545  0.770831  0.303126  1
  O  O10  1  0.254383  0.001790  0.181971  1
  O  O11  1  0.745975  0.998556  0.336877  1
  O  O12  1  0.254019  0.998374  0.336589  1
  O  O13  1  0.745615  0.001680  0.182060  1
  O  O14  1  0.246571  0.767185  0.190595  1
  O  O15  1  0.754141  0.758346  0.342913  1
  O  O16  1  0.246562  0.233167  0.328042  1
  O  O17  1  0.754330  0.241113  0.175766  1
  O  O18  1  0.752903  0.232623  0.328071  1
  O  O19  1  0.245323  0.241454  0.175740  1
  O  O20  1  0.753414  0.766853  0.190601  1
  O  O21  1  0.245314  0.758971  0.342909  1
  O  O22  1  0.500083  0.816230  0.166440  1
  O  O23  1  -0.000000  0.823008  0.319378  1
  O  O24  1  0.499456  0.183770  0.352257  1
  O  O25  1  0.000000  0.177013  0.199307  1
  O  O26  1  0.500144  0.347504  0.158423  1
  O  O27  1  0.000000  0.355925  0.312204  1
  O  O28  1  0.499500  0.652124  0.360207  1
  O  O29  1  0.000000  0.643652  0.206429  1
  O  O30  1  0.255478  0.503716  0.182182  1
  O  O31  1  0.744500  0.496066  0.336491  1
  O  O32  1  0.254087  0.496648  0.336489  1
  O  O33  1  0.745019  0.503367  0.182193  1
  O  O34  1  0.170062  0.340124  0.142183  1
  O  O35  1  0.669665  0.340217  0.295550  1
  O  O36  1  0.169472  0.660651  0.376487  1
  O  O37  1  0.670495  0.659431  0.223135  1
  O  O38  1  0.829426  0.659902  0.376495  1
  O  O39  1  0.329898  0.659766  0.223126  1
  O  O40  1  0.830009  0.340098  0.142151  1
  O  O41  1  0.329145  0.341052  0.295538  1
  O  O42  1  -0.000000  0.696724  0.109844  1
  O  O43  1  0.500034  0.696032  0.262980  1
  O  O44  1  0.000000  0.303826  0.408837  1
  O  O45  1  0.499663  0.304373  0.255708  1
  O  O46  1  -0.000000  0.539807  0.135196  1
  O  O47  1  0.500540  0.540763  0.288634  1
  O  O48  1  0.000000  0.460731  0.383497  1
  O  O49  1  0.499790  0.459641  0.230068  1
  O  O50  1  0.170954  0.770201  0.456605  1
  O  O51  1  0.670062  0.771964  0.609847  1
  O  O52  1  0.170222  0.229782  0.675211  1
  O  O53  1  0.670825  0.229129  0.522139  1
  O  O54  1  0.828472  0.230830  0.675330  1
  O  O55  1  0.329207  0.228999  0.522089  1
  O  O56  1  0.829239  0.770284  0.456643  1
  O  O57  1  0.328545  0.770831  0.609731  1
  O  O58  1  0.254383  0.001790  0.488576  1
  O  O59  1  0.745975  0.998556  0.643482  1
  O  O60  1  0.254019  0.998374  0.643194  1
  O  O61  1  0.745615  0.001680  0.488664  1
  O  O62  1  0.246571  0.767185  0.497199  1
  O  O63  1  0.754141  0.758346  0.649518  1
  O  O64  1  0.246562  0.233167  0.634647  1
  O  O65  1  0.754330  0.241113  0.482370  1
  O  O66  1  0.752903  0.232623  0.634676  1
  O  O67  1  0.245323  0.241454  0.482345  1
  O  O68  1  0.753414  0.766853  0.497206  1
  O  O69  1  0.245314  0.758971  0.649514  1
  O  O70  1  0.500083  0.816230  0.473044  1
  O  O71  1  0.000000  0.823008  0.625983  1
  O  O72  1  0.499456  0.183770  0.658861  1
  O  O73  1  0.000000  0.177013  0.505912  1
  O  O74  1  0.500144  0.347504  0.465028  1
  O  O75  1  -0.000000  0.355925  0.618808  1
  O  O76  1  0.499500  0.652124  0.666811  1
  O  O77  1  0.000000  0.643652  0.513033  1
  O  O78  1  0.255478  0.503716  0.488787  1
  O  O79  1  0.744500  0.496066  0.643096  1
  O  O80  1  0.254087  0.496648  0.643093  1
  O  O81  1  0.745019  0.503367  0.488797  1
  O  O82  1  0.170062  0.340124  0.448788  1
  O  O83  1  0.669665  0.340217  0.602155  1
  O  O84  1  0.169472  0.660651  0.683092  1
  O  O85  1  0.670495  0.659431  0.529740  1
  O  O86  1  0.829426  0.659902  0.683100  1
  O  O87  1  0.329898  0.659766  0.529730  1
  O  O88  1  0.830009  0.340098  0.448756  1
  O  O89  1  0.329145  0.341052  0.602143  1
  O  O90  1  -0.000000  0.696724  0.416448  1
  O  O91  1  0.500034  0.696032  0.569584  1
  O  O92  1  0.000000  0.303826  0.715442  1
  O  O93  1  0.499663  0.304373  0.562312  1
  O  O94  1  0.000000  0.539807  0.441800  1
  O  O95  1  0.500540  0.540763  0.595239  1
  O  O96  1  0.000000  0.460731  0.690101  1
  O  O97  1  0.499790  0.459641  0.536672  1
  O  O98  1  0.000000  0.696724  0.723053  1
  Si  Si99  1  0.293586  0.839484  0.171847  1
  Si  Si100  1  0.793077  0.838692  0.325122  1
  Si  Si101  1  0.293047  0.160672  0.346779  1
  Si  Si102  1  0.793537  0.161508  0.193651  1
  Si  Si103  1  0.706022  0.160793  0.346888  1
  Si  Si104  1  0.206445  0.161589  0.193602  1
  Si  Si105  1  0.706543  0.839383  0.171881  1
  Si  Si106  1  0.205951  0.838551  0.325019  1
  Si  Si107  1  0.293683  0.354816  0.163924  1
  Si  Si108  1  0.793018  0.352984  0.317259  1
  Si  Si109  1  0.293049  0.645494  0.354724  1
  Si  Si110  1  0.793668  0.646481  0.201401  1
  Si  Si111  1  0.705971  0.644970  0.354730  1
  Si  Si112  1  0.206644  0.646770  0.201398  1
  Si  Si113  1  0.706622  0.354535  0.163921  1
  Si  Si114  1  0.205975  0.353521  0.317250  1
  Si  Si115  1  0.000000  0.697889  0.135926  1
  Si  Si116  1  0.499809  0.698445  0.289116  1
  Si  Si117  1  0.000000  0.302633  0.382755  1
  Si  Si118  1  0.499874  0.301949  0.229572  1
  Si  Si119  1  -0.000000  0.375132  0.129560  1
  Si  Si120  1  0.499699  0.376069  0.283024  1
  Si  Si121  1  -0.000000  0.625400  0.389120  1
  Si  Si122  1  0.500063  0.624311  0.235663  1
  Si  Si123  1  0.293586  0.839484  0.478451  1
  Si  Si124  1  0.793077  0.838692  0.631727  1
  Si  Si125  1  0.293047  0.160672  0.653384  1
  Si  Si126  1  0.793537  0.161508  0.500256  1
  Si  Si127  1  0.706022  0.160793  0.653493  1
  Si  Si128  1  0.206445  0.161589  0.500207  1
  Si  Si129  1  0.706543  0.839383  0.478486  1
  Si  Si130  1  0.205951  0.838551  0.631624  1
  Si  Si131  1  0.293683  0.354816  0.470529  1
  Si  Si132  1  0.793018  0.352984  0.623863  1
  Si  Si133  1  0.293049  0.645494  0.661329  1
  Si  Si134  1  0.793668  0.646481  0.508006  1
  Si  Si135  1  0.705971  0.644970  0.661334  1
  Si  Si136  1  0.206644  0.646770  0.508003  1
  Si  Si137  1  0.706622  0.354535  0.470526  1
  Si  Si138  1  0.205975  0.353521  0.623855  1
  Si  Si139  1  -0.000000  0.697889  0.442531  1
  Si  Si140  1  0.499809  0.698445  0.595721  1
  Si  Si141  1  0.000000  0.302633  0.689359  1
  Si  Si142  1  0.499874  0.301949  0.536177  1
  Si  Si143  1  -0.000000  0.375132  0.436165  1
  Si  Si144  1  0.499699  0.376069  0.589629  1
  Si  Si145  1  0.000000  0.625400  0.695725  1
  Si  Si146  1  0.500063  0.624311  0.542268  1
  H  H147  1  -0.000000  0.303826  0.087357  1
  H  H148  1  -0.000000  0.696724  0.094968  1
  H  H149  1  0.000000  0.303826  0.730317  1
  H  H150  1  0.000000  0.696724  0.737928  1
