# generated using pymatgen
data_Si48H2O97
_symmetry_space_group_name_H-M   'P 1'
_cell_length_a   18.96410246
_cell_length_b   8.50858376
_cell_length_c   91.11173925
_cell_angle_alpha   90.00000000
_cell_angle_beta   90.00000000
_cell_angle_gamma   90.00000000
_symmetry_Int_Tables_number   1
_chemical_formula_structural   Si48H2O97
_chemical_formula_sum   'Si192 H8 O388'
_cell_volume   14701.5765165
_cell_formula_units_Z   4
loop_
 _symmetry_equiv_pos_site_id
 _symmetry_equiv_pos_as_xyz
  1  'x, y, z'
loop_
 _atom_site_type_symbol
 _atom_site_label
 _atom_site_symmetry_multiplicity
 _atom_site_fract_x
 _atom_site_fract_y
 _atom_site_fract_z
 _atom_site_occupancy
  O  O1  1  0.500071  0.516532  0.236176  1
  O  O2  1  -0.000000  0.516499  0.109380  1
  O  O3  1  0.499872  0.016550  0.146914  1
  O  O4  1  -0.000000  0.016482  0.273710  1
  O  O5  1  0.499869  0.483337  0.146915  1
  O  O6  1  -0.000000  0.483371  0.273711  1
  O  O7  1  0.500073  0.983315  0.236176  1
  O  O8  1  0.000000  0.983390  0.109380  1
  O  O9  1  0.430973  0.484611  0.259629  1
  O  O10  1  0.930897  0.484591  0.132838  1
  O  O11  1  0.569046  0.484554  0.259634  1
  O  O12  1  0.068968  0.484628  0.132840  1
  O  O13  1  0.430903  0.984584  0.123456  1
  O  O14  1  0.930980  0.984602  0.250251  1
  O  O15  1  0.568986  0.984740  0.123462  1
  O  O16  1  0.069050  0.984572  0.250253  1
  O  O17  1  0.568983  0.515147  0.123462  1
  O  O18  1  0.069049  0.515272  0.250254  1
  O  O19  1  0.430900  0.515309  0.123456  1
  O  O20  1  0.930979  0.515247  0.250251  1
  O  O21  1  0.569046  0.015292  0.259634  1
  O  O22  1  0.068971  0.015267  0.132840  1
  O  O23  1  0.430965  0.015117  0.259630  1
  O  O24  1  0.930900  0.015297  0.132837  1
  O  O25  1  0.499991  0.249917  0.248924  1
  O  O26  1  -0.000000  0.249946  0.122131  1
  O  O27  1  0.499950  0.749944  0.134166  1
  O  O28  1  -0.000000  0.749924  0.260960  1
  O  O29  1  0.932496  0.499070  0.297556  1
  O  O30  1  0.432342  0.498276  0.170768  1
  O  O31  1  0.067509  0.498865  0.297553  1
  O  O32  1  0.567347  0.499750  0.170754  1
  O  O33  1  0.932439  0.998920  0.085538  1
  O  O34  1  0.432600  0.000000  0.212337  1
  O  O35  1  0.067452  0.000000  0.085535  1
  O  O36  1  0.567606  0.998272  0.212323  1
  O  O37  1  0.067448  0.500835  0.085535  1
  O  O38  1  0.567603  0.501575  0.212324  1
  O  O39  1  0.932436  0.500968  0.085538  1
  O  O40  1  0.432597  0.500126  0.212337  1
  O  O41  1  0.067511  0.000000  0.297553  1
  O  O42  1  0.567351  0.000000  0.170753  1
  O  O43  1  0.932498  0.000000  0.297556  1
  O  O44  1  0.432345  0.001594  0.170768  1
  O  O45  1  0.802699  0.515383  0.291357  1
  O  O46  1  0.302625  0.515533  0.164564  1
  O  O47  1  0.197309  0.515385  0.291360  1
  O  O48  1  0.697208  0.515357  0.164565  1
  O  O49  1  0.802635  0.015387  0.091731  1
  O  O50  1  0.302741  0.015343  0.218526  1
  O  O51  1  0.197246  0.015411  0.091734  1
  O  O52  1  0.697324  0.015516  0.218526  1
  O  O53  1  0.197242  0.484471  0.091734  1
  O  O54  1  0.697323  0.484337  0.218526  1
  O  O55  1  0.802632  0.484495  0.091732  1
  O  O56  1  0.302739  0.484503  0.218527  1
  O  O57  1  0.197311  0.984464  0.291359  1
  O  O58  1  0.697211  0.984522  0.164564  1
  O  O59  1  0.802700  0.984473  0.291357  1
  O  O60  1  0.302628  0.984346  0.164564  1
  O  O61  1  0.844836  0.499856  0.064756  1
  O  O62  1  0.344817  0.500680  0.191568  1
  O  O63  1  0.155107  0.500014  0.064758  1
  O  O64  1  0.655126  0.499184  0.191523  1
  O  O65  1  0.844840  0.000000  0.064756  1
  O  O66  1  0.344819  0.000000  0.191567  1
  O  O67  1  0.155109  0.000000  0.064758  1
  O  O68  1  0.655130  0.000000  0.191523  1
  O  O69  1  0.865446  0.749930  0.303089  1
  O  O70  1  0.365774  0.749935  0.176233  1
  O  O71  1  0.134450  0.749929  0.303068  1
  O  O72  1  0.634723  0.749939  0.176371  1
  O  O73  1  0.865475  0.249941  0.080023  1
  O  O74  1  0.365227  0.249927  0.206720  1
  O  O75  1  0.134479  0.249938  0.080002  1
  O  O76  1  0.634177  0.249927  0.206858  1
  O  O77  1  0.134137  0.749945  0.136302  1
  O  O78  1  0.634157  0.749922  0.263098  1
  O  O79  1  0.865768  0.749946  0.136293  1
  O  O80  1  0.365862  0.749992  0.263095  1
  O  O81  1  0.134182  0.249922  0.246797  1
  O  O82  1  0.634047  0.249945  0.119999  1
  O  O83  1  0.865813  0.249923  0.246790  1
  O  O84  1  0.365784  0.249945  0.119991  1
  O  O85  1  0.179054  0.546036  0.118625  1
  O  O86  1  0.679147  0.546063  0.245422  1
  O  O87  1  0.820814  0.546020  0.118624  1
  O  O88  1  0.320871  0.546027  0.245421  1
  O  O89  1  0.179133  0.045999  0.264467  1
  O  O90  1  0.679079  0.046049  0.137671  1
  O  O91  1  0.820892  0.046015  0.264465  1
  O  O92  1  0.320802  0.046084  0.137667  1
  O  O93  1  0.820891  0.453833  0.264465  1
  O  O94  1  0.320799  0.453803  0.137668  1
  O  O95  1  0.179131  0.453846  0.264467  1
  O  O96  1  0.679077  0.453840  0.137672  1
  O  O97  1  0.820817  0.953870  0.118624  1
  O  O98  1  0.320870  0.953819  0.245420  1
  O  O99  1  0.179057  0.953852  0.118625  1
  O  O100  1  0.679148  0.953782  0.245423  1
  O  O101  1  0.196065  0.498981  0.145590  1
  O  O102  1  0.696130  0.499072  0.272387  1
  O  O103  1  0.803798  0.499099  0.145592  1
  O  O104  1  0.303892  0.499052  0.272387  1
  O  O105  1  0.196150  0.000000  0.237499  1
  O  O106  1  0.696057  0.000000  0.110704  1
  O  O107  1  0.803883  0.998965  0.237501  1
  O  O108  1  0.303817  0.000000  0.110703  1
  O  O109  1  0.803882  0.500880  0.237501  1
  O  O110  1  0.303814  0.500803  0.110703  1
  O  O111  1  0.196148  0.500775  0.237499  1
  O  O112  1  0.696054  0.500811  0.110704  1
  O  O113  1  0.803801  0.000000  0.145592  1
  O  O114  1  0.303890  0.000000  0.272388  1
  O  O115  1  0.196068  -0.000000  0.145590  1
  O  O116  1  0.696131  0.000000  0.272388  1
  O  O117  1  0.262804  0.249941  0.153564  1
  O  O118  1  0.762791  0.249925  0.280339  1
  O  O119  1  0.737129  0.249944  0.153552  1
  O  O120  1  0.237217  0.249924  0.280342  1
  O  O121  1  0.262822  0.749923  0.229539  1
  O  O122  1  0.762722  0.749945  0.102750  1
  O  O123  1  0.737148  0.749924  0.229527  1
  O  O124  1  0.237148  0.749942  0.102750  1
  O  O125  1  -0.000000  0.749942  0.091998  1
  O  O126  1  0.499549  0.749924  0.218787  1
  O  O127  1  -0.000000  0.249927  0.291093  1
  O  O128  1  0.500404  0.249940  0.164303  1
  O  O129  1  0.500071  0.516532  0.489753  1
  O  O130  1  -0.000000  0.516499  0.362957  1
  O  O131  1  0.499872  0.016550  0.400491  1
  O  O132  1  -0.000000  0.016482  0.527287  1
  O  O133  1  0.499869  0.483337  0.400492  1
  O  O134  1  0.000000  0.483371  0.527288  1
  O  O135  1  0.500073  0.983315  0.489753  1
  O  O136  1  0.000000  0.983390  0.362957  1
  O  O137  1  0.430973  0.484611  0.513206  1
  O  O138  1  0.930897  0.484591  0.386414  1
  O  O139  1  0.569046  0.484554  0.513211  1
  O  O140  1  0.068968  0.484628  0.386417  1
  O  O141  1  0.430903  0.984584  0.377033  1
  O  O142  1  0.930980  0.984602  0.503828  1
  O  O143  1  0.568986  0.984740  0.377038  1
  O  O144  1  0.069050  0.984572  0.503830  1
  O  O145  1  0.568983  0.515147  0.377039  1
  O  O146  1  0.069049  0.515272  0.503830  1
  O  O147  1  0.430900  0.515309  0.377033  1
  O  O148  1  0.930979  0.515247  0.503828  1
  O  O149  1  0.569046  0.015292  0.513211  1
  O  O150  1  0.068971  0.015267  0.386416  1
  O  O151  1  0.430965  0.015117  0.513207  1
  O  O152  1  0.930900  0.015297  0.386414  1
  O  O153  1  0.499991  0.249917  0.502501  1
  O  O154  1  0.000000  0.249946  0.375708  1
  O  O155  1  0.499950  0.749944  0.387743  1
  O  O156  1  -0.000000  0.749924  0.514537  1
  O  O157  1  0.932496  0.499070  0.551133  1
  O  O158  1  0.432342  0.498276  0.424345  1
  O  O159  1  0.067509  0.498865  0.551130  1
  O  O160  1  0.567347  0.499750  0.424331  1
  O  O161  1  0.932439  0.998920  0.339115  1
  O  O162  1  0.432600  0.000000  0.465914  1
  O  O163  1  0.067452  0.000000  0.339111  1
  O  O164  1  0.567606  0.998272  0.465900  1
  O  O165  1  0.067448  0.500835  0.339112  1
  O  O166  1  0.567603  0.501575  0.465901  1
  O  O167  1  0.932436  0.500968  0.339115  1
  O  O168  1  0.432597  0.500126  0.465914  1
  O  O169  1  0.067511  0.000000  0.551130  1
  O  O170  1  0.567351  0.000000  0.424330  1
  O  O171  1  0.932498  -0.000000  0.551133  1
  O  O172  1  0.432345  0.001594  0.424345  1
  O  O173  1  0.802699  0.515383  0.544934  1
  O  O174  1  0.302625  0.515533  0.418141  1
  O  O175  1  0.197309  0.515385  0.544937  1
  O  O176  1  0.697208  0.515357  0.418142  1
  O  O177  1  0.802635  0.015387  0.345308  1
  O  O178  1  0.302741  0.015343  0.472103  1
  O  O179  1  0.197246  0.015411  0.345311  1
  O  O180  1  0.697324  0.015516  0.472103  1
  O  O181  1  0.197242  0.484471  0.345311  1
  O  O182  1  0.697323  0.484337  0.472103  1
  O  O183  1  0.802632  0.484495  0.345309  1
  O  O184  1  0.302739  0.484503  0.472104  1
  O  O185  1  0.197311  0.984464  0.544936  1
  O  O186  1  0.697211  0.984522  0.418141  1
  O  O187  1  0.802700  0.984473  0.544934  1
  O  O188  1  0.302628  0.984346  0.418141  1
  O  O189  1  0.844836  0.499856  0.318333  1
  O  O190  1  0.344817  0.500680  0.445145  1
  O  O191  1  0.155107  0.500014  0.318335  1
  O  O192  1  0.655126  0.499184  0.445100  1
  O  O193  1  0.844840  0.000000  0.318333  1
  O  O194  1  0.344819  0.000000  0.445144  1
  O  O195  1  0.155109  0.000000  0.318335  1
  O  O196  1  0.655130  -0.000000  0.445100  1
  O  O197  1  0.865446  0.749930  0.556666  1
  O  O198  1  0.365774  0.749935  0.429810  1
  O  O199  1  0.134450  0.749929  0.556645  1
  O  O200  1  0.634723  0.749939  0.429948  1
  O  O201  1  0.865475  0.249941  0.333599  1
  O  O202  1  0.365227  0.249927  0.460297  1
  O  O203  1  0.134479  0.249938  0.333579  1
  O  O204  1  0.634177  0.249927  0.460435  1
  O  O205  1  0.134137  0.749945  0.389879  1
  O  O206  1  0.634157  0.749922  0.516675  1
  O  O207  1  0.865768  0.749946  0.389870  1
  O  O208  1  0.365862  0.749992  0.516672  1
  O  O209  1  0.134182  0.249922  0.500374  1
  O  O210  1  0.634047  0.249945  0.373576  1
  O  O211  1  0.865813  0.249923  0.500367  1
  O  O212  1  0.365784  0.249945  0.373568  1
  O  O213  1  0.179054  0.546036  0.372202  1
  O  O214  1  0.679147  0.546063  0.498999  1
  O  O215  1  0.820814  0.546020  0.372201  1
  O  O216  1  0.320871  0.546027  0.498998  1
  O  O217  1  0.179133  0.045999  0.518044  1
  O  O218  1  0.679079  0.046049  0.391248  1
  O  O219  1  0.820892  0.046015  0.518042  1
  O  O220  1  0.320802  0.046084  0.391244  1
  O  O221  1  0.820891  0.453833  0.518042  1
  O  O222  1  0.320799  0.453803  0.391245  1
  O  O223  1  0.179131  0.453846  0.518044  1
  O  O224  1  0.679077  0.453840  0.391249  1
  O  O225  1  0.820817  0.953870  0.372200  1
  O  O226  1  0.320870  0.953819  0.498997  1
  O  O227  1  0.179057  0.953852  0.372202  1
  O  O228  1  0.679148  0.953782  0.499000  1
  O  O229  1  0.196065  0.498981  0.399167  1
  O  O230  1  0.696130  0.499072  0.525964  1
  O  O231  1  0.803798  0.499099  0.399169  1
  O  O232  1  0.303892  0.499052  0.525964  1
  O  O233  1  0.196150  -0.000000  0.491076  1
  O  O234  1  0.696057  0.000000  0.364281  1
  O  O235  1  0.803883  0.998965  0.491078  1
  O  O236  1  0.303817  0.000000  0.364279  1
  O  O237  1  0.803882  0.500880  0.491078  1
  O  O238  1  0.303814  0.500803  0.364279  1
  O  O239  1  0.196148  0.500775  0.491076  1
  O  O240  1  0.696054  0.500811  0.364281  1
  O  O241  1  0.803801  0.000000  0.399169  1
  O  O242  1  0.303890  0.000000  0.525965  1
  O  O243  1  0.196068  0.000000  0.399167  1
  O  O244  1  0.696131  0.000000  0.525965  1
  O  O245  1  0.262804  0.249941  0.407141  1
  O  O246  1  0.762791  0.249925  0.533916  1
  O  O247  1  0.737129  0.249944  0.407129  1
  O  O248  1  0.237217  0.249924  0.533919  1
  O  O249  1  0.262822  0.749923  0.483116  1
  O  O250  1  0.762722  0.749945  0.356327  1
  O  O251  1  0.737148  0.749924  0.483104  1
  O  O252  1  0.237148  0.749942  0.356327  1
  O  O253  1  0.000000  0.749942  0.345575  1
  O  O254  1  0.499549  0.749924  0.472364  1
  O  O255  1  -0.000000  0.249927  0.544670  1
  O  O256  1  0.500404  0.249940  0.417880  1
  O  O257  1  0.500071  0.516532  0.743330  1
  O  O258  1  -0.000000  0.516499  0.616534  1
  O  O259  1  0.499872  0.016550  0.654068  1
  O  O260  1  -0.000000  0.016482  0.780864  1
  O  O261  1  0.499869  0.483337  0.654068  1
  O  O262  1  -0.000000  0.483371  0.780865  1
  O  O263  1  0.500073  0.983315  0.743330  1
  O  O264  1  -0.000000  0.983390  0.616534  1
  O  O265  1  0.430973  0.484611  0.766783  1
  O  O266  1  0.930897  0.484591  0.639991  1
  O  O267  1  0.569046  0.484554  0.766788  1
  O  O268  1  0.068968  0.484628  0.639994  1
  O  O269  1  0.430903  0.984584  0.630610  1
  O  O270  1  0.930980  0.984602  0.757405  1
  O  O271  1  0.568986  0.984740  0.630615  1
  O  O272  1  0.069050  0.984572  0.757407  1
  O  O273  1  0.568983  0.515147  0.630616  1
  O  O274  1  0.069049  0.515272  0.757407  1
  O  O275  1  0.430900  0.515309  0.630610  1
  O  O276  1  0.930979  0.515247  0.757405  1
  O  O277  1  0.569046  0.015292  0.766788  1
  O  O278  1  0.068971  0.015267  0.639993  1
  O  O279  1  0.430965  0.015117  0.766784  1
  O  O280  1  0.930900  0.015297  0.639991  1
  O  O281  1  0.499991  0.249917  0.756078  1
  O  O282  1  -0.000000  0.249946  0.629285  1
  O  O283  1  0.499950  0.749944  0.641320  1
  O  O284  1  0.000000  0.749924  0.768114  1
  O  O285  1  0.932496  0.499070  0.804710  1
  O  O286  1  0.432342  0.498276  0.677922  1
  O  O287  1  0.067509  0.498865  0.804707  1
  O  O288  1  0.567347  0.499750  0.677907  1
  O  O289  1  0.932439  0.998920  0.592692  1
  O  O290  1  0.432600  0.000000  0.719491  1
  O  O291  1  0.067452  0.000000  0.592688  1
  O  O292  1  0.567606  0.998272  0.719477  1
  O  O293  1  0.067448  0.500835  0.592689  1
  O  O294  1  0.567603  0.501575  0.719478  1
  O  O295  1  0.932436  0.500968  0.592692  1
  O  O296  1  0.432597  0.500126  0.719491  1
  O  O297  1  0.067511  0.000000  0.804707  1
  O  O298  1  0.567351  0.000000  0.677907  1
  O  O299  1  0.932498  0.000000  0.804710  1
  O  O300  1  0.432345  0.001594  0.677922  1
  O  O301  1  0.802699  0.515383  0.798511  1
  O  O302  1  0.302625  0.515533  0.671718  1
  O  O303  1  0.197309  0.515385  0.798513  1
  O  O304  1  0.697208  0.515357  0.671719  1
  O  O305  1  0.802635  0.015387  0.598885  1
  O  O306  1  0.302741  0.015343  0.725680  1
  O  O307  1  0.197246  0.015411  0.598888  1
  O  O308  1  0.697324  0.015516  0.725680  1
  O  O309  1  0.197242  0.484471  0.598888  1
  O  O310  1  0.697323  0.484337  0.725680  1
  O  O311  1  0.802632  0.484495  0.598886  1
  O  O312  1  0.302739  0.484503  0.725681  1
  O  O313  1  0.197311  0.984464  0.798513  1
  O  O314  1  0.697211  0.984522  0.671718  1
  O  O315  1  0.802700  0.984473  0.798511  1
  O  O316  1  0.302628  0.984346  0.671718  1
  O  O317  1  0.844836  0.499856  0.571910  1
  O  O318  1  0.344817  0.500680  0.698722  1
  O  O319  1  0.155107  0.500014  0.571912  1
  O  O320  1  0.655126  0.499184  0.698677  1
  O  O321  1  0.844840  0.000000  0.571910  1
  O  O322  1  0.344819  0.000000  0.698721  1
  O  O323  1  0.155109  0.000000  0.571912  1
  O  O324  1  0.655130  0.000000  0.698677  1
  O  O325  1  0.865446  0.749930  0.810243  1
  O  O326  1  0.365774  0.749935  0.683387  1
  O  O327  1  0.134450  0.749929  0.810222  1
  O  O328  1  0.634723  0.749939  0.683524  1
  O  O329  1  0.865475  0.249941  0.587176  1
  O  O330  1  0.365227  0.249927  0.713874  1
  O  O331  1  0.134479  0.249938  0.587156  1
  O  O332  1  0.634177  0.249927  0.714012  1
  O  O333  1  0.134137  0.749945  0.643456  1
  O  O334  1  0.634157  0.749922  0.770252  1
  O  O335  1  0.865768  0.749946  0.643447  1
  O  O336  1  0.365862  0.749992  0.770249  1
  O  O337  1  0.134182  0.249922  0.753951  1
  O  O338  1  0.634047  0.249945  0.627153  1
  O  O339  1  0.865813  0.249923  0.753944  1
  O  O340  1  0.365784  0.249945  0.627145  1
  O  O341  1  0.179054  0.546036  0.625779  1
  O  O342  1  0.679147  0.546063  0.752576  1
  O  O343  1  0.820814  0.546020  0.625778  1
  O  O344  1  0.320871  0.546027  0.752574  1
  O  O345  1  0.179133  0.045999  0.771621  1
  O  O346  1  0.679079  0.046049  0.644825  1
  O  O347  1  0.820892  0.046015  0.771619  1
  O  O348  1  0.320802  0.046084  0.644821  1
  O  O349  1  0.820891  0.453833  0.771619  1
  O  O350  1  0.320799  0.453803  0.644822  1
  O  O351  1  0.179131  0.453846  0.771621  1
  O  O352  1  0.679077  0.453840  0.644826  1
  O  O353  1  0.820817  0.953870  0.625777  1
  O  O354  1  0.320870  0.953819  0.752573  1
  O  O355  1  0.179057  0.953852  0.625779  1
  O  O356  1  0.679148  0.953782  0.752577  1
  O  O357  1  0.196065  0.498981  0.652744  1
  O  O358  1  0.696130  0.499072  0.779541  1
  O  O359  1  0.803798  0.499099  0.652746  1
  O  O360  1  0.303892  0.499052  0.779541  1
  O  O361  1  0.196150  0.000000  0.744653  1
  O  O362  1  0.696057  0.000000  0.617858  1
  O  O363  1  0.803883  0.998965  0.744655  1
  O  O364  1  0.303817  0.000000  0.617856  1
  O  O365  1  0.803882  0.500880  0.744655  1
  O  O366  1  0.303814  0.500803  0.617856  1
  O  O367  1  0.196148  0.500775  0.744653  1
  O  O368  1  0.696054  0.500811  0.617858  1
  O  O369  1  0.803801  0.000000  0.652746  1
  O  O370  1  0.303890  0.000000  0.779542  1
  O  O371  1  0.196068  0.000000  0.652744  1
  O  O372  1  0.696131  0.000000  0.779542  1
  O  O373  1  0.262804  0.249941  0.660718  1
  O  O374  1  0.762791  0.249925  0.787493  1
  O  O375  1  0.737129  0.249944  0.660706  1
  O  O376  1  0.237217  0.249924  0.787496  1
  O  O377  1  0.262822  0.749923  0.736693  1
  O  O378  1  0.762722  0.749945  0.609904  1
  O  O379  1  0.737148  0.749924  0.736681  1
  O  O380  1  0.237148  0.749942  0.609904  1
  O  O381  1  0.000000  0.749942  0.599152  1
  O  O382  1  0.499549  0.749924  0.725941  1
  O  O383  1  -0.000000  0.249927  0.798246  1
  O  O384  1  0.500404  0.249940  0.671457  1
  O  O385  1  0.844836  0.499856  0.825487  1
  O  O386  1  0.155107  0.500014  0.825489  1
  O  O387  1  0.844840  0.000000  0.825486  1
  O  O388  1  0.155109  0.000000  0.825489  1
  Si  Si389  1  0.142890  0.568477  0.133967  1
  Si  Si390  1  0.642952  0.568471  0.260762  1
  Si  Si391  1  0.856983  0.568479  0.133965  1
  Si  Si392  1  0.357060  0.568490  0.260760  1
  Si  Si393  1  0.142965  0.068456  0.249125  1
  Si  Si394  1  0.642892  0.068502  0.122332  1
  Si  Si395  1  0.857058  0.068455  0.249124  1
  Si  Si396  1  0.356995  0.068493  0.122328  1
  Si  Si397  1  0.857058  0.431391  0.249123  1
  Si  Si398  1  0.356992  0.431395  0.122328  1
  Si  Si399  1  0.142964  0.431389  0.249126  1
  Si  Si400  1  0.642890  0.431388  0.122332  1
  Si  Si401  1  0.856986  0.931413  0.133965  1
  Si  Si402  1  0.357052  0.931388  0.260760  1
  Si  Si403  1  0.142892  0.931413  0.133967  1
  Si  Si404  1  0.642952  0.931373  0.260762  1
  Si  Si405  1  0.269133  0.431249  0.150913  1
  Si  Si406  1  0.769187  0.431237  0.277704  1
  Si  Si407  1  0.730752  0.431250  0.150914  1
  Si  Si408  1  0.230831  0.431239  0.277706  1
  Si  Si409  1  0.269197  0.931229  0.232177  1
  Si  Si410  1  0.769115  0.931258  0.105385  1
  Si  Si411  1  0.730816  0.931231  0.232178  1
  Si  Si412  1  0.230758  0.931255  0.105386  1
  Si  Si413  1  0.730815  0.568616  0.232178  1
  Si  Si414  1  0.230755  0.568630  0.105387  1
  Si  Si415  1  0.269198  0.568617  0.232178  1
  Si  Si416  1  0.769113  0.568631  0.105385  1
  Si  Si417  1  0.730754  0.068638  0.150914  1
  Si  Si418  1  0.230830  0.068611  0.277707  1
  Si  Si419  1  0.269136  0.068634  0.150913  1
  Si  Si420  1  0.769188  0.068612  0.277704  1
  Si  Si421  1  0.860408  0.567528  0.302669  1
  Si  Si422  1  0.360394  0.567559  0.175873  1
  Si  Si423  1  0.139561  0.567529  0.302664  1
  Si  Si424  1  0.639538  0.567520  0.175883  1
  Si  Si425  1  0.860380  0.067541  0.080426  1
  Si  Si426  1  0.360410  0.067508  0.207208  1
  Si  Si427  1  0.139533  0.067536  0.080422  1
  Si  Si428  1  0.639555  0.067551  0.207219  1
  Si  Si429  1  0.139530  0.432340  0.080422  1
  Si  Si430  1  0.639553  0.432304  0.207218  1
  Si  Si431  1  0.860377  0.432340  0.080427  1
  Si  Si432  1  0.360408  0.432345  0.207208  1
  Si  Si433  1  0.139562  0.932329  0.302664  1
  Si  Si434  1  0.639541  0.932357  0.175883  1
  Si  Si435  1  0.860410  0.932331  0.302669  1
  Si  Si436  1  0.360396  0.932313  0.175872  1
  Si  Si437  1  0.500010  0.431607  0.251378  1
  Si  Si438  1  -0.000000  0.431629  0.124584  1
  Si  Si439  1  0.499940  0.931640  0.131712  1
  Si  Si440  1  0.000000  0.931607  0.258507  1
  Si  Si441  1  0.499938  0.568249  0.131712  1
  Si  Si442  1  0.000000  0.568241  0.258507  1
  Si  Si443  1  0.500006  0.068225  0.251379  1
  Si  Si444  1  -0.000000  0.068263  0.124584  1
  Si  Si445  1  -0.000000  0.567002  0.092986  1
  Si  Si446  1  0.499974  0.566980  0.219780  1
  Si  Si447  1  0.000000  0.066988  0.290105  1
  Si  Si448  1  0.499974  0.066995  0.163311  1
  Si  Si449  1  -0.000000  0.432868  0.290105  1
  Si  Si450  1  0.499971  0.432885  0.163311  1
  Si  Si451  1  0.000000  0.932882  0.092986  1
  Si  Si452  1  0.499976  0.932869  0.219779  1
  Si  Si453  1  0.142890  0.568477  0.387544  1
  Si  Si454  1  0.642952  0.568471  0.514339  1
  Si  Si455  1  0.856983  0.568479  0.387542  1
  Si  Si456  1  0.357060  0.568490  0.514337  1
  Si  Si457  1  0.142965  0.068456  0.502702  1
  Si  Si458  1  0.642892  0.068502  0.375909  1
  Si  Si459  1  0.857058  0.068455  0.502701  1
  Si  Si460  1  0.356995  0.068493  0.375905  1
  Si  Si461  1  0.857058  0.431391  0.502700  1
  Si  Si462  1  0.356992  0.431395  0.375905  1
  Si  Si463  1  0.142964  0.431389  0.502703  1
  Si  Si464  1  0.642890  0.431388  0.375909  1
  Si  Si465  1  0.856986  0.931413  0.387542  1
  Si  Si466  1  0.357052  0.931388  0.514337  1
  Si  Si467  1  0.142892  0.931413  0.387544  1
  Si  Si468  1  0.642952  0.931373  0.514339  1
  Si  Si469  1  0.269133  0.431249  0.404490  1
  Si  Si470  1  0.769187  0.431237  0.531281  1
  Si  Si471  1  0.730752  0.431250  0.404491  1
  Si  Si472  1  0.230831  0.431239  0.531283  1
  Si  Si473  1  0.269197  0.931229  0.485753  1
  Si  Si474  1  0.769115  0.931258  0.358962  1
  Si  Si475  1  0.730816  0.931231  0.485755  1
  Si  Si476  1  0.230758  0.931255  0.358963  1
  Si  Si477  1  0.730815  0.568616  0.485755  1
  Si  Si478  1  0.230755  0.568630  0.358963  1
  Si  Si479  1  0.269198  0.568617  0.485754  1
  Si  Si480  1  0.769113  0.568631  0.358962  1
  Si  Si481  1  0.730754  0.068638  0.404491  1
  Si  Si482  1  0.230830  0.068611  0.531283  1
  Si  Si483  1  0.269136  0.068634  0.404490  1
  Si  Si484  1  0.769188  0.068612  0.531281  1
  Si  Si485  1  0.860408  0.567528  0.556246  1
  Si  Si486  1  0.360394  0.567559  0.429449  1
  Si  Si487  1  0.139561  0.567529  0.556241  1
  Si  Si488  1  0.639538  0.567520  0.429460  1
  Si  Si489  1  0.860380  0.067541  0.334003  1
  Si  Si490  1  0.360410  0.067508  0.460785  1
  Si  Si491  1  0.139533  0.067536  0.333999  1
  Si  Si492  1  0.639555  0.067551  0.460796  1
  Si  Si493  1  0.139530  0.432340  0.333999  1
  Si  Si494  1  0.639553  0.432304  0.460795  1
  Si  Si495  1  0.860377  0.432340  0.334004  1
  Si  Si496  1  0.360408  0.432345  0.460785  1
  Si  Si497  1  0.139562  0.932329  0.556241  1
  Si  Si498  1  0.639541  0.932357  0.429460  1
  Si  Si499  1  0.860410  0.932331  0.556246  1
  Si  Si500  1  0.360396  0.932313  0.429449  1
  Si  Si501  1  0.500010  0.431607  0.504955  1
  Si  Si502  1  0.000000  0.431629  0.378161  1
  Si  Si503  1  0.499940  0.931640  0.385289  1
  Si  Si504  1  0.000000  0.931607  0.512084  1
  Si  Si505  1  0.499938  0.568249  0.385289  1
  Si  Si506  1  -0.000000  0.568241  0.512084  1
  Si  Si507  1  0.500006  0.068225  0.504956  1
  Si  Si508  1  -0.000000  0.068263  0.378161  1
  Si  Si509  1  -0.000000  0.567002  0.346563  1
  Si  Si510  1  0.499974  0.566980  0.473357  1
  Si  Si511  1  -0.000000  0.066988  0.543682  1
  Si  Si512  1  0.499974  0.066995  0.416888  1
  Si  Si513  1  -0.000000  0.432868  0.543682  1
  Si  Si514  1  0.499971  0.432885  0.416888  1
  Si  Si515  1  -0.000000  0.932882  0.346563  1
  Si  Si516  1  0.499976  0.932869  0.473356  1
  Si  Si517  1  0.142890  0.568477  0.641121  1
  Si  Si518  1  0.642952  0.568471  0.767916  1
  Si  Si519  1  0.856983  0.568479  0.641119  1
  Si  Si520  1  0.357060  0.568490  0.767914  1
  Si  Si521  1  0.142965  0.068456  0.756279  1
  Si  Si522  1  0.642892  0.068502  0.629485  1
  Si  Si523  1  0.857058  0.068455  0.756277  1
  Si  Si524  1  0.356995  0.068493  0.629482  1
  Si  Si525  1  0.857058  0.431391  0.756277  1
  Si  Si526  1  0.356992  0.431395  0.629482  1
  Si  Si527  1  0.142964  0.431389  0.756280  1
  Si  Si528  1  0.642890  0.431388  0.629486  1
  Si  Si529  1  0.856986  0.931413  0.641119  1
  Si  Si530  1  0.357052  0.931388  0.767914  1
  Si  Si531  1  0.142892  0.931413  0.641121  1
  Si  Si532  1  0.642952  0.931373  0.767916  1
  Si  Si533  1  0.269133  0.431249  0.658067  1
  Si  Si534  1  0.769187  0.431237  0.784858  1
  Si  Si535  1  0.730752  0.431250  0.658068  1
  Si  Si536  1  0.230831  0.431239  0.784860  1
  Si  Si537  1  0.269197  0.931229  0.739330  1
  Si  Si538  1  0.769115  0.931258  0.612539  1
  Si  Si539  1  0.730816  0.931231  0.739332  1
  Si  Si540  1  0.230758  0.931255  0.612540  1
  Si  Si541  1  0.730815  0.568616  0.739332  1
  Si  Si542  1  0.230755  0.568630  0.612540  1
  Si  Si543  1  0.269198  0.568617  0.739331  1
  Si  Si544  1  0.769113  0.568631  0.612539  1
  Si  Si545  1  0.730754  0.068638  0.658068  1
  Si  Si546  1  0.230830  0.068611  0.784860  1
  Si  Si547  1  0.269136  0.068634  0.658067  1
  Si  Si548  1  0.769188  0.068612  0.784858  1
  Si  Si549  1  0.860408  0.567528  0.809823  1
  Si  Si550  1  0.360394  0.567559  0.683026  1
  Si  Si551  1  0.139561  0.567529  0.809818  1
  Si  Si552  1  0.639538  0.567520  0.683037  1
  Si  Si553  1  0.860380  0.067541  0.587580  1
  Si  Si554  1  0.360410  0.067508  0.714362  1
  Si  Si555  1  0.139533  0.067536  0.587576  1
  Si  Si556  1  0.639555  0.067551  0.714373  1
  Si  Si557  1  0.139530  0.432340  0.587576  1
  Si  Si558  1  0.639553  0.432304  0.714372  1
  Si  Si559  1  0.860377  0.432340  0.587581  1
  Si  Si560  1  0.360408  0.432345  0.714361  1
  Si  Si561  1  0.139562  0.932329  0.809818  1
  Si  Si562  1  0.639541  0.932357  0.683037  1
  Si  Si563  1  0.860410  0.932331  0.809823  1
  Si  Si564  1  0.360396  0.932313  0.683026  1
  Si  Si565  1  0.500010  0.431607  0.758532  1
  Si  Si566  1  -0.000000  0.431629  0.631738  1
  Si  Si567  1  0.499940  0.931640  0.638866  1
  Si  Si568  1  0.000000  0.931607  0.765661  1
  Si  Si569  1  0.499938  0.568249  0.638866  1
  Si  Si570  1  0.000000  0.568241  0.765661  1
  Si  Si571  1  0.500006  0.068225  0.758533  1
  Si  Si572  1  -0.000000  0.068263  0.631738  1
  Si  Si573  1  -0.000000  0.567002  0.600140  1
  Si  Si574  1  0.499974  0.566980  0.726934  1
  Si  Si575  1  0.000000  0.066988  0.797259  1
  Si  Si576  1  0.499974  0.066995  0.670465  1
  Si  Si577  1  0.000000  0.432868  0.797259  1
  Si  Si578  1  0.499971  0.432885  0.670465  1
  Si  Si579  1  -0.000000  0.932882  0.600140  1
  Si  Si580  1  0.499976  0.932869  0.726933  1
  H  H581  1  0.844836  0.499856  0.054878  1
  H  H582  1  0.155107  0.500014  0.054880  1
  H  H583  1  0.844840  0.000000  0.054878  1
  H  H584  1  0.155109  0.000000  0.054880  1
  H  H585  1  0.844836  0.499856  0.835365  1
  H  H586  1  0.155107  0.500014  0.835367  1
  H  H587  1  0.844840  0.000000  0.835364  1
  H  H588  1  0.155109  0.000000  0.835367  1
