# generated using pymatgen
data_Si16H2O33
_symmetry_space_group_name_H-M   'P 1'
_cell_length_a   18.96410246
_cell_length_b   8.50858376
_cell_length_c   44.90406711
_cell_angle_alpha   90.00000000
_cell_angle_beta   90.00000000
_cell_angle_gamma   90.00000000
_symmetry_Int_Tables_number   1
_chemical_formula_structural   Si16H2O33
_chemical_formula_sum   'Si64 H8 O132'
_cell_volume   7245.61493328
_cell_formula_units_Z   4
loop_
 _symmetry_equiv_pos_site_id
 _symmetry_equiv_pos_as_xyz
  1  'x, y, z'
loop_
 _atom_site_type_symbol
 _atom_site_label
 _atom_site_symmetry_multiplicity
 _atom_site_fract_x
 _atom_site_fract_y
 _atom_site_fract_z
 _atom_site_occupancy
  O  O1  1  0.500071  0.516532  0.479209  1
  O  O2  1  0.000000  0.516499  0.221936  1
  O  O3  1  0.499872  0.016550  0.298094  1
  O  O4  1  0.000000  0.016482  0.555367  1
  O  O5  1  0.499869  0.483337  0.298094  1
  O  O6  1  0.000000  0.483371  0.555367  1
  O  O7  1  0.500073  0.983315  0.479209  1
  O  O8  1  0.000000  0.983390  0.221936  1
  O  O9  1  0.430973  0.484611  0.526796  1
  O  O10  1  0.930897  0.484591  0.269531  1
  O  O11  1  0.569046  0.484554  0.526806  1
  O  O12  1  0.068968  0.484628  0.269536  1
  O  O13  1  0.430903  0.984584  0.250495  1
  O  O14  1  0.930980  0.984602  0.507767  1
  O  O15  1  0.568986  0.984740  0.250507  1
  O  O16  1  0.069050  0.984572  0.507772  1
  O  O17  1  0.568983  0.515147  0.250508  1
  O  O18  1  0.069049  0.515272  0.507772  1
  O  O19  1  0.430900  0.515309  0.250496  1
  O  O20  1  0.930979  0.515247  0.507767  1
  O  O21  1  0.569046  0.015292  0.526806  1
  O  O22  1  0.068971  0.015267  0.269536  1
  O  O23  1  0.430965  0.015117  0.526797  1
  O  O24  1  0.930900  0.015297  0.269531  1
  O  O25  1  0.499991  0.249917  0.505075  1
  O  O26  1  0.000000  0.249946  0.247807  1
  O  O27  1  0.499950  0.749944  0.272227  1
  O  O28  1  0.000000  0.749924  0.529497  1
  O  O29  1  0.932496  0.499070  0.603750  1
  O  O30  1  0.432342  0.498276  0.346493  1
  O  O31  1  0.067509  0.498865  0.603745  1
  O  O32  1  0.567347  0.499750  0.346464  1
  O  O33  1  0.932439  0.998920  0.173559  1
  O  O34  1  0.432600  0.000000  0.430838  1
  O  O35  1  0.067452  0.000000  0.173552  1
  O  O36  1  0.567606  0.998272  0.430811  1
  O  O37  1  0.067448  0.500835  0.173553  1
  O  O38  1  0.567603  0.501575  0.430811  1
  O  O39  1  0.932436  0.500968  0.173559  1
  O  O40  1  0.432597  0.500126  0.430838  1
  O  O41  1  0.067511  0.000000  0.603745  1
  O  O42  1  0.567351  0.000000  0.346464  1
  O  O43  1  0.932498  0.000000  0.603750  1
  O  O44  1  0.432345  0.001594  0.346493  1
  O  O45  1  0.802699  0.515383  0.591172  1
  O  O46  1  0.302625  0.515533  0.333906  1
  O  O47  1  0.197309  0.515385  0.591178  1
  O  O48  1  0.697208  0.515357  0.333907  1
  O  O49  1  0.802635  0.015387  0.186125  1
  O  O50  1  0.302741  0.015343  0.443397  1
  O  O51  1  0.197246  0.015411  0.186131  1
  O  O52  1  0.697324  0.015516  0.443397  1
  O  O53  1  0.197242  0.484471  0.186131  1
  O  O54  1  0.697323  0.484337  0.443396  1
  O  O55  1  0.802632  0.484495  0.186126  1
  O  O56  1  0.302739  0.484503  0.443397  1
  O  O57  1  0.197311  0.984464  0.591177  1
  O  O58  1  0.697211  0.984522  0.333906  1
  O  O59  1  0.802700  0.984473  0.591173  1
  O  O60  1  0.302628  0.984346  0.333906  1
  O  O61  1  0.844836  0.499856  0.131392  1
  O  O62  1  0.344817  0.500680  0.388697  1
  O  O63  1  0.155107  0.500014  0.131396  1
  O  O64  1  0.655126  0.499184  0.388606  1
  O  O65  1  0.844840  0.000000  0.131391  1
  O  O66  1  0.344819  0.000000  0.388696  1
  O  O67  1  0.155109  0.000000  0.131396  1
  O  O68  1  0.655130  0.000000  0.388606  1
  O  O69  1  0.865446  0.749930  0.614977  1
  O  O70  1  0.365774  0.749935  0.357581  1
  O  O71  1  0.134450  0.749929  0.614934  1
  O  O72  1  0.634723  0.749939  0.357861  1
  O  O73  1  0.865475  0.249941  0.162368  1
  O  O74  1  0.365227  0.249927  0.419442  1
  O  O75  1  0.134479  0.249938  0.162327  1
  O  O76  1  0.634177  0.249927  0.419722  1
  O  O77  1  0.134137  0.749945  0.276560  1
  O  O78  1  0.634157  0.749922  0.533834  1
  O  O79  1  0.865768  0.749946  0.276543  1
  O  O80  1  0.365862  0.749992  0.533828  1
  O  O81  1  0.134182  0.249922  0.500759  1
  O  O82  1  0.634047  0.249945  0.243483  1
  O  O83  1  0.865813  0.249923  0.500744  1
  O  O84  1  0.365784  0.249945  0.243466  1
  O  O85  1  0.179054  0.546036  0.240694  1
  O  O86  1  0.679147  0.546063  0.497970  1
  O  O87  1  0.820814  0.546020  0.240692  1
  O  O88  1  0.320871  0.546027  0.497966  1
  O  O89  1  0.179133  0.045999  0.536612  1
  O  O90  1  0.679079  0.046049  0.279340  1
  O  O91  1  0.820892  0.046015  0.536609  1
  O  O92  1  0.320802  0.046084  0.279331  1
  O  O93  1  0.820891  0.453833  0.536608  1
  O  O94  1  0.320799  0.453803  0.279332  1
  O  O95  1  0.179131  0.453846  0.536612  1
  O  O96  1  0.679077  0.453840  0.279340  1
  O  O97  1  0.820817  0.953870  0.240691  1
  O  O98  1  0.320870  0.953819  0.497964  1
  O  O99  1  0.179057  0.953852  0.240694  1
  O  O100  1  0.679148  0.953782  0.497970  1
  O  O101  1  0.196065  0.498981  0.295406  1
  O  O102  1  0.696130  0.499072  0.552683  1
  O  O103  1  0.803798  0.499099  0.295411  1
  O  O104  1  0.303892  0.499052  0.552683  1
  O  O105  1  0.196150  0.000000  0.481893  1
  O  O106  1  0.696057  0.000000  0.224621  1
  O  O107  1  0.803883  0.998965  0.481897  1
  O  O108  1  0.303817  0.000000  0.224619  1
  O  O109  1  0.803882  0.500880  0.481897  1
  O  O110  1  0.303814  0.500803  0.224619  1
  O  O111  1  0.196148  0.500775  0.481893  1
  O  O112  1  0.696054  0.500811  0.224622  1
  O  O113  1  0.803801  0.000000  0.295411  1
  O  O114  1  0.303890  0.000000  0.552683  1
  O  O115  1  0.196068  -0.000000  0.295406  1
  O  O116  1  0.696131  0.000000  0.552683  1
  O  O117  1  0.262804  0.249941  0.311585  1
  O  O118  1  0.762791  0.249925  0.568817  1
  O  O119  1  0.737129  0.249944  0.311561  1
  O  O120  1  0.237217  0.249924  0.568824  1
  O  O121  1  0.262822  0.749923  0.465742  1
  O  O122  1  0.762722  0.749945  0.208483  1
  O  O123  1  0.737148  0.749924  0.465718  1
  O  O124  1  0.237148  0.749942  0.208483  1
  O  O125  1  -0.000000  0.749942  0.186667  1
  O  O126  1  0.499549  0.749924  0.443926  1
  O  O127  1  0.000000  0.249927  0.590636  1
  O  O128  1  0.500404  0.249940  0.333377  1
  O  O129  1  0.844836  0.499856  0.645907  1
  O  O130  1  0.155107  0.500014  0.645912  1
  O  O131  1  0.844840  0.000000  0.645907  1
  O  O132  1  0.155109  0.000000  0.645911  1
  Si  Si133  1  0.142890  0.568477  0.271824  1
  Si  Si134  1  0.642952  0.568471  0.529094  1
  Si  Si135  1  0.856983  0.568479  0.271820  1
  Si  Si136  1  0.357060  0.568490  0.529090  1
  Si  Si137  1  0.142965  0.068456  0.505483  1
  Si  Si138  1  0.642892  0.068502  0.248215  1
  Si  Si139  1  0.857058  0.068455  0.505479  1
  Si  Si140  1  0.356995  0.068493  0.248207  1
  Si  Si141  1  0.857058  0.431391  0.505479  1
  Si  Si142  1  0.356992  0.431395  0.248207  1
  Si  Si143  1  0.142964  0.431389  0.505484  1
  Si  Si144  1  0.642890  0.431388  0.248215  1
  Si  Si145  1  0.856986  0.931413  0.271819  1
  Si  Si146  1  0.357052  0.931388  0.529090  1
  Si  Si147  1  0.142892  0.931413  0.271824  1
  Si  Si148  1  0.642952  0.931373  0.529094  1
  Si  Si149  1  0.269133  0.431249  0.306207  1
  Si  Si150  1  0.769187  0.431237  0.563469  1
  Si  Si151  1  0.730752  0.431250  0.306210  1
  Si  Si152  1  0.230831  0.431239  0.563475  1
  Si  Si153  1  0.269197  0.931229  0.471093  1
  Si  Si154  1  0.769115  0.931258  0.213829  1
  Si  Si155  1  0.730816  0.931231  0.471096  1
  Si  Si156  1  0.230758  0.931255  0.213832  1
  Si  Si157  1  0.730815  0.568616  0.471096  1
  Si  Si158  1  0.230755  0.568630  0.213833  1
  Si  Si159  1  0.269198  0.568617  0.471095  1
  Si  Si160  1  0.769113  0.568631  0.213830  1
  Si  Si161  1  0.730754  0.068638  0.306209  1
  Si  Si162  1  0.230830  0.068611  0.563475  1
  Si  Si163  1  0.269136  0.068634  0.306207  1
  Si  Si164  1  0.769188  0.068612  0.563469  1
  Si  Si165  1  0.860408  0.567528  0.614125  1
  Si  Si166  1  0.360394  0.567559  0.356851  1
  Si  Si167  1  0.139561  0.567529  0.614115  1
  Si  Si168  1  0.639538  0.567520  0.356873  1
  Si  Si169  1  0.860380  0.067541  0.163188  1
  Si  Si170  1  0.360410  0.067508  0.420431  1
  Si  Si171  1  0.139533  0.067536  0.163178  1
  Si  Si172  1  0.639555  0.067551  0.420453  1
  Si  Si173  1  0.139530  0.432340  0.163179  1
  Si  Si174  1  0.639553  0.432304  0.420453  1
  Si  Si175  1  0.860377  0.432340  0.163189  1
  Si  Si176  1  0.360408  0.432345  0.420431  1
  Si  Si177  1  0.139562  0.932329  0.614115  1
  Si  Si178  1  0.639541  0.932357  0.356872  1
  Si  Si179  1  0.860410  0.932331  0.614125  1
  Si  Si180  1  0.360396  0.932313  0.356850  1
  Si  Si181  1  0.500010  0.431607  0.510054  1
  Si  Si182  1  -0.000000  0.431629  0.252785  1
  Si  Si183  1  0.499940  0.931640  0.267247  1
  Si  Si184  1  0.000000  0.931607  0.524518  1
  Si  Si185  1  0.499938  0.568249  0.267247  1
  Si  Si186  1  0.000000  0.568241  0.524518  1
  Si  Si187  1  0.500006  0.068225  0.510056  1
  Si  Si188  1  0.000000  0.068263  0.252785  1
  Si  Si189  1  0.000000  0.567002  0.188671  1
  Si  Si190  1  0.499974  0.566980  0.445940  1
  Si  Si191  1  0.000000  0.066988  0.588632  1
  Si  Si192  1  0.499974  0.066995  0.331363  1
  Si  Si193  1  0.000000  0.432868  0.588632  1
  Si  Si194  1  0.499971  0.432885  0.331363  1
  Si  Si195  1  -0.000000  0.932882  0.188671  1
  Si  Si196  1  0.499976  0.932869  0.445939  1
  H  H197  1  0.844836  0.499856  0.111349  1
  H  H198  1  0.155107  0.500014  0.111354  1
  H  H199  1  0.844840  0.000000  0.111348  1
  H  H200  1  0.155109  0.000000  0.111353  1
  H  H201  1  0.844836  0.499856  0.665950  1
  H  H202  1  0.155107  0.500014  0.665955  1
  H  H203  1  0.844840  0.000000  0.665949  1
  H  H204  1  0.155109  0.000000  0.665954  1
