# generated using pymatgen
data_Si12H2O25
_symmetry_space_group_name_H-M   'P 1'
_cell_length_a   7.44973890
_cell_length_b   9.93999687
_cell_length_c   41.95323011
_cell_angle_alpha   108.91700000
_cell_angle_beta   90.00000000
_cell_angle_gamma   90.00000000
_symmetry_Int_Tables_number   1
_chemical_formula_structural   Si12H2O25
_chemical_formula_sum   'Si24 H4 O50'
_cell_volume   2938.85991907
_cell_formula_units_Z   2
loop_
 _symmetry_equiv_pos_site_id
 _symmetry_equiv_pos_as_xyz
  1  'x, y, z'
loop_
 _atom_site_type_symbol
 _atom_site_label
 _atom_site_symmetry_multiplicity
 _atom_site_fract_x
 _atom_site_fract_y
 _atom_site_fract_z
 _atom_site_occupancy
  O  O1  1  -0.000000  0.303826  0.147437  1
  O  O2  1  0.170954  0.770201  0.216327  1
  O  O3  1  0.670062  0.771964  0.437329  1
  O  O4  1  0.170222  0.229782  0.531597  1
  O  O5  1  0.670825  0.229129  0.310839  1
  O  O6  1  0.828472  0.230830  0.531767  1
  O  O7  1  0.329207  0.228999  0.310767  1
  O  O8  1  0.829239  0.770284  0.216382  1
  O  O9  1  0.328545  0.770831  0.437162  1
  O  O10  1  0.254383  0.001790  0.262435  1
  O  O11  1  0.745975  0.998556  0.485837  1
  O  O12  1  0.254019  0.998374  0.485422  1
  O  O13  1  0.745615  0.001680  0.262563  1
  O  O14  1  0.246571  0.767185  0.274872  1
  O  O15  1  0.754141  0.758346  0.494542  1
  O  O16  1  0.246562  0.233167  0.473095  1
  O  O17  1  0.754330  0.241113  0.253486  1
  O  O18  1  0.752903  0.232623  0.473137  1
  O  O19  1  0.245323  0.241454  0.253448  1
  O  O20  1  0.753414  0.766853  0.274881  1
  O  O21  1  0.245314  0.758971  0.494536  1
  O  O22  1  0.500083  0.816230  0.240036  1
  O  O23  1  -0.000000  0.823008  0.460600  1
  O  O24  1  0.499456  0.183770  0.508017  1
  O  O25  1  0.000000  0.177013  0.287436  1
  O  O26  1  0.500144  0.347504  0.228474  1
  O  O27  1  -0.000000  0.355925  0.450253  1
  O  O28  1  0.499500  0.652124  0.519482  1
  O  O29  1  0.000000  0.643652  0.297707  1
  O  O30  1  0.255478  0.503716  0.262739  1
  O  O31  1  0.744500  0.496066  0.485280  1
  O  O32  1  0.254087  0.496648  0.485277  1
  O  O33  1  0.745019  0.503367  0.262755  1
  O  O34  1  0.170062  0.340124  0.205054  1
  O  O35  1  0.669665  0.340217  0.426236  1
  O  O36  1  0.169472  0.660651  0.542962  1
  O  O37  1  0.670495  0.659431  0.321801  1
  O  O38  1  0.829426  0.659902  0.542973  1
  O  O39  1  0.329898  0.659766  0.321787  1
  O  O40  1  0.830009  0.340098  0.205008  1
  O  O41  1  0.329145  0.341052  0.426219  1
  O  O42  1  0.000000  0.696724  0.158414  1
  O  O43  1  0.500034  0.696032  0.379264  1
  O  O44  1  0.000000  0.303826  0.589616  1
  O  O45  1  0.499663  0.304373  0.368776  1
  O  O46  1  -0.000000  0.539807  0.194976  1
  O  O47  1  0.500540  0.540763  0.416262  1
  O  O48  1  0.000000  0.460731  0.553071  1
  O  O49  1  0.499790  0.459641  0.331799  1
  O  O50  1  0.000000  0.696724  0.600593  1
  Si  Si51  1  0.293586  0.839484  0.247834  1
  Si  Si52  1  0.793077  0.838692  0.468885  1
  Si  Si53  1  0.293047  0.160672  0.500117  1
  Si  Si54  1  0.793537  0.161508  0.279280  1
  Si  Si55  1  0.706022  0.160793  0.500275  1
  Si  Si56  1  0.206445  0.161589  0.279209  1
  Si  Si57  1  0.706543  0.839383  0.247884  1
  Si  Si58  1  0.205951  0.838551  0.468736  1
  Si  Si59  1  0.293683  0.354816  0.236408  1
  Si  Si60  1  0.793018  0.352984  0.457544  1
  Si  Si61  1  0.293049  0.645494  0.511576  1
  Si  Si62  1  0.793668  0.646481  0.290456  1
  Si  Si63  1  0.705971  0.644970  0.511584  1
  Si  Si64  1  0.206644  0.646770  0.290452  1
  Si  Si65  1  0.706622  0.354535  0.236404  1
  Si  Si66  1  0.205975  0.353521  0.457531  1
  Si  Si67  1  0.000000  0.697889  0.196029  1
  Si  Si68  1  0.499809  0.698445  0.416957  1
  Si  Si69  1  0.000000  0.302633  0.552001  1
  Si  Si70  1  0.499874  0.301949  0.331084  1
  Si  Si71  1  -0.000000  0.375132  0.186849  1
  Si  Si72  1  0.499699  0.376069  0.408172  1
  Si  Si73  1  -0.000000  0.625400  0.561181  1
  Si  Si74  1  0.500063  0.624311  0.339868  1
  H  H75  1  -0.000000  0.303826  0.125985  1
  H  H76  1  -0.000000  0.696724  0.136962  1
  H  H77  1  0.000000  0.303826  0.611069  1
  H  H78  1  0.000000  0.696724  0.622045  1
