# generated using pymatgen
data_Si8H2O17
_symmetry_space_group_name_H-M   'P 1'
_cell_length_a   7.13645989
_cell_length_b   8.38729430
_cell_length_c   36.07595464
_cell_angle_alpha   90.00000000
_cell_angle_beta   90.00000000
_cell_angle_gamma   90.00000000
_symmetry_Int_Tables_number   1
_chemical_formula_structural   Si8H2O17
_chemical_formula_sum   'Si16 H4 O34'
_cell_volume   2159.34752636
_cell_formula_units_Z   2
loop_
 _symmetry_equiv_pos_site_id
 _symmetry_equiv_pos_as_xyz
  1  'x, y, z'
loop_
 _atom_site_type_symbol
 _atom_site_label
 _atom_site_symmetry_multiplicity
 _atom_site_fract_x
 _atom_site_fract_y
 _atom_site_fract_z
 _atom_site_occupancy
  O  O1  1  0.499763  0.227718  0.163552  1
  O  O2  1  0.499845  0.772012  0.163544  1
  O  O3  1  0.322286  0.249960  0.297588  1
  O  O4  1  0.677322  0.749974  0.297581  1
  O  O5  1  0.677234  0.249989  0.227371  1
  O  O6  1  0.322376  0.749901  0.227362  1
  O  O7  1  0.322287  0.249756  0.227370  1
  O  O8  1  0.677323  0.749770  0.227363  1
  O  O9  1  0.677233  0.249829  0.297589  1
  O  O10  1  0.322375  0.749741  0.297580  1
  O  O11  1  0.499611  0.000000  0.314504  1
  O  O12  1  0.762657  0.499886  0.262511  1
  O  O13  1  0.499998  0.000000  0.210447  1
  O  O14  1  0.236951  0.499843  0.262440  1
  O  O15  1  0.499763  0.227718  0.361407  1
  O  O16  1  -0.000000  0.727760  0.262472  1
  O  O17  1  0.499845  0.772012  0.361400  1
  O  O18  1  -0.000000  0.271970  0.262479  1
  O  O19  1  0.322286  0.249960  0.495444  1
  O  O20  1  0.677322  0.749974  0.495437  1
  O  O21  1  0.677234  0.249989  0.425227  1
  O  O22  1  0.322376  0.749901  0.425218  1
  O  O23  1  0.322287  0.249756  0.425226  1
  O  O24  1  0.677323  0.749770  0.425219  1
  O  O25  1  0.677233  0.249829  0.495445  1
  O  O26  1  0.322375  0.749741  0.495436  1
  O  O27  1  0.499611  0.000000  0.512360  1
  O  O28  1  0.762657  0.499886  0.460367  1
  O  O29  1  0.499998  -0.000000  0.408303  1
  O  O30  1  0.236951  0.499843  0.460296  1
  O  O31  1  0.499763  0.227718  0.559263  1
  O  O32  1  -0.000000  0.727760  0.460328  1
  O  O33  1  0.499845  0.772012  0.559256  1
  O  O34  1  0.000000  0.271970  0.460335  1
  Si  Si35  1  0.499723  0.185001  0.318821  1
  Si  Si36  1  0.784542  0.685004  0.262483  1
  Si  Si37  1  0.499822  0.184985  0.206137  1
  Si  Si38  1  0.215145  0.684967  0.262463  1
  Si  Si39  1  0.499886  0.814729  0.206131  1
  Si  Si40  1  0.215066  0.314726  0.262469  1
  Si  Si41  1  0.499787  0.814745  0.318814  1
  Si  Si42  1  0.784465  0.314763  0.262488  1
  Si  Si43  1  0.499723  0.185001  0.516677  1
  Si  Si44  1  0.784542  0.685004  0.460338  1
  Si  Si45  1  0.499822  0.184985  0.403993  1
  Si  Si46  1  0.215145  0.684967  0.460319  1
  Si  Si47  1  0.499886  0.814729  0.403986  1
  Si  Si48  1  0.215066  0.314726  0.460324  1
  Si  Si49  1  0.499787  0.814745  0.516670  1
  Si  Si50  1  0.784465  0.314763  0.460344  1
  H  H51  1  0.499763  0.227718  0.138604  1
  H  H52  1  0.499845  0.772012  0.138596  1
  H  H53  1  0.499763  0.227718  0.584211  1
  H  H54  1  0.499845  0.772012  0.584203  1
