# generated using pymatgen
data_Si17H6O37
_symmetry_space_group_name_H-M   'P 1'
_cell_length_a   13.68856018
_cell_length_b   13.69754544
_cell_length_c   33.08838556
_cell_angle_alpha   90.00000000
_cell_angle_beta   90.00000000
_cell_angle_gamma   120.00000000
_symmetry_Int_Tables_number   1
_chemical_formula_structural   Si17H6O37
_chemical_formula_sum   'Si34 H12 O74'
_cell_volume   5372.87490062
_cell_formula_units_Z   2
loop_
 _symmetry_equiv_pos_site_id
 _symmetry_equiv_pos_as_xyz
  1  'x, y, z'
loop_
 _atom_site_type_symbol
 _atom_site_label
 _atom_site_symmetry_multiplicity
 _atom_site_fract_x
 _atom_site_fract_y
 _atom_site_fract_z
 _atom_site_occupancy
  O  O1  1  0.094984  0.390485  0.246053  1
  O  O2  1  0.281748  0.392808  0.247405  1
  O  O3  1  0.166341  0.351903  0.312137  1
  O  O4  1  0.199918  0.198616  0.341760  1
  O  O5  1  0.296212  0.905566  0.250450  1
  O  O6  1  0.120580  0.714952  0.243974  1
  O  O7  1  0.154786  0.827264  0.309020  1
  O  O8  1  0.275900  0.740019  0.291440  1
  O  O9  1  0.264353  0.549203  0.280464  1
  O  O10  1  0.003724  0.638743  0.178621  1
  O  O11  1  -0.000000  0.505635  0.232224  1
  O  O12  1  0.167627  0.996041  0.346311  1
  O  O13  1  0.329269  0.648743  0.346999  1
  O  O14  1  0.387951  0.284499  0.253129  1
  O  O15  1  0.418681  0.117391  0.245312  1
  O  O16  1  0.345277  0.152024  0.312429  1
  O  O17  1  0.549305  0.282421  0.289255  1
  O  O18  1  0.368606  0.358041  0.184112  1
  O  O19  1  0.493774  0.493738  0.237931  1
  O  O20  1  0.642150  0.005231  0.180926  1
  O  O21  1  0.608618  0.702053  0.254828  1
  O  O22  1  0.608508  0.886280  0.245487  1
  O  O23  1  0.374122  0.996357  0.180374  1
  O  O24  1  0.657909  0.838334  0.314118  1
  O  O25  1  0.456175  0.729285  0.286263  1
  O  O26  1  0.616941  0.629007  0.183611  1
  O  O27  1  0.503442  0.992486  0.233912  1
  O  O28  1  0.711508  0.100515  0.249770  1
  O  O29  1  0.881688  0.295694  0.244686  1
  O  O30  1  0.849148  0.174474  0.308199  1
  O  O31  1  0.723357  0.259114  0.292556  1
  O  O32  1  0.747080  0.456211  0.284709  1
  O  O33  1  0.996228  0.373791  0.178310  1
  O  O34  1  0.905902  0.619396  0.247142  1
  O  O35  1  0.706678  0.588577  0.244976  1
  O  O36  1  0.823011  0.657928  0.310169  1
  O  O37  1  0.814774  0.816073  0.346987  1
  O  O38  1  0.100651  0.394316  0.446606  1
  O  O39  1  0.285312  0.393986  0.455172  1
  O  O40  1  0.184438  0.340875  0.387263  1
  O  O41  1  0.009531  0.188412  0.351280  1
  O  O42  1  0.322643  0.155572  0.387676  1
  O  O43  1  0.304451  0.891084  0.447766  1
  O  O44  1  0.110957  0.719143  0.447354  1
  O  O45  1  0.179807  0.842077  0.384426  1
  O  O46  1  0.265948  0.722333  0.405210  1
  O  O47  1  0.278961  0.543923  0.413304  1
  O  O48  1  0.003724  0.638743  0.513978  1
  O  O49  1  0.004865  0.509510  0.460020  1
  O  O50  1  0.386167  0.280467  0.450390  1
  O  O51  1  0.401088  0.104713  0.449278  1
  O  O52  1  0.531348  0.271653  0.405842  1
  O  O53  1  0.368606  0.358041  0.519469  1
  O  O54  1  0.496408  0.489137  0.465400  1
  O  O55  1  0.512104  0.006917  0.462915  1
  O  O56  1  0.642150  0.005231  0.516283  1
  O  O57  1  0.586672  0.696399  0.449697  1
  O  O58  1  0.602218  0.887643  0.451772  1
  O  O59  1  0.374122  0.996357  0.515732  1
  O  O60  1  0.459119  0.736091  0.406250  1
  O  O61  1  0.616941  0.629007  0.518968  1
  O  O62  1  0.720084  0.102141  0.446872  1
  O  O63  1  0.887225  0.300472  0.447697  1
  O  O64  1  0.837779  0.183774  0.383148  1
  O  O65  1  0.711635  0.259251  0.409742  1
  O  O66  1  0.722162  0.451326  0.416634  1
  O  O67  1  0.996228  0.373791  0.513668  1
  O  O68  1  0.676768  0.350478  0.350038  1
  O  O69  1  0.817726  0.005018  0.351058  1
  O  O70  1  0.896972  0.612880  0.447191  1
  O  O71  1  0.707320  0.603440  0.454324  1
  O  O72  1  0.806366  0.649848  0.385860  1
  O  O73  1  0.990381  0.797019  0.353373  1
  O  O74  1  0.669404  0.830995  0.389350  1
  Si  Si75  1  0.201209  0.419921  0.271870  1
  Si  Si76  1  0.139765  0.268746  0.348077  1
  Si  Si77  1  0.257036  0.125175  0.346858  1
  Si  Si78  1  0.121139  0.865673  0.348374  1
  Si  Si79  1  0.211857  0.797991  0.274075  1
  Si  Si80  1  0.007856  0.621855  0.225190  1
  Si  Si81  1  0.331577  0.667391  0.300691  1
  Si  Si82  1  0.396075  0.002830  0.227088  1
  Si  Si83  1  0.381269  0.380590  0.230645  1
  Si  Si84  1  0.424591  0.207953  0.275363  1
  Si  Si85  1  0.607755  0.605011  0.230140  1
  Si  Si86  1  0.583877  0.789050  0.275646  1
  Si  Si87  1  0.618061  0.995849  0.227378  1
  Si  Si88  1  0.792420  0.207522  0.274163  1
  Si  Si89  1  0.878913  0.136179  0.348490  1
  Si  Si90  1  0.992687  0.389262  0.225014  1
  Si  Si91  1  0.674090  0.336668  0.303468  1
  Si  Si92  1  0.796351  0.582003  0.272120  1
  Si  Si93  1  0.211198  0.417092  0.425262  1
  Si  Si94  1  0.215523  0.794931  0.420783  1
  Si  Si95  1  0.003707  0.621640  0.467265  1
  Si  Si96  1  0.333311  0.662755  0.393617  1
  Si  Si97  1  0.659925  0.332841  0.396357  1
  Si  Si98  1  0.409354  0.202289  0.422912  1
  Si  Si99  1  0.382133  0.378103  0.472804  1
  Si  Si100  1  0.621907  0.001046  0.469624  1
  Si  Si101  1  0.580429  0.787599  0.423811  1
  Si  Si102  1  0.603766  0.606764  0.472333  1
  Si  Si103  1  0.395699  -0.000000  0.469152  1
  Si  Si104  1  0.789729  0.211096  0.421334  1
  Si  Si105  1  0.998126  0.393588  0.467089  1
  Si  Si106  1  0.859436  0.731286  0.349160  1
  Si  Si107  1  0.783897  0.580458  0.425591  1
  Si  Si108  1  0.741832  0.874169  0.350225  1
  H  H109  1  0.003724  0.638743  0.151421  1
  H  H110  1  0.368606  0.358041  0.156912  1
  H  H111  1  0.642150  0.005231  0.153726  1
  H  H112  1  0.374122  0.996357  0.153175  1
  H  H113  1  0.616941  0.629007  0.156411  1
  H  H114  1  0.996228  0.373791  0.151110  1
  H  H115  1  0.003724  0.638743  0.541178  1
  H  H116  1  0.368606  0.358041  0.546669  1
  H  H117  1  0.642150  0.005231  0.543483  1
  H  H118  1  0.374122  0.996357  0.542932  1
  H  H119  1  0.616941  0.629007  0.546168  1
  H  H120  1  0.996228  0.373791  0.540867  1
