# generated using pymatgen
data_Si12H2O25
_symmetry_space_group_name_H-M   'P 1'
_cell_length_a   7.13645989
_cell_length_b   8.38729430
_cell_length_c   43.21379277
_cell_angle_alpha   90.00000000
_cell_angle_beta   90.00000000
_cell_angle_gamma   90.00000000
_symmetry_Int_Tables_number   1
_chemical_formula_structural   Si12H2O25
_chemical_formula_sum   'Si24 H4 O50'
_cell_volume   2586.58703437
_cell_formula_units_Z   2
loop_
 _symmetry_equiv_pos_site_id
 _symmetry_equiv_pos_as_xyz
  1  'x, y, z'
loop_
 _atom_site_type_symbol
 _atom_site_label
 _atom_site_symmetry_multiplicity
 _atom_site_fract_x
 _atom_site_fract_y
 _atom_site_fract_z
 _atom_site_occupancy
  O  O1  1  0.499763  0.227718  0.136537  1
  O  O2  1  0.499845  0.772012  0.136530  1
  O  O3  1  0.322286  0.249960  0.248434  1
  O  O4  1  0.677322  0.749974  0.248428  1
  O  O5  1  0.677234  0.249989  0.189815  1
  O  O6  1  0.322376  0.749901  0.189808  1
  O  O7  1  0.322287  0.249756  0.189814  1
  O  O8  1  0.677323  0.749770  0.189809  1
  O  O9  1  0.677233  0.249829  0.248435  1
  O  O10  1  0.322375  0.749741  0.248427  1
  O  O11  1  0.499611  0.000000  0.262556  1
  O  O12  1  0.762657  0.499886  0.219151  1
  O  O13  1  0.499998  0.000000  0.175687  1
  O  O14  1  0.236951  0.499843  0.219092  1
  O  O15  1  0.499763  0.227718  0.301712  1
  O  O16  1  -0.000000  0.727760  0.219118  1
  O  O17  1  0.499845  0.772012  0.301705  1
  O  O18  1  -0.000000  0.271970  0.219124  1
  O  O19  1  0.322286  0.249960  0.413609  1
  O  O20  1  0.677322  0.749974  0.413603  1
  O  O21  1  0.677234  0.249989  0.354990  1
  O  O22  1  0.322376  0.749901  0.354983  1
  O  O23  1  0.322287  0.249756  0.354989  1
  O  O24  1  0.677323  0.749770  0.354984  1
  O  O25  1  0.677233  0.249829  0.413610  1
  O  O26  1  0.322375  0.749741  0.413602  1
  O  O27  1  0.499611  0.000000  0.427731  1
  O  O28  1  0.762657  0.499886  0.384326  1
  O  O29  1  0.499998  -0.000000  0.340862  1
  O  O30  1  0.236951  0.499843  0.384267  1
  O  O31  1  0.499763  0.227718  0.466887  1
  O  O32  1  0.000000  0.727760  0.384293  1
  O  O33  1  0.499845  0.772012  0.466880  1
  O  O34  1  -0.000000  0.271970  0.384299  1
  O  O35  1  0.322286  0.249960  0.578784  1
  O  O36  1  0.677322  0.749974  0.578778  1
  O  O37  1  0.677234  0.249989  0.520165  1
  O  O38  1  0.322376  0.749901  0.520158  1
  O  O39  1  0.322287  0.249756  0.520164  1
  O  O40  1  0.677323  0.749770  0.520159  1
  O  O41  1  0.677233  0.249829  0.578785  1
  O  O42  1  0.322375  0.749741  0.578777  1
  O  O43  1  0.499611  0.000000  0.592906  1
  O  O44  1  0.762657  0.499886  0.549501  1
  O  O45  1  0.499998  0.000000  0.506037  1
  O  O46  1  0.236951  0.499843  0.549442  1
  O  O47  1  0.499763  0.227718  0.632062  1
  O  O48  1  0.000000  0.727760  0.549468  1
  O  O49  1  0.499845  0.772012  0.632055  1
  O  O50  1  -0.000000  0.271970  0.549474  1
  Si  Si51  1  0.499723  0.185001  0.266159  1
  Si  Si52  1  0.784542  0.685004  0.219127  1
  Si  Si53  1  0.499822  0.184985  0.172089  1
  Si  Si54  1  0.215145  0.684967  0.219111  1
  Si  Si55  1  0.499886  0.814729  0.172083  1
  Si  Si56  1  0.215066  0.314726  0.219115  1
  Si  Si57  1  0.499787  0.814745  0.266154  1
  Si  Si58  1  0.784465  0.314763  0.219132  1
  Si  Si59  1  0.499723  0.185001  0.431334  1
  Si  Si60  1  0.784542  0.685004  0.384302  1
  Si  Si61  1  0.499822  0.184985  0.337264  1
  Si  Si62  1  0.215145  0.684967  0.384286  1
  Si  Si63  1  0.499886  0.814729  0.337258  1
  Si  Si64  1  0.215066  0.314726  0.384290  1
  Si  Si65  1  0.499787  0.814745  0.431329  1
  Si  Si66  1  0.784465  0.314763  0.384307  1
  Si  Si67  1  0.499723  0.185001  0.596509  1
  Si  Si68  1  0.784542  0.685004  0.549477  1
  Si  Si69  1  0.499822  0.184985  0.502439  1
  Si  Si70  1  0.215145  0.684967  0.549461  1
  Si  Si71  1  0.499886  0.814729  0.502433  1
  Si  Si72  1  0.215066  0.314726  0.549465  1
  Si  Si73  1  0.499787  0.814745  0.596504  1
  Si  Si74  1  0.784465  0.314763  0.549482  1
  H  H75  1  0.499763  0.227718  0.115710  1
  H  H76  1  0.499845  0.772012  0.115704  1
  H  H77  1  0.499763  0.227718  0.652889  1
  H  H78  1  0.499845  0.772012  0.652882  1
