# generated using pymatgen
data_Si36H2O73
_symmetry_space_group_name_H-M   'P 1'
_cell_length_a   7.44973890
_cell_length_b   9.93999687
_cell_length_c   79.05489809
_cell_angle_alpha   108.91700000
_cell_angle_beta   90.00000000
_cell_angle_gamma   90.00000000
_symmetry_Int_Tables_number   1
_chemical_formula_structural   Si36H2O73
_chemical_formula_sum   'Si72 H4 O146'
_cell_volume   5537.86373062
_cell_formula_units_Z   2
loop_
 _symmetry_equiv_pos_site_id
 _symmetry_equiv_pos_as_xyz
  1  'x, y, z'
loop_
 _atom_site_type_symbol
 _atom_site_label
 _atom_site_symmetry_multiplicity
 _atom_site_fract_x
 _atom_site_fract_y
 _atom_site_fract_z
 _atom_site_occupancy
  O  O1  1  0.000000  0.303826  0.078243  1
  O  O2  1  0.170954  0.770201  0.114802  1
  O  O3  1  0.670062  0.771964  0.232084  1
  O  O4  1  0.170222  0.229782  0.282110  1
  O  O5  1  0.670825  0.229129  0.164958  1
  O  O6  1  0.828472  0.230830  0.282201  1
  O  O7  1  0.329207  0.228999  0.164919  1
  O  O8  1  0.829239  0.770284  0.114831  1
  O  O9  1  0.328545  0.770831  0.231995  1
  O  O10  1  0.254383  0.001790  0.139270  1
  O  O11  1  0.745975  0.998556  0.257826  1
  O  O12  1  0.254019  0.998374  0.257606  1
  O  O13  1  0.745615  0.001680  0.139338  1
  O  O14  1  0.246571  0.767185  0.145870  1
  O  O15  1  0.754141  0.758346  0.262446  1
  O  O16  1  0.246562  0.233167  0.251064  1
  O  O17  1  0.754330  0.241113  0.134521  1
  O  O18  1  0.752903  0.232623  0.251087  1
  O  O19  1  0.245323  0.241454  0.134501  1
  O  O20  1  0.753414  0.766853  0.145875  1
  O  O21  1  0.245314  0.758971  0.262443  1
  O  O22  1  0.500083  0.816230  0.127383  1
  O  O23  1  0.000000  0.823008  0.244433  1
  O  O24  1  0.499456  0.183770  0.269597  1
  O  O25  1  -0.000000  0.177013  0.152538  1
  O  O26  1  0.500144  0.347504  0.121248  1
  O  O27  1  0.000000  0.355925  0.238943  1
  O  O28  1  0.499500  0.652124  0.275681  1
  O  O29  1  0.000000  0.643652  0.157989  1
  O  O30  1  0.255478  0.503716  0.139432  1
  O  O31  1  0.744500  0.496066  0.257531  1
  O  O32  1  0.254087  0.496648  0.257529  1
  O  O33  1  0.745019  0.503367  0.139440  1
  O  O34  1  0.170062  0.340124  0.108819  1
  O  O35  1  0.669665  0.340217  0.226197  1
  O  O36  1  0.169472  0.660651  0.288142  1
  O  O37  1  0.670495  0.659431  0.170775  1
  O  O38  1  0.829426  0.659902  0.288148  1
  O  O39  1  0.329898  0.659766  0.170768  1
  O  O40  1  0.830009  0.340098  0.108794  1
  O  O41  1  0.329145  0.341052  0.226188  1
  O  O42  1  -0.000000  0.696724  0.084068  1
  O  O43  1  0.500034  0.696032  0.201270  1
  O  O44  1  0.000000  0.303826  0.312900  1
  O  O45  1  0.499663  0.304373  0.195704  1
  O  O46  1  -0.000000  0.539807  0.103471  1
  O  O47  1  0.500540  0.540763  0.220904  1
  O  O48  1  0.000000  0.460731  0.293506  1
  O  O49  1  0.499790  0.459641  0.176080  1
  O  O50  1  0.170954  0.770201  0.349459  1
  O  O51  1  0.670062  0.771964  0.466742  1
  O  O52  1  0.170222  0.229782  0.516768  1
  O  O53  1  0.670825  0.229129  0.399615  1
  O  O54  1  0.828472  0.230830  0.516858  1
  O  O55  1  0.329207  0.228999  0.399577  1
  O  O56  1  0.829239  0.770284  0.349488  1
  O  O57  1  0.328545  0.770831  0.466653  1
  O  O58  1  0.254383  0.001790  0.373928  1
  O  O59  1  0.745975  0.998556  0.492484  1
  O  O60  1  0.254019  0.998374  0.492264  1
  O  O61  1  0.745615  0.001680  0.373996  1
  O  O62  1  0.246571  0.767185  0.380528  1
  O  O63  1  0.754141  0.758346  0.497103  1
  O  O64  1  0.246562  0.233167  0.485722  1
  O  O65  1  0.754330  0.241113  0.369179  1
  O  O66  1  0.752903  0.232623  0.485744  1
  O  O67  1  0.245323  0.241454  0.369159  1
  O  O68  1  0.753414  0.766853  0.380533  1
  O  O69  1  0.245314  0.758971  0.497100  1
  O  O70  1  0.500083  0.816230  0.362041  1
  O  O71  1  0.000000  0.823008  0.479091  1
  O  O72  1  0.499456  0.183770  0.504255  1
  O  O73  1  0.000000  0.177013  0.387196  1
  O  O74  1  0.500144  0.347504  0.355905  1
  O  O75  1  -0.000000  0.355925  0.473600  1
  O  O76  1  0.499500  0.652124  0.510339  1
  O  O77  1  -0.000000  0.643652  0.392646  1
  O  O78  1  0.255478  0.503716  0.374089  1
  O  O79  1  0.744500  0.496066  0.492188  1
  O  O80  1  0.254087  0.496648  0.492187  1
  O  O81  1  0.745019  0.503367  0.374097  1
  O  O82  1  0.170062  0.340124  0.343476  1
  O  O83  1  0.669665  0.340217  0.460855  1
  O  O84  1  0.169472  0.660651  0.522799  1
  O  O85  1  0.670495  0.659431  0.405432  1
  O  O86  1  0.829426  0.659902  0.522805  1
  O  O87  1  0.329898  0.659766  0.405425  1
  O  O88  1  0.830009  0.340098  0.343452  1
  O  O89  1  0.329145  0.341052  0.460845  1
  O  O90  1  0.000000  0.696724  0.318726  1
  O  O91  1  0.500034  0.696032  0.435927  1
  O  O92  1  0.000000  0.303826  0.547558  1
  O  O93  1  0.499663  0.304373  0.430362  1
  O  O94  1  0.000000  0.539807  0.338129  1
  O  O95  1  0.500540  0.540763  0.455562  1
  O  O96  1  0.000000  0.460731  0.528164  1
  O  O97  1  0.499790  0.459641  0.410738  1
  O  O98  1  0.170954  0.770201  0.584117  1
  O  O99  1  0.670062  0.771964  0.701399  1
  O  O100  1  0.170222  0.229782  0.751425  1
  O  O101  1  0.670825  0.229129  0.634273  1
  O  O102  1  0.828472  0.230830  0.751516  1
  O  O103  1  0.329207  0.228999  0.634235  1
  O  O104  1  0.829239  0.770284  0.584146  1
  O  O105  1  0.328545  0.770831  0.701311  1
  O  O106  1  0.254383  0.001790  0.608586  1
  O  O107  1  0.745975  0.998556  0.727142  1
  O  O108  1  0.254019  0.998374  0.726921  1
  O  O109  1  0.745615  0.001680  0.608653  1
  O  O110  1  0.246571  0.767185  0.615185  1
  O  O111  1  0.754141  0.758346  0.731761  1
  O  O112  1  0.246562  0.233167  0.720380  1
  O  O113  1  0.754330  0.241113  0.603836  1
  O  O114  1  0.752903  0.232623  0.720402  1
  O  O115  1  0.245323  0.241454  0.603816  1
  O  O116  1  0.753414  0.766853  0.615190  1
  O  O117  1  0.245314  0.758971  0.731758  1
  O  O118  1  0.500083  0.816230  0.596699  1
  O  O119  1  0.000000  0.823008  0.713749  1
  O  O120  1  0.499456  0.183770  0.738912  1
  O  O121  1  0.000000  0.177013  0.621853  1
  O  O122  1  0.500144  0.347504  0.590563  1
  O  O123  1  -0.000000  0.355925  0.708258  1
  O  O124  1  0.499500  0.652124  0.744997  1
  O  O125  1  0.000000  0.643652  0.627304  1
  O  O126  1  0.255478  0.503716  0.608747  1
  O  O127  1  0.744500  0.496066  0.726846  1
  O  O128  1  0.254087  0.496648  0.726844  1
  O  O129  1  0.745019  0.503367  0.608755  1
  O  O130  1  0.170062  0.340124  0.578134  1
  O  O131  1  0.669665  0.340217  0.695512  1
  O  O132  1  0.169472  0.660651  0.757457  1
  O  O133  1  0.670495  0.659431  0.640090  1
  O  O134  1  0.829426  0.659902  0.757463  1
  O  O135  1  0.329898  0.659766  0.640083  1
  O  O136  1  0.830009  0.340098  0.578110  1
  O  O137  1  0.329145  0.341052  0.695503  1
  O  O138  1  0.000000  0.696724  0.553383  1
  O  O139  1  0.500034  0.696032  0.670585  1
  O  O140  1  0.000000  0.303826  0.782216  1
  O  O141  1  0.499663  0.304373  0.665019  1
  O  O142  1  -0.000000  0.539807  0.572786  1
  O  O143  1  0.500540  0.540763  0.690219  1
  O  O144  1  0.000000  0.460731  0.762821  1
  O  O145  1  0.499790  0.459641  0.645396  1
  O  O146  1  0.000000  0.696724  0.788041  1
  Si  Si147  1  0.293586  0.839484  0.131522  1
  Si  Si148  1  0.793077  0.838692  0.248830  1
  Si  Si149  1  0.293047  0.160672  0.265405  1
  Si  Si150  1  0.793537  0.161508  0.148210  1
  Si  Si151  1  0.706022  0.160793  0.265488  1
  Si  Si152  1  0.206445  0.161589  0.148172  1
  Si  Si153  1  0.706543  0.839383  0.131548  1
  Si  Si154  1  0.205951  0.838551  0.248751  1
  Si  Si155  1  0.293683  0.354816  0.125458  1
  Si  Si156  1  0.793018  0.352984  0.242811  1
  Si  Si157  1  0.293049  0.645494  0.271485  1
  Si  Si158  1  0.793668  0.646481  0.154141  1
  Si  Si159  1  0.705971  0.644970  0.271490  1
  Si  Si160  1  0.206644  0.646770  0.154138  1
  Si  Si161  1  0.706622  0.354535  0.125456  1
  Si  Si162  1  0.205975  0.353521  0.242805  1
  Si  Si163  1  0.000000  0.697889  0.104030  1
  Si  Si164  1  0.499809  0.698445  0.221273  1
  Si  Si165  1  0.000000  0.302633  0.292938  1
  Si  Si166  1  0.499874  0.301949  0.175701  1
  Si  Si167  1  -0.000000  0.375132  0.099158  1
  Si  Si168  1  0.499699  0.376069  0.216610  1
  Si  Si169  1  0.000000  0.625400  0.297810  1
  Si  Si170  1  0.500063  0.624311  0.180363  1
  Si  Si171  1  0.293586  0.839484  0.366179  1
  Si  Si172  1  0.793077  0.838692  0.483488  1
  Si  Si173  1  0.293047  0.160672  0.500062  1
  Si  Si174  1  0.793537  0.161508  0.382867  1
  Si  Si175  1  0.706022  0.160793  0.500146  1
  Si  Si176  1  0.206445  0.161589  0.382830  1
  Si  Si177  1  0.706543  0.839383  0.366206  1
  Si  Si178  1  0.205951  0.838551  0.483409  1
  Si  Si179  1  0.293683  0.354816  0.360116  1
  Si  Si180  1  0.793018  0.352984  0.477469  1
  Si  Si181  1  0.293049  0.645494  0.506143  1
  Si  Si182  1  0.793668  0.646481  0.388798  1
  Si  Si183  1  0.705971  0.644970  0.506147  1
  Si  Si184  1  0.206644  0.646770  0.388796  1
  Si  Si185  1  0.706622  0.354535  0.360113  1
  Si  Si186  1  0.205975  0.353521  0.477462  1
  Si  Si187  1  0.000000  0.697889  0.338687  1
  Si  Si188  1  0.499809  0.698445  0.455930  1
  Si  Si189  1  -0.000000  0.302633  0.527596  1
  Si  Si190  1  0.499874  0.301949  0.410359  1
  Si  Si191  1  0.000000  0.375132  0.333816  1
  Si  Si192  1  0.499699  0.376069  0.451268  1
  Si  Si193  1  0.000000  0.625400  0.532468  1
  Si  Si194  1  0.500063  0.624311  0.415021  1
  Si  Si195  1  0.293586  0.839484  0.600837  1
  Si  Si196  1  0.793077  0.838692  0.718145  1
  Si  Si197  1  0.293047  0.160672  0.734720  1
  Si  Si198  1  0.793537  0.161508  0.617525  1
  Si  Si199  1  0.706022  0.160793  0.734803  1
  Si  Si200  1  0.206445  0.161589  0.617487  1
  Si  Si201  1  0.706543  0.839383  0.600863  1
  Si  Si202  1  0.205951  0.838551  0.718066  1
  Si  Si203  1  0.293683  0.354816  0.594773  1
  Si  Si204  1  0.793018  0.352984  0.712127  1
  Si  Si205  1  0.293049  0.645494  0.740801  1
  Si  Si206  1  0.793668  0.646481  0.623456  1
  Si  Si207  1  0.705971  0.644970  0.740805  1
  Si  Si208  1  0.206644  0.646770  0.623454  1
  Si  Si209  1  0.706622  0.354535  0.594771  1
  Si  Si210  1  0.205975  0.353521  0.712120  1
  Si  Si211  1  0.000000  0.697889  0.573345  1
  Si  Si212  1  0.499809  0.698445  0.690588  1
  Si  Si213  1  0.000000  0.302633  0.762254  1
  Si  Si214  1  0.499874  0.301949  0.645016  1
  Si  Si215  1  0.000000  0.375132  0.568473  1
  Si  Si216  1  0.499699  0.376069  0.685926  1
  Si  Si217  1  0.000000  0.625400  0.767125  1
  Si  Si218  1  0.500063  0.624311  0.649678  1
  H  H219  1  -0.000000  0.303826  0.066858  1
  H  H220  1  -0.000000  0.696724  0.072683  1
  H  H221  1  -0.000000  0.303826  0.793600  1
  H  H222  1  0.000000  0.696724  0.799425  1
