# generated using pymatgen
data_Si4H2O9
_symmetry_space_group_name_H-M   'P 1'
_cell_length_a   7.13645989
_cell_length_b   8.38729430
_cell_length_c   28.93811651
_cell_angle_alpha   90.00000000
_cell_angle_beta   90.00000000
_cell_angle_gamma   90.00000000
_symmetry_Int_Tables_number   1
_chemical_formula_structural   Si4H2O9
_chemical_formula_sum   'Si8 H4 O18'
_cell_volume   1732.10801835
_cell_formula_units_Z   2
loop_
 _symmetry_equiv_pos_site_id
 _symmetry_equiv_pos_as_xyz
  1  'x, y, z'
loop_
 _atom_site_type_symbol
 _atom_site_label
 _atom_site_symmetry_multiplicity
 _atom_site_fract_x
 _atom_site_fract_y
 _atom_site_fract_z
 _atom_site_occupancy
  O  O1  1  0.499763  0.227718  0.203893  1
  O  O2  1  0.499845  0.772012  0.203883  1
  O  O3  1  0.322286  0.249960  0.370991  1
  O  O4  1  0.677322  0.749974  0.370982  1
  O  O5  1  0.677234  0.249989  0.283454  1
  O  O6  1  0.322376  0.749901  0.283443  1
  O  O7  1  0.322287  0.249756  0.283453  1
  O  O8  1  0.677323  0.749770  0.283444  1
  O  O9  1  0.677233  0.249829  0.370992  1
  O  O10  1  0.322375  0.749741  0.370981  1
  O  O11  1  0.499611  0.000000  0.392079  1
  O  O12  1  0.762657  0.499886  0.327261  1
  O  O13  1  0.499998  0.000000  0.262356  1
  O  O14  1  0.236951  0.499843  0.327174  1
  O  O15  1  0.499763  0.227718  0.450552  1
  O  O16  1  -0.000000  0.727760  0.327213  1
  O  O17  1  0.499845  0.772012  0.450542  1
  O  O18  1  -0.000000  0.271970  0.327222  1
  Si  Si19  1  0.499723  0.185001  0.397461  1
  Si  Si20  1  0.784542  0.685004  0.327226  1
  Si  Si21  1  0.499822  0.184985  0.256983  1
  Si  Si22  1  0.215145  0.684967  0.327202  1
  Si  Si23  1  0.499886  0.814729  0.256974  1
  Si  Si24  1  0.215066  0.314726  0.327209  1
  Si  Si25  1  0.499787  0.814745  0.397452  1
  Si  Si26  1  0.784465  0.314763  0.327233  1
  H  H27  1  0.499763  0.227718  0.172792  1
  H  H28  1  0.499845  0.772012  0.172782  1
  H  H29  1  0.499763  0.227718  0.481653  1
  H  H30  1  0.499845  0.772012  0.481643  1
