# generated using pymatgen
data_Si32H2O65
_symmetry_space_group_name_H-M   'P 1'
_cell_length_a   18.96410246
_cell_length_b   8.50858376
_cell_length_c   68.00790318
_cell_angle_alpha   90.00000000
_cell_angle_beta   90.00000000
_cell_angle_gamma   90.00000000
_symmetry_Int_Tables_number   1
_chemical_formula_structural   Si32H2O65
_chemical_formula_sum   'Si128 H8 O260'
_cell_volume   10973.5957249
_cell_formula_units_Z   4
loop_
 _symmetry_equiv_pos_site_id
 _symmetry_equiv_pos_as_xyz
  1  'x, y, z'
loop_
 _atom_site_type_symbol
 _atom_site_label
 _atom_site_symmetry_multiplicity
 _atom_site_fract_x
 _atom_site_fract_y
 _atom_site_fract_z
 _atom_site_occupancy
  O  O1  1  0.500071  0.516532  0.316411  1
  O  O2  1  0.000000  0.516499  0.146539  1
  O  O3  1  0.499872  0.016550  0.196824  1
  O  O4  1  0.000000  0.016482  0.366696  1
  O  O5  1  0.499869  0.483337  0.196825  1
  O  O6  1  0.000000  0.483371  0.366696  1
  O  O7  1  0.500073  0.983315  0.316411  1
  O  O8  1  0.000000  0.983390  0.146539  1
  O  O9  1  0.430973  0.484611  0.347831  1
  O  O10  1  0.930897  0.484591  0.177965  1
  O  O11  1  0.569046  0.484554  0.347838  1
  O  O12  1  0.068968  0.484628  0.177968  1
  O  O13  1  0.430903  0.984584  0.165396  1
  O  O14  1  0.930980  0.984602  0.335267  1
  O  O15  1  0.568986  0.984740  0.165404  1
  O  O16  1  0.069050  0.984572  0.335270  1
  O  O17  1  0.568983  0.515147  0.165405  1
  O  O18  1  0.069049  0.515272  0.335270  1
  O  O19  1  0.430900  0.515309  0.165397  1
  O  O20  1  0.930979  0.515247  0.335267  1
  O  O21  1  0.569046  0.015292  0.347838  1
  O  O22  1  0.068971  0.015267  0.177968  1
  O  O23  1  0.430965  0.015117  0.347832  1
  O  O24  1  0.930900  0.015297  0.177965  1
  O  O25  1  0.499991  0.249917  0.333490  1
  O  O26  1  0.000000  0.249946  0.163621  1
  O  O27  1  0.499950  0.749944  0.179745  1
  O  O28  1  0.000000  0.749924  0.349614  1
  O  O29  1  0.932496  0.499070  0.398643  1
  O  O30  1  0.432342  0.498276  0.228782  1
  O  O31  1  0.067509  0.498865  0.398639  1
  O  O32  1  0.567347  0.499750  0.228762  1
  O  O33  1  0.932439  0.998920  0.114597  1
  O  O34  1  0.432600  0.000000  0.284472  1
  O  O35  1  0.067452  0.000000  0.114593  1
  O  O36  1  0.567606  0.998272  0.284455  1
  O  O37  1  0.067448  0.500835  0.114593  1
  O  O38  1  0.567603  0.501575  0.284455  1
  O  O39  1  0.932436  0.500968  0.114597  1
  O  O40  1  0.432597  0.500126  0.284472  1
  O  O41  1  0.067511  0.000000  0.398639  1
  O  O42  1  0.567351  0.000000  0.228762  1
  O  O43  1  0.932498  0.000000  0.398642  1
  O  O44  1  0.432345  0.001594  0.228782  1
  O  O45  1  0.802699  0.515383  0.390337  1
  O  O46  1  0.302625  0.515533  0.220471  1
  O  O47  1  0.197309  0.515385  0.390341  1
  O  O48  1  0.697208  0.515357  0.220471  1
  O  O49  1  0.802635  0.015387  0.122894  1
  O  O50  1  0.302741  0.015343  0.292765  1
  O  O51  1  0.197246  0.015411  0.122898  1
  O  O52  1  0.697324  0.015516  0.292765  1
  O  O53  1  0.197242  0.484471  0.122898  1
  O  O54  1  0.697323  0.484337  0.292765  1
  O  O55  1  0.802632  0.484495  0.122895  1
  O  O56  1  0.302739  0.484503  0.292765  1
  O  O57  1  0.197311  0.984464  0.390341  1
  O  O58  1  0.697211  0.984522  0.220471  1
  O  O59  1  0.802700  0.984473  0.390338  1
  O  O60  1  0.302628  0.984346  0.220470  1
  O  O61  1  0.844836  0.499856  0.086755  1
  O  O62  1  0.344817  0.500680  0.256648  1
  O  O63  1  0.155107  0.500014  0.086758  1
  O  O64  1  0.655126  0.499184  0.256588  1
  O  O65  1  0.844840  0.000000  0.086755  1
  O  O66  1  0.344819  0.000000  0.256647  1
  O  O67  1  0.155109  0.000000  0.086758  1
  O  O68  1  0.655130  0.000000  0.256588  1
  O  O69  1  0.865446  0.749930  0.406055  1
  O  O70  1  0.365774  0.749935  0.236103  1
  O  O71  1  0.134450  0.749929  0.406027  1
  O  O72  1  0.634723  0.749939  0.236288  1
  O  O73  1  0.865475  0.249941  0.107208  1
  O  O74  1  0.365227  0.249927  0.276948  1
  O  O75  1  0.134479  0.249938  0.107181  1
  O  O76  1  0.634177  0.249927  0.277133  1
  O  O77  1  0.134137  0.749945  0.182606  1
  O  O78  1  0.634157  0.749922  0.352478  1
  O  O79  1  0.865768  0.749946  0.182595  1
  O  O80  1  0.365862  0.749992  0.352474  1
  O  O81  1  0.134182  0.249922  0.330640  1
  O  O82  1  0.634047  0.249945  0.160766  1
  O  O83  1  0.865813  0.249923  0.330630  1
  O  O84  1  0.365784  0.249945  0.160755  1
  O  O85  1  0.179054  0.546036  0.158925  1
  O  O86  1  0.679147  0.546063  0.328798  1
  O  O87  1  0.820814  0.546020  0.158923  1
  O  O88  1  0.320871  0.546027  0.328796  1
  O  O89  1  0.179133  0.045999  0.354312  1
  O  O90  1  0.679079  0.046049  0.184442  1
  O  O91  1  0.820892  0.046015  0.354310  1
  O  O92  1  0.320802  0.046084  0.184436  1
  O  O93  1  0.820891  0.453833  0.354310  1
  O  O94  1  0.320799  0.453803  0.184436  1
  O  O95  1  0.179131  0.453846  0.354313  1
  O  O96  1  0.679077  0.453840  0.184442  1
  O  O97  1  0.820817  0.953870  0.158923  1
  O  O98  1  0.320870  0.953819  0.328794  1
  O  O99  1  0.179057  0.953852  0.158925  1
  O  O100  1  0.679148  0.953782  0.328798  1
  O  O101  1  0.196065  0.498981  0.195050  1
  O  O102  1  0.696130  0.499072  0.364924  1
  O  O103  1  0.803798  0.499099  0.195053  1
  O  O104  1  0.303892  0.499052  0.364924  1
  O  O105  1  0.196150  0.000000  0.318183  1
  O  O106  1  0.696057  0.000000  0.148312  1
  O  O107  1  0.803883  0.998965  0.318185  1
  O  O108  1  0.303817  0.000000  0.148311  1
  O  O109  1  0.803882  0.500880  0.318185  1
  O  O110  1  0.303814  0.500803  0.148311  1
  O  O111  1  0.196148  0.500775  0.318183  1
  O  O112  1  0.696054  0.500811  0.148313  1
  O  O113  1  0.803801  0.000000  0.195053  1
  O  O114  1  0.303890  0.000000  0.364924  1
  O  O115  1  0.196068  0.000000  0.195050  1
  O  O116  1  0.696131  0.000000  0.364924  1
  O  O117  1  0.262804  0.249941  0.205733  1
  O  O118  1  0.762791  0.249925  0.375577  1
  O  O119  1  0.737129  0.249944  0.205717  1
  O  O120  1  0.237217  0.249924  0.375581  1
  O  O121  1  0.262822  0.749923  0.307519  1
  O  O122  1  0.762722  0.749945  0.137656  1
  O  O123  1  0.737148  0.749924  0.307503  1
  O  O124  1  0.237148  0.749942  0.137656  1
  O  O125  1  0.000000  0.749942  0.123252  1
  O  O126  1  0.499549  0.749924  0.293114  1
  O  O127  1  0.000000  0.249927  0.389983  1
  O  O128  1  0.500404  0.249940  0.220121  1
  O  O129  1  0.500071  0.516532  0.656133  1
  O  O130  1  0.000000  0.516499  0.486262  1
  O  O131  1  0.499872  0.016550  0.536547  1
  O  O132  1  0.000000  0.016482  0.706419  1
  O  O133  1  0.499869  0.483337  0.536548  1
  O  O134  1  0.000000  0.483371  0.706419  1
  O  O135  1  0.500073  0.983315  0.656133  1
  O  O136  1  0.000000  0.983390  0.486262  1
  O  O137  1  0.430973  0.484611  0.687554  1
  O  O138  1  0.930897  0.484591  0.517688  1
  O  O139  1  0.569046  0.484554  0.687561  1
  O  O140  1  0.068968  0.484628  0.517691  1
  O  O141  1  0.430903  0.984584  0.505119  1
  O  O142  1  0.930980  0.984602  0.674990  1
  O  O143  1  0.568986  0.984740  0.505127  1
  O  O144  1  0.069050  0.984572  0.674993  1
  O  O145  1  0.568983  0.515147  0.505127  1
  O  O146  1  0.069049  0.515272  0.674993  1
  O  O147  1  0.430900  0.515309  0.505120  1
  O  O148  1  0.930979  0.515247  0.674990  1
  O  O149  1  0.569046  0.015292  0.687561  1
  O  O150  1  0.068971  0.015267  0.517691  1
  O  O151  1  0.430965  0.015117  0.687555  1
  O  O152  1  0.930900  0.015297  0.517688  1
  O  O153  1  0.499991  0.249917  0.673212  1
  O  O154  1  0.000000  0.249946  0.503344  1
  O  O155  1  0.499950  0.749944  0.519468  1
  O  O156  1  0.000000  0.749924  0.689337  1
  O  O157  1  0.932496  0.499070  0.738365  1
  O  O158  1  0.432342  0.498276  0.568504  1
  O  O159  1  0.067509  0.498865  0.738362  1
  O  O160  1  0.567347  0.499750  0.568485  1
  O  O161  1  0.932439  0.998920  0.454320  1
  O  O162  1  0.432600  0.000000  0.624195  1
  O  O163  1  0.067452  0.000000  0.454315  1
  O  O164  1  0.567606  0.998272  0.624177  1
  O  O165  1  0.067448  0.500835  0.454316  1
  O  O166  1  0.567603  0.501575  0.624178  1
  O  O167  1  0.932436  0.500968  0.454320  1
  O  O168  1  0.432597  0.500126  0.624195  1
  O  O169  1  0.067511  0.000000  0.738362  1
  O  O170  1  0.567351  0.000000  0.568485  1
  O  O171  1  0.932498  0.000000  0.738365  1
  O  O172  1  0.432345  0.001594  0.568504  1
  O  O173  1  0.802699  0.515383  0.730060  1
  O  O174  1  0.302625  0.515533  0.560193  1
  O  O175  1  0.197309  0.515385  0.730064  1
  O  O176  1  0.697208  0.515357  0.560194  1
  O  O177  1  0.802635  0.015387  0.462617  1
  O  O178  1  0.302741  0.015343  0.632488  1
  O  O179  1  0.197246  0.015411  0.462621  1
  O  O180  1  0.697324  0.015516  0.632488  1
  O  O181  1  0.197242  0.484471  0.462621  1
  O  O182  1  0.697323  0.484337  0.632487  1
  O  O183  1  0.802632  0.484495  0.462618  1
  O  O184  1  0.302739  0.484503  0.632488  1
  O  O185  1  0.197311  0.984464  0.730064  1
  O  O186  1  0.697211  0.984522  0.560193  1
  O  O187  1  0.802700  0.984473  0.730061  1
  O  O188  1  0.302628  0.984346  0.560193  1
  O  O189  1  0.844836  0.499856  0.426478  1
  O  O190  1  0.344817  0.500680  0.596370  1
  O  O191  1  0.155107  0.500014  0.426481  1
  O  O192  1  0.655126  0.499184  0.596311  1
  O  O193  1  0.844840  0.000000  0.426477  1
  O  O194  1  0.344819  0.000000  0.596370  1
  O  O195  1  0.155109  0.000000  0.426480  1
  O  O196  1  0.655130  -0.000000  0.596311  1
  O  O197  1  0.865446  0.749930  0.745778  1
  O  O198  1  0.365774  0.749935  0.575826  1
  O  O199  1  0.134450  0.749929  0.745750  1
  O  O200  1  0.634723  0.749939  0.576011  1
  O  O201  1  0.865475  0.249941  0.446931  1
  O  O202  1  0.365227  0.249927  0.616671  1
  O  O203  1  0.134479  0.249938  0.446904  1
  O  O204  1  0.634177  0.249927  0.616855  1
  O  O205  1  0.134137  0.749945  0.522329  1
  O  O206  1  0.634157  0.749922  0.692201  1
  O  O207  1  0.865768  0.749946  0.522318  1
  O  O208  1  0.365862  0.749992  0.692197  1
  O  O209  1  0.134182  0.249922  0.670363  1
  O  O210  1  0.634047  0.249945  0.500489  1
  O  O211  1  0.865813  0.249923  0.670353  1
  O  O212  1  0.365784  0.249945  0.500478  1
  O  O213  1  0.179054  0.546036  0.498648  1
  O  O214  1  0.679147  0.546063  0.668521  1
  O  O215  1  0.820814  0.546020  0.498646  1
  O  O216  1  0.320871  0.546027  0.668518  1
  O  O217  1  0.179133  0.045999  0.694035  1
  O  O218  1  0.679079  0.046049  0.524164  1
  O  O219  1  0.820892  0.046015  0.694033  1
  O  O220  1  0.320802  0.046084  0.524159  1
  O  O221  1  0.820891  0.453833  0.694033  1
  O  O222  1  0.320799  0.453803  0.524159  1
  O  O223  1  0.179131  0.453846  0.694036  1
  O  O224  1  0.679077  0.453840  0.524165  1
  O  O225  1  0.820817  0.953870  0.498645  1
  O  O226  1  0.320870  0.953819  0.668517  1
  O  O227  1  0.179057  0.953852  0.498648  1
  O  O228  1  0.679148  0.953782  0.668521  1
  O  O229  1  0.196065  0.498981  0.534773  1
  O  O230  1  0.696130  0.499072  0.704647  1
  O  O231  1  0.803798  0.499099  0.534776  1
  O  O232  1  0.303892  0.499052  0.704647  1
  O  O233  1  0.196150  0.000000  0.657905  1
  O  O234  1  0.696057  -0.000000  0.488035  1
  O  O235  1  0.803883  0.998965  0.657908  1
  O  O236  1  0.303817  0.000000  0.488034  1
  O  O237  1  0.803882  0.500880  0.657908  1
  O  O238  1  0.303814  0.500803  0.488034  1
  O  O239  1  0.196148  0.500775  0.657906  1
  O  O240  1  0.696054  0.500811  0.488036  1
  O  O241  1  0.803801  -0.000000  0.534776  1
  O  O242  1  0.303890  0.000000  0.704647  1
  O  O243  1  0.196068  0.000000  0.534773  1
  O  O244  1  0.696131  0.000000  0.704647  1
  O  O245  1  0.262804  0.249941  0.545455  1
  O  O246  1  0.762791  0.249925  0.715300  1
  O  O247  1  0.737129  0.249944  0.545440  1
  O  O248  1  0.237217  0.249924  0.715304  1
  O  O249  1  0.262822  0.749923  0.647242  1
  O  O250  1  0.762722  0.749945  0.477379  1
  O  O251  1  0.737148  0.749924  0.647226  1
  O  O252  1  0.237148  0.749942  0.477379  1
  O  O253  1  0.000000  0.749942  0.462975  1
  O  O254  1  0.499549  0.749924  0.632837  1
  O  O255  1  0.000000  0.249927  0.729706  1
  O  O256  1  0.500404  0.249940  0.559844  1
  O  O257  1  0.844836  0.499856  0.766201  1
  O  O258  1  0.155107  0.500014  0.766204  1
  O  O259  1  0.844840  0.000000  0.766200  1
  O  O260  1  0.155109  0.000000  0.766203  1
  Si  Si261  1  0.142890  0.568477  0.179479  1
  Si  Si262  1  0.642952  0.568471  0.349348  1
  Si  Si263  1  0.856983  0.568479  0.179477  1
  Si  Si264  1  0.357060  0.568490  0.349346  1
  Si  Si265  1  0.142965  0.068456  0.333759  1
  Si  Si266  1  0.642892  0.068502  0.163890  1
  Si  Si267  1  0.857058  0.068455  0.333757  1
  Si  Si268  1  0.356995  0.068493  0.163886  1
  Si  Si269  1  0.857058  0.431391  0.333756  1
  Si  Si270  1  0.356992  0.431395  0.163886  1
  Si  Si271  1  0.142964  0.431389  0.333760  1
  Si  Si272  1  0.642890  0.431388  0.163891  1
  Si  Si273  1  0.856986  0.931413  0.179476  1
  Si  Si274  1  0.357052  0.931388  0.349346  1
  Si  Si275  1  0.142892  0.931413  0.179479  1
  Si  Si276  1  0.642952  0.931373  0.349349  1
  Si  Si277  1  0.269133  0.431249  0.202181  1
  Si  Si278  1  0.769187  0.431237  0.372046  1
  Si  Si279  1  0.730752  0.431250  0.202183  1
  Si  Si280  1  0.230831  0.431239  0.372049  1
  Si  Si281  1  0.269197  0.931229  0.311052  1
  Si  Si282  1  0.769115  0.931258  0.141187  1
  Si  Si283  1  0.730816  0.931231  0.311054  1
  Si  Si284  1  0.230758  0.931255  0.141188  1
  Si  Si285  1  0.730815  0.568616  0.311054  1
  Si  Si286  1  0.230755  0.568630  0.141189  1
  Si  Si287  1  0.269198  0.568617  0.311054  1
  Si  Si288  1  0.769113  0.568631  0.141187  1
  Si  Si289  1  0.730754  0.068638  0.202183  1
  Si  Si290  1  0.230830  0.068611  0.372050  1
  Si  Si291  1  0.269136  0.068634  0.202181  1
  Si  Si292  1  0.769188  0.068612  0.372046  1
  Si  Si293  1  0.860408  0.567528  0.405492  1
  Si  Si294  1  0.360394  0.567559  0.235620  1
  Si  Si295  1  0.139561  0.567529  0.405486  1
  Si  Si296  1  0.639538  0.567520  0.235635  1
  Si  Si297  1  0.860380  0.067541  0.107749  1
  Si  Si298  1  0.360410  0.067508  0.277601  1
  Si  Si299  1  0.139533  0.067536  0.107743  1
  Si  Si300  1  0.639555  0.067551  0.277616  1
  Si  Si301  1  0.139530  0.432340  0.107743  1
  Si  Si302  1  0.639553  0.432304  0.277615  1
  Si  Si303  1  0.860377  0.432340  0.107750  1
  Si  Si304  1  0.360408  0.432345  0.277601  1
  Si  Si305  1  0.139562  0.932329  0.405486  1
  Si  Si306  1  0.639541  0.932357  0.235634  1
  Si  Si307  1  0.860410  0.932331  0.405493  1
  Si  Si308  1  0.360396  0.932313  0.235620  1
  Si  Si309  1  0.500010  0.431607  0.336777  1
  Si  Si310  1  0.000000  0.431629  0.166908  1
  Si  Si311  1  0.499940  0.931640  0.176457  1
  Si  Si312  1  0.000000  0.931607  0.346327  1
  Si  Si313  1  0.499938  0.568249  0.176457  1
  Si  Si314  1  0.000000  0.568241  0.346327  1
  Si  Si315  1  0.500006  0.068225  0.336778  1
  Si  Si316  1  0.000000  0.068263  0.166908  1
  Si  Si317  1  0.000000  0.567002  0.124575  1
  Si  Si318  1  0.499974  0.566980  0.294444  1
  Si  Si319  1  0.000000  0.066988  0.388660  1
  Si  Si320  1  0.499974  0.066995  0.218792  1
  Si  Si321  1  0.000000  0.432868  0.388661  1
  Si  Si322  1  0.499971  0.432885  0.218792  1
  Si  Si323  1  0.000000  0.932882  0.124575  1
  Si  Si324  1  0.499976  0.932869  0.294443  1
  Si  Si325  1  0.142890  0.568477  0.519202  1
  Si  Si326  1  0.642952  0.568471  0.689071  1
  Si  Si327  1  0.856983  0.568479  0.519199  1
  Si  Si328  1  0.357060  0.568490  0.689069  1
  Si  Si329  1  0.142965  0.068456  0.673482  1
  Si  Si330  1  0.642892  0.068502  0.503613  1
  Si  Si331  1  0.857058  0.068455  0.673479  1
  Si  Si332  1  0.356995  0.068493  0.503608  1
  Si  Si333  1  0.857058  0.431391  0.673479  1
  Si  Si334  1  0.356992  0.431395  0.503608  1
  Si  Si335  1  0.142964  0.431389  0.673482  1
  Si  Si336  1  0.642890  0.431388  0.503614  1
  Si  Si337  1  0.856986  0.931413  0.519199  1
  Si  Si338  1  0.357052  0.931388  0.689069  1
  Si  Si339  1  0.142892  0.931413  0.519202  1
  Si  Si340  1  0.642952  0.931373  0.689072  1
  Si  Si341  1  0.269133  0.431249  0.541904  1
  Si  Si342  1  0.769187  0.431237  0.711769  1
  Si  Si343  1  0.730752  0.431250  0.541906  1
  Si  Si344  1  0.230831  0.431239  0.711772  1
  Si  Si345  1  0.269197  0.931229  0.650775  1
  Si  Si346  1  0.769115  0.931258  0.480910  1
  Si  Si347  1  0.730816  0.931231  0.650777  1
  Si  Si348  1  0.230758  0.931255  0.480911  1
  Si  Si349  1  0.730815  0.568616  0.650777  1
  Si  Si350  1  0.230755  0.568630  0.480912  1
  Si  Si351  1  0.269198  0.568617  0.650776  1
  Si  Si352  1  0.769113  0.568631  0.480910  1
  Si  Si353  1  0.730754  0.068638  0.541906  1
  Si  Si354  1  0.230830  0.068611  0.711773  1
  Si  Si355  1  0.269136  0.068634  0.541904  1
  Si  Si356  1  0.769188  0.068612  0.711769  1
  Si  Si357  1  0.860408  0.567528  0.745215  1
  Si  Si358  1  0.360394  0.567559  0.575343  1
  Si  Si359  1  0.139561  0.567529  0.745209  1
  Si  Si360  1  0.639538  0.567520  0.575358  1
  Si  Si361  1  0.860380  0.067541  0.447472  1
  Si  Si362  1  0.360410  0.067508  0.617324  1
  Si  Si363  1  0.139533  0.067536  0.447466  1
  Si  Si364  1  0.639555  0.067551  0.617338  1
  Si  Si365  1  0.139530  0.432340  0.447466  1
  Si  Si366  1  0.639553  0.432304  0.617338  1
  Si  Si367  1  0.860377  0.432340  0.447473  1
  Si  Si368  1  0.360408  0.432345  0.617324  1
  Si  Si369  1  0.139562  0.932329  0.745209  1
  Si  Si370  1  0.639541  0.932357  0.575357  1
  Si  Si371  1  0.860410  0.932331  0.745216  1
  Si  Si372  1  0.360396  0.932313  0.575343  1
  Si  Si373  1  0.500010  0.431607  0.676500  1
  Si  Si374  1  0.000000  0.431629  0.506631  1
  Si  Si375  1  0.499940  0.931640  0.516180  1
  Si  Si376  1  0.000000  0.931607  0.686050  1
  Si  Si377  1  0.499938  0.568249  0.516180  1
  Si  Si378  1  0.000000  0.568241  0.686050  1
  Si  Si379  1  0.500006  0.068225  0.676501  1
  Si  Si380  1  0.000000  0.068263  0.506631  1
  Si  Si381  1  0.000000  0.567002  0.464298  1
  Si  Si382  1  0.499974  0.566980  0.634167  1
  Si  Si383  1  0.000000  0.066988  0.728383  1
  Si  Si384  1  0.499974  0.066995  0.558514  1
  Si  Si385  1  0.000000  0.432868  0.728383  1
  Si  Si386  1  0.499971  0.432885  0.558514  1
  Si  Si387  1  0.000000  0.932882  0.464298  1
  Si  Si388  1  0.499976  0.932869  0.634166  1
  H  H389  1  0.844836  0.499856  0.073521  1
  H  H390  1  0.155107  0.500014  0.073524  1
  H  H391  1  0.844840  0.000000  0.073521  1
  H  H392  1  0.155109  0.000000  0.073524  1
  H  H393  1  0.844836  0.499856  0.779434  1
  H  H394  1  0.155107  0.500014  0.779437  1
  H  H395  1  0.844840  -0.000000  0.779434  1
  H  H396  1  0.155109  0.000000  0.779437  1
