# generated using pymatgen
data_Si6H2O13
_symmetry_space_group_name_H-M   'P 1'
_cell_length_a   21.16392848
_cell_length_b   38.13318385
_cell_length_c   63.82637143
_cell_angle_alpha   149.99978651
_cell_angle_beta   90.00000000
_cell_angle_gamma   90.00000000
_symmetry_Int_Tables_number   1
_chemical_formula_structural   Si6H2O13
_chemical_formula_sum   'Si132 H44 O286'
_cell_volume   25755.6381503
_cell_formula_units_Z   22
loop_
 _symmetry_equiv_pos_site_id
 _symmetry_equiv_pos_as_xyz
  1  'x, y, z'
loop_
 _atom_site_type_symbol
 _atom_site_label
 _atom_site_symmetry_multiplicity
 _atom_site_fract_x
 _atom_site_fract_y
 _atom_site_fract_z
 _atom_site_occupancy
  O  O1  1  0.742006  0.133087  0.170826  1
  O  O2  1  0.687985  0.227305  0.170867  1
  O  O3  1  0.809786  0.452640  0.170861  1
  O  O4  1  0.870401  0.200012  0.170873  1
  O  O5  1  0.000000  0.138719  0.170871  1
  O  O6  1  0.414866  0.453314  0.170918  1
  O  O7  1  0.585095  0.453260  0.170852  1
  O  O8  1  0.257972  0.133136  0.170912  1
  O  O9  1  0.312036  0.227265  0.170904  1
  O  O10  1  0.129597  0.199983  0.170909  1
  O  O11  1  0.742000  0.866857  0.170775  1
  O  O12  1  0.687888  0.772839  0.170852  1
  O  O13  1  0.809637  0.547382  0.170878  1
  O  O14  1  0.870280  0.800113  0.170881  1
  O  O15  1  0.585069  0.546775  0.170906  1
  O  O16  1  0.257868  0.866902  0.170920  1
  O  O17  1  0.311900  0.772732  0.170906  1
  O  O18  1  0.129493  0.800019  0.170904  1
  O  O19  1  0.000000  0.861295  0.170877  1
  O  O20  1  0.742033  0.866916  0.378044  1
  O  O21  1  0.742030  0.733677  0.377990  1
  O  O22  1  0.742006  0.133087  0.515763  1
  O  O23  1  0.703201  0.746613  0.305660  1
  O  O24  1  0.703190  0.644114  0.357695  1
  O  O25  1  0.703210  0.102446  0.463702  1
  O  O26  1  0.703229  0.897569  0.357699  1
  O  O27  1  0.703247  0.644099  0.305594  1
  O  O28  1  0.703178  0.253395  0.222941  1
  O  O29  1  0.736869  0.764590  0.353392  1
  O  O30  1  0.783768  0.577827  0.370180  1
  O  O31  1  0.736854  0.000000  0.434569  1
  O  O32  1  0.817618  0.765875  0.324581  1
  O  O33  1  0.817602  0.679687  0.375605  1
  O  O34  1  0.817620  0.086091  0.464697  1
  O  O35  1  0.817641  0.913937  0.375625  1
  O  O36  1  0.817650  0.679742  0.324548  1
  O  O37  1  0.817588  0.234128  0.221928  1
  O  O38  1  0.736361  0.875103  0.309847  1
  O  O39  1  0.736372  0.527831  0.233163  1
  O  O40  1  0.736256  0.347206  0.247568  1
  O  O41  1  0.736283  0.652819  0.233214  1
  O  O42  1  0.736287  0.527874  0.309868  1
  O  O43  1  0.736349  0.124947  0.439118  1
  O  O44  1  0.688004  0.772725  0.280596  1
  O  O45  1  0.688019  0.545384  0.280583  1
  O  O46  1  0.687985  0.227305  0.515804  1
  O  O47  1  0.850540  0.667436  0.250493  1
  O  O48  1  0.850542  0.563347  0.329297  1
  O  O49  1  0.850575  0.104061  0.436954  1
  O  O50  1  0.850589  0.895997  0.329300  1
  O  O51  1  0.850613  0.563393  0.250478  1
  O  O52  1  0.850507  0.332589  0.249728  1
  O  O53  1  0.783784  0.577843  0.224573  1
  O  O54  1  0.783788  0.000000  0.370174  1
  O  O55  1  0.809648  0.452602  0.294308  1
  O  O56  1  0.809786  0.452640  0.515798  1
  O  O57  1  0.809685  0.094706  0.392298  1
  O  O58  1  0.870429  0.800023  0.308847  1
  O  O59  1  0.870440  0.600007  0.308845  1
  O  O60  1  0.870401  0.200012  0.515810  1
  O  O61  1  0.938942  0.909221  0.365645  1
  O  O62  1  0.938964  0.655531  0.309484  1
  O  O63  1  0.938883  0.253701  0.227076  1
  O  O64  1  0.938911  0.746322  0.309487  1
  O  O65  1  0.938904  0.655510  0.365674  1
  O  O66  1  0.938926  0.090821  0.459606  1
  O  O67  1  0.000000  0.000000  0.433631  1
  O  O68  1  0.000000  0.761809  0.351489  1
  O  O69  1  0.000000  0.138719  0.515808  1
  O  O70  1  0.000000  0.861325  0.372285  1
  O  O71  1  0.736846  0.764548  0.434538  1
  O  O72  1  0.736837  0.235402  0.252059  1
  O  O73  1  0.783746  0.422220  0.316527  1
  O  O74  1  0.000000  0.238239  0.253058  1
  O  O75  1  0.000000  0.722576  0.372281  1
  O  O76  1  0.000000  0.761740  0.433629  1
  O  O77  1  0.618953  0.875071  0.317065  1
  O  O78  1  0.618934  0.548823  0.247664  1
  O  O79  1  0.618845  0.326126  0.240275  1
  O  O80  1  0.618871  0.673889  0.247732  1
  O  O81  1  0.618867  0.548837  0.317076  1
  O  O82  1  0.618940  0.124974  0.446361  1
  O  O83  1  0.381144  0.548952  0.247768  1
  O  O84  1  0.381089  0.326169  0.240326  1
  O  O85  1  0.381187  0.875117  0.317185  1
  O  O86  1  0.381099  0.548932  0.317160  1
  O  O87  1  0.381183  0.124944  0.446442  1
  O  O88  1  0.381113  0.673902  0.247778  1
  O  O89  1  0.499975  0.534275  0.322638  1
  O  O90  1  0.500068  0.094350  0.420238  1
  O  O91  1  0.499991  0.628676  0.227125  1
  O  O92  1  0.500025  0.534295  0.227090  1
  O  O93  1  0.499967  0.371366  0.266464  1
  O  O94  1  0.500074  0.905699  0.322635  1
  O  O95  1  0.414864  0.453298  0.295042  1
  O  O96  1  0.414866  0.453314  0.515855  1
  O  O97  1  0.414844  0.093449  0.391715  1
  O  O98  1  0.585079  0.453246  0.294993  1
  O  O99  1  0.585095  0.453260  0.515789  1
  O  O100  1  0.585082  0.093463  0.391637  1
  O  O101  1  0.415578  0.000000  0.371001  1
  O  O102  1  0.415478  0.419953  0.315772  1
  O  O103  1  0.415513  0.580110  0.226168  1
  O  O104  1  0.584510  0.580078  0.226124  1
  O  O105  1  0.584577  0.000000  0.370907  1
  O  O106  1  0.584473  0.419930  0.315742  1
  O  O107  1  0.584464  0.580040  0.370943  1
  O  O108  1  0.415482  0.580088  0.371000  1
  O  O109  1  0.257984  0.733810  0.378118  1
  O  O110  1  0.257972  0.133136  0.515849  1
  O  O111  1  0.257990  0.866932  0.378119  1
  O  O112  1  0.296781  0.644221  0.357810  1
  O  O113  1  0.296827  0.102416  0.463763  1
  O  O114  1  0.296790  0.746627  0.305720  1
  O  O115  1  0.296826  0.644248  0.305731  1
  O  O116  1  0.296766  0.253438  0.223009  1
  O  O117  1  0.296833  0.897647  0.357815  1
  O  O118  1  0.263097  0.764640  0.434666  1
  O  O119  1  0.263166  0.000000  0.434669  1
  O  O120  1  0.263171  0.764676  0.353490  1
  O  O121  1  0.182370  0.679793  0.375704  1
  O  O122  1  0.182404  0.086078  0.464762  1
  O  O123  1  0.182387  0.765893  0.324651  1
  O  O124  1  0.182417  0.679840  0.324644  1
  O  O125  1  0.182357  0.234173  0.221998  1
  O  O126  1  0.182412  0.913980  0.375722  1
  O  O127  1  0.263723  0.527983  0.233277  1
  O  O128  1  0.263670  0.347179  0.247570  1
  O  O129  1  0.263760  0.875163  0.309952  1
  O  O130  1  0.263685  0.527943  0.309936  1
  O  O131  1  0.263756  0.124897  0.439163  1
  O  O132  1  0.263693  0.652878  0.233274  1
  O  O133  1  0.312007  0.545514  0.280688  1
  O  O134  1  0.312036  0.227265  0.515841  1
  O  O135  1  0.312045  0.772796  0.280698  1
  O  O136  1  0.149439  0.563411  0.329358  1
  O  O137  1  0.149495  0.104043  0.437016  1
  O  O138  1  0.149453  0.667471  0.250561  1
  O  O139  1  0.149477  0.563490  0.250559  1
  O  O140  1  0.149426  0.332587  0.249749  1
  O  O141  1  0.149502  0.896011  0.329384  1
  O  O142  1  0.216258  0.000000  0.370230  1
  O  O143  1  0.216216  0.422180  0.316522  1
  O  O144  1  0.216259  0.577868  0.224610  1
  O  O145  1  0.190305  0.452620  0.294336  1
  O  O146  1  0.190315  0.452682  0.170940  1
  O  O147  1  0.190285  0.094790  0.392424  1
  O  O148  1  0.129600  0.600097  0.308917  1
  O  O149  1  0.129597  0.199983  0.515846  1
  O  O150  1  0.129620  0.800069  0.308934  1
  O  O151  1  0.061117  0.655637  0.309548  1
  O  O152  1  0.061043  0.253682  0.227085  1
  O  O153  1  0.061104  0.909272  0.365724  1
  O  O154  1  0.061063  0.655525  0.365690  1
  O  O155  1  0.061092  0.090773  0.459629  1
  O  O156  1  0.061070  0.746376  0.309546  1
  O  O157  1  0.263121  0.235392  0.252103  1
  O  O158  1  0.216180  0.577826  0.370215  1
  O  O159  1  0.742000  0.266305  0.308634  1
  O  O160  1  0.742000  0.866857  0.515712  1
  O  O161  1  0.741997  0.133091  0.308515  1
  O  O162  1  0.703203  0.355883  0.328941  1
  O  O163  1  0.703072  0.897699  0.222909  1
  O  O164  1  0.703124  0.253356  0.380912  1
  O  O165  1  0.703157  0.355846  0.381014  1
  O  O166  1  0.703184  0.746584  0.463663  1
  O  O167  1  0.703062  0.102273  0.328747  1
  O  O168  1  0.736806  0.000000  0.251929  1
  O  O169  1  0.736824  0.235395  0.333208  1
  O  O170  1  0.817605  0.320276  0.311025  1
  O  O171  1  0.817494  0.913989  0.221910  1
  O  O172  1  0.817546  0.234163  0.362050  1
  O  O173  1  0.817564  0.320283  0.362113  1
  O  O174  1  0.817590  0.765827  0.464677  1
  O  O175  1  0.817486  0.086003  0.310907  1
  O  O176  1  0.736248  0.472093  0.453485  1
  O  O177  1  0.736271  0.652870  0.439135  1
  O  O178  1  0.736082  0.124827  0.376654  1
  O  O179  1  0.736306  0.472168  0.376840  1
  O  O180  1  0.736103  0.875196  0.247503  1
  O  O181  1  0.736187  0.347046  0.453357  1
  O  O182  1  0.687991  0.454589  0.406082  1
  O  O183  1  0.687888  0.772839  0.515789  1
  O  O184  1  0.687811  0.227125  0.405883  1
  O  O185  1  0.850551  0.436657  0.357379  1
  O  O186  1  0.850365  0.896103  0.249717  1
  O  O187  1  0.850445  0.332535  0.436147  1
  O  O188  1  0.850497  0.436610  0.436201  1
  O  O189  1  0.850514  0.667472  0.436980  1
  O  O190  1  0.850347  0.103938  0.357248  1
  O  O191  1  0.783556  0.000000  0.316465  1
  O  O192  1  0.000000  0.277460  0.314442  1
  O  O193  1  0.783700  0.422159  0.462117  1
  O  O194  1  0.809659  0.547447  0.392402  1
  O  O195  1  0.809637  0.547382  0.515815  1
  O  O196  1  0.809704  0.905353  0.294328  1
  O  O197  1  0.870385  0.399997  0.377830  1
  O  O198  1  0.870280  0.800113  0.515818  1
  O  O199  1  0.870237  0.199906  0.377728  1
  O  O200  1  0.938861  0.344485  0.377215  1
  O  O201  1  0.938892  0.746349  0.459630  1
  O  O202  1  0.938770  0.090734  0.320942  1
  O  O203  1  0.938911  0.344500  0.321023  1
  O  O204  1  0.938784  0.909303  0.227069  1
  O  O205  1  0.938843  0.253683  0.377186  1
  O  O206  1  0.000000  0.238294  0.335266  1
  O  O207  1  0.000000  0.138751  0.314436  1
  O  O208  1  0.618828  0.451145  0.438995  1
  O  O209  1  0.618852  0.673867  0.446379  1
  O  O210  1  0.618697  0.124825  0.369404  1
  O  O211  1  0.618877  0.451162  0.369615  1
  O  O212  1  0.618716  0.875138  0.240224  1
  O  O213  1  0.618789  0.326107  0.438890  1
  O  O214  1  0.380960  0.124962  0.369608  1
  O  O215  1  0.381047  0.451143  0.439029  1
  O  O216  1  0.381077  0.673878  0.446450  1
  O  O217  1  0.381044  0.326185  0.439015  1
  O  O218  1  0.381093  0.451113  0.369616  1
  O  O219  1  0.380965  0.875058  0.240314  1
  O  O220  1  0.499932  0.371391  0.459623  1
  O  O221  1  0.499982  0.465733  0.364091  1
  O  O222  1  0.499855  0.905661  0.266415  1
  O  O223  1  0.499846  0.094335  0.364031  1
  O  O224  1  0.499931  0.465772  0.459654  1
  O  O225  1  0.499972  0.628651  0.420271  1
  O  O226  1  0.414868  0.546749  0.391735  1
  O  O227  1  0.414853  0.546773  0.170935  1
  O  O228  1  0.414855  0.906587  0.295037  1
  O  O229  1  0.585085  0.546741  0.391700  1
  O  O230  1  0.585069  0.546775  0.515843  1
  O  O231  1  0.585088  0.906549  0.294933  1
  O  O232  1  0.415440  0.419980  0.460622  1
  O  O233  1  0.415357  0.000000  0.315748  1
  O  O234  1  0.584323  0.000000  0.315664  1
  O  O235  1  0.584415  0.419979  0.460585  1
  O  O236  1  0.257831  0.133156  0.308677  1
  O  O237  1  0.257923  0.266256  0.308671  1
  O  O238  1  0.257868  0.866902  0.515856  1
  O  O239  1  0.296710  0.253425  0.381055  1
  O  O240  1  0.296773  0.355815  0.328962  1
  O  O241  1  0.296659  0.897625  0.223014  1
  O  O242  1  0.296648  0.102426  0.328974  1
  O  O243  1  0.296731  0.355839  0.381067  1
  O  O244  1  0.296747  0.746617  0.463771  1
  O  O245  1  0.263041  0.235418  0.333311  1
  O  O246  1  0.262991  0.000000  0.252112  1
  O  O247  1  0.182288  0.234231  0.362177  1
  O  O248  1  0.182360  0.320228  0.311046  1
  O  O249  1  0.182250  0.913944  0.221997  1
  O  O250  1  0.182234  0.086099  0.311071  1
  O  O251  1  0.182317  0.320278  0.362158  1
  O  O252  1  0.182330  0.765823  0.464755  1
  O  O253  1  0.263550  0.124929  0.376838  1
  O  O254  1  0.263635  0.472113  0.453520  1
  O  O255  1  0.263660  0.652804  0.439153  1
  O  O256  1  0.263633  0.347237  0.453519  1
  O  O257  1  0.263673  0.472072  0.376814  1
  O  O258  1  0.263551  0.875114  0.247587  1
  O  O259  1  0.311897  0.227310  0.406103  1
  O  O260  1  0.311946  0.454549  0.406091  1
  O  O261  1  0.311900  0.772732  0.515843  1
  O  O262  1  0.149371  0.332642  0.436263  1
  O  O263  1  0.149425  0.436577  0.357359  1
  O  O264  1  0.149310  0.896001  0.249759  1
  O  O265  1  0.149305  0.104039  0.357399  1
  O  O266  1  0.149388  0.436658  0.436247  1
  O  O267  1  0.149401  0.667410  0.436999  1
  O  O268  1  0.216141  0.422222  0.462176  1
  O  O269  1  0.216094  0.000000  0.316539  1
  O  O270  1  0.190300  0.547374  0.392397  1
  O  O271  1  0.190295  0.547442  0.170935  1
  O  O272  1  0.190281  0.905261  0.294363  1
  O  O273  1  0.129472  0.200026  0.377873  1
  O  O274  1  0.129547  0.399976  0.377842  1
  O  O275  1  0.129493  0.800019  0.515841  1
  O  O276  1  0.060937  0.090828  0.321060  1
  O  O277  1  0.061016  0.344535  0.377251  1
  O  O278  1  0.061043  0.746287  0.459620  1
  O  O279  1  0.061002  0.253770  0.377266  1
  O  O280  1  0.061062  0.344438  0.321000  1
  O  O281  1  0.060951  0.909216  0.227091  1
  O  O282  1  0.000000  0.861295  0.515814  1
  O  O283  1  0.000000  0.000000  0.253056  1
  O  O284  1  0.190315  0.452682  0.515877  1
  O  O285  1  0.414853  0.546773  0.515872  1
  O  O286  1  0.190295  0.547442  0.515872  1
  Si  Si287  1  0.748154  0.787494  0.342322  1
  Si  Si288  1  0.748150  0.709487  0.388692  1
  Si  Si289  1  0.748153  0.077901  0.469329  1
  Si  Si290  1  0.748173  0.922118  0.388728  1
  Si  Si291  1  0.748174  0.709526  0.342267  1
  Si  Si292  1  0.748125  0.212505  0.217292  1
  Si  Si293  1  0.684782  0.852029  0.314330  1
  Si  Si294  1  0.684792  0.563916  0.266010  1
  Si  Si295  1  0.684705  0.288034  0.219181  1
  Si  Si296  1  0.684728  0.711987  0.266060  1
  Si  Si297  1  0.684719  0.563926  0.314336  1
  Si  Si298  1  0.684766  0.148007  0.467471  1
  Si  Si299  1  0.796382  0.610502  0.218939  1
  Si  Si300  1  0.796386  0.528809  0.325109  1
  Si  Si301  1  0.796431  0.081660  0.409580  1
  Si  Si302  1  0.796441  0.918397  0.325109  1
  Si  Si303  1  0.796467  0.528823  0.218912  1
  Si  Si304  1  0.796356  0.389522  0.277083  1
  Si  Si305  1  0.872150  0.880300  0.344414  1
  Si  Si306  1  0.872166  0.622904  0.296945  1
  Si  Si307  1  0.872094  0.257386  0.218363  1
  Si  Si308  1  0.872127  0.742634  0.296954  1
  Si  Si309  1  0.872123  0.622860  0.344419  1
  Si  Si310  1  0.872131  0.119739  0.468302  1
  Si  Si311  1  0.000000  0.700923  0.385075  1
  Si  Si312  1  0.000000  0.079976  0.467813  1
  Si  Si313  1  0.000000  0.780943  0.337110  1
  Si  Si314  1  0.000000  0.219098  0.218876  1
  Si  Si315  1  0.000000  0.920070  0.385079  1
  Si  Si316  1  0.427237  0.529565  0.325659  1
  Si  Si317  1  0.427303  0.080949  0.409395  1
  Si  Si318  1  0.427247  0.610525  0.219236  1
  Si  Si319  1  0.427268  0.529580  0.219220  1
  Si  Si320  1  0.427227  0.389538  0.277367  1
  Si  Si321  1  0.427310  0.919106  0.325661  1
  Si  Si322  1  0.572737  0.610519  0.219210  1
  Si  Si323  1  0.572728  0.529508  0.325601  1
  Si  Si324  1  0.572798  0.080942  0.409317  1
  Si  Si325  1  0.572805  0.919096  0.325582  1
  Si  Si326  1  0.572761  0.529531  0.219165  1
  Si  Si327  1  0.572717  0.389502  0.277332  1
  Si  Si328  1  0.127889  0.742666  0.297026  1
  Si  Si329  1  0.127902  0.119702  0.468349  1
  Si  Si330  1  0.251827  0.709613  0.388819  1
  Si  Si331  1  0.251862  0.077908  0.469407  1
  Si  Si332  1  0.251851  0.787520  0.342388  1
  Si  Si333  1  0.251875  0.709645  0.342390  1
  Si  Si334  1  0.251820  0.212550  0.217360  1
  Si  Si335  1  0.251869  0.922160  0.388826  1
  Si  Si336  1  0.315287  0.564061  0.266125  1
  Si  Si337  1  0.315247  0.288044  0.219226  1
  Si  Si338  1  0.315321  0.852107  0.314452  1
  Si  Si339  1  0.315250  0.564038  0.314434  1
  Si  Si340  1  0.315319  0.147956  0.467522  1
  Si  Si341  1  0.315266  0.712019  0.266127  1
  Si  Si342  1  0.203576  0.528842  0.325155  1
  Si  Si343  1  0.203640  0.081675  0.409661  1
  Si  Si344  1  0.203603  0.610540  0.218988  1
  Si  Si345  1  0.203628  0.528899  0.218990  1
  Si  Si346  1  0.203578  0.389517  0.277093  1
  Si  Si347  1  0.203641  0.918381  0.325174  1
  Si  Si348  1  0.127904  0.623002  0.297023  1
  Si  Si349  1  0.127860  0.257393  0.218404  1
  Si  Si350  1  0.127915  0.880348  0.344510  1
  Si  Si351  1  0.127876  0.622933  0.344484  1
  Si  Si352  1  0.000000  0.700991  0.337111  1
  Si  Si353  1  0.000000  0.079972  0.301613  1
  Si  Si354  1  0.000000  0.299103  0.349639  1
  Si  Si355  1  0.000000  0.299059  0.301616  1
  Si  Si356  1  0.872003  0.257356  0.389674  1
  Si  Si357  1  0.000000  0.920070  0.218878  1
  Si  Si358  1  0.871960  0.880409  0.218367  1
  Si  Si359  1  0.871938  0.119614  0.342128  1
  Si  Si360  1  0.872110  0.377125  0.342247  1
  Si  Si361  1  0.748143  0.290469  0.297914  1
  Si  Si362  1  0.748074  0.922133  0.217226  1
  Si  Si363  1  0.748120  0.212506  0.344278  1
  Si  Si364  1  0.748118  0.290479  0.344359  1
  Si  Si365  1  0.748147  0.787442  0.469297  1
  Si  Si366  1  0.748073  0.077835  0.297781  1
  Si  Si367  1  0.684689  0.436038  0.420641  1
  Si  Si368  1  0.684694  0.711997  0.467457  1
  Si  Si369  1  0.684545  0.147803  0.372104  1
  Si  Si370  1  0.684741  0.436064  0.372336  1
  Si  Si371  1  0.684573  0.852170  0.219154  1
  Si  Si372  1  0.684615  0.287944  0.420493  1
  Si  Si373  1  0.796397  0.471233  0.361594  1
  Si  Si374  1  0.796216  0.918392  0.277041  1
  Si  Si375  1  0.796308  0.389472  0.467731  1
  Si  Si376  1  0.796349  0.471159  0.467761  1
  Si  Si377  1  0.796378  0.610526  0.409625  1
  Si  Si378  1  0.796201  0.081651  0.361510  1
  Si  Si379  1  0.872074  0.377121  0.389742  1
  Si  Si380  1  0.872061  0.742661  0.468314  1
  Si  Si381  1  0.000000  0.219146  0.349635  1
  Si  Si382  1  0.000000  0.780901  0.467818  1
  Si  Si383  1  0.572685  0.470515  0.467537  1
  Si  Si384  1  0.572712  0.610481  0.409359  1
  Si  Si385  1  0.572605  0.080913  0.360997  1
  Si  Si386  1  0.427187  0.389555  0.467546  1
  Si  Si387  1  0.427230  0.470476  0.361112  1
  Si  Si388  1  0.427131  0.919087  0.277346  1
  Si  Si389  1  0.427119  0.080931  0.361081  1
  Si  Si390  1  0.427196  0.470502  0.467563  1
  Si  Si391  1  0.427222  0.610507  0.409406  1
  Si  Si392  1  0.572720  0.470476  0.361089  1
  Si  Si393  1  0.572617  0.919068  0.277262  1
  Si  Si394  1  0.572676  0.389528  0.467493  1
  Si  Si395  1  0.127748  0.880304  0.218403  1
  Si  Si396  1  0.127849  0.377071  0.342245  1
  Si  Si397  1  0.251736  0.212574  0.344414  1
  Si  Si398  1  0.251818  0.290420  0.297948  1
  Si  Si399  1  0.251711  0.922138  0.217365  1
  Si  Si400  1  0.251692  0.077907  0.297958  1
  Si  Si401  1  0.251772  0.290449  0.344409  1
  Si  Si402  1  0.251779  0.787479  0.469406  1
  Si  Si403  1  0.315117  0.147996  0.372350  1
  Si  Si404  1  0.315196  0.436025  0.420668  1
  Si  Si405  1  0.315212  0.711969  0.467525  1
  Si  Si406  1  0.315188  0.288078  0.420667  1
  Si  Si407  1  0.315235  0.436001  0.372335  1
  Si  Si408  1  0.315120  0.852045  0.219228  1
  Si  Si409  1  0.203534  0.389573  0.467815  1
  Si  Si410  1  0.203583  0.471154  0.361578  1
  Si  Si411  1  0.203469  0.918377  0.277116  1
  Si  Si412  1  0.203470  0.081667  0.361601  1
  Si  Si413  1  0.203532  0.471215  0.467812  1
  Si  Si414  1  0.203558  0.610478  0.409641  1
  Si  Si415  1  0.127735  0.119739  0.342288  1
  Si  Si416  1  0.127823  0.377141  0.389779  1
  Si  Si417  1  0.127820  0.742601  0.468342  1
  Si  Si418  1  0.127784  0.257453  0.389798  1
  H  H419  1  0.742006  0.133087  0.156725  1
  H  H420  1  0.687985  0.227305  0.156766  1
  H  H421  1  0.809786  0.452640  0.156760  1
  H  H422  1  0.870401  0.200012  0.156772  1
  H  H423  1  0.000000  0.138719  0.156770  1
  H  H424  1  0.414866  0.453314  0.156817  1
  H  H425  1  0.585095  0.453260  0.156752  1
  H  H426  1  0.257972  0.133136  0.156811  1
  H  H427  1  0.312036  0.227265  0.156803  1
  H  H428  1  0.129597  0.199983  0.156808  1
  H  H429  1  0.742000  0.866857  0.156674  1
  H  H430  1  0.687888  0.772839  0.156751  1
  H  H431  1  0.809637  0.547382  0.156778  1
  H  H432  1  0.870280  0.800113  0.156781  1
  H  H433  1  0.585069  0.546775  0.156805  1
  H  H434  1  0.257868  0.866902  0.156819  1
  H  H435  1  0.311900  0.772732  0.156805  1
  H  H436  1  0.129493  0.800019  0.156804  1
  H  H437  1  0.000000  0.861295  0.156776  1
  H  H438  1  0.742006  0.133087  0.529864  1
  H  H439  1  0.687985  0.227305  0.529905  1
  H  H440  1  0.809786  0.452640  0.529899  1
  H  H441  1  0.870401  0.200012  0.529910  1
  H  H442  1  0.000000  0.138719  0.529909  1
  H  H443  1  0.414866  0.453314  0.529955  1
  H  H444  1  0.585095  0.453260  0.529890  1
  H  H445  1  0.257972  0.133136  0.529950  1
  H  H446  1  0.312036  0.227265  0.529941  1
  H  H447  1  0.190315  0.452682  0.156840  1
  H  H448  1  0.129597  0.199983  0.529946  1
  H  H449  1  0.742000  0.866857  0.529812  1
  H  H450  1  0.687888  0.772839  0.529890  1
  H  H451  1  0.809637  0.547382  0.529916  1
  H  H452  1  0.870280  0.800113  0.529919  1
  H  H453  1  0.414853  0.546773  0.156834  1
  H  H454  1  0.585069  0.546775  0.529943  1
  H  H455  1  0.257868  0.866902  0.529957  1
  H  H456  1  0.311900  0.772732  0.529943  1
  H  H457  1  0.190295  0.547442  0.156834  1
  H  H458  1  0.129493  0.800019  0.529942  1
  H  H459  1  0.000000  0.861295  0.529914  1
  H  H460  1  0.190315  0.452682  0.529978  1
  H  H461  1  0.414853  0.546773  0.529973  1
  H  H462  1  0.190295  0.547442  0.529972  1
