# generated using pymatgen
data_Si20H6O43
_symmetry_space_group_name_H-M   'P 1'
_cell_length_a   13.71920629
_cell_length_b   43.13182946
_cell_length_c   40.24026870
_cell_angle_alpha   108.54633442
_cell_angle_beta   120.00000000
_cell_angle_gamma   80.84906928
_symmetry_Int_Tables_number   1
_chemical_formula_structural   Si20H6O43
_chemical_formula_sum   'Si120 H36 O258'
_cell_volume   19550.4736114
_cell_formula_units_Z   6
loop_
 _symmetry_equiv_pos_site_id
 _symmetry_equiv_pos_as_xyz
  1  'x, y, z'
loop_
 _atom_site_type_symbol
 _atom_site_label
 _atom_site_symmetry_multiplicity
 _atom_site_fract_x
 _atom_site_fract_y
 _atom_site_fract_z
 _atom_site_occupancy
  O  O1  1  0.953122  0.090507  0.285704  1
  O  O2  1  0.766129  0.090614  0.285773  1
  O  O3  1  0.072997  0.080229  0.251375  1
  O  O4  1  0.371579  0.080107  0.188255  1
  O  O5  1  0.072012  0.080084  0.188413  1
  O  O6  1  0.555856  0.080080  0.251128  1
  O  O7  1  0.159815  0.076129  0.322223  1
  O  O8  1  0.680614  0.076152  0.322142  1
  O  O9  1  0.020275  0.032102  0.267171  1
  O  O10  1  0.702954  0.032134  0.267161  1
  O  O11  1  0.842458  0.143444  0.291770  1
  O  O12  1  0.939021  0.116875  0.348657  1
  O  O13  1  0.992663  0.129299  0.223020  1
  O  O14  1  0.502860  0.129351  0.223169  1
  O  O15  1  0.667178  0.166612  0.244088  1
  O  O16  1  0.207242  0.117254  0.255127  1
  O  O17  1  0.394009  0.115715  0.318911  1
  O  O18  1  0.395666  0.116606  0.255323  1
  O  O19  1  0.894351  0.005308  0.280489  1
  O  O20  1  0.851287  0.166659  0.179992  1
  O  O21  1  0.337271  0.165548  0.294977  1
  O  O22  1  0.566847  0.242618  0.303843  1
  O  O23  1  0.053279  0.242800  0.240351  1
  O  O24  1  0.053649  0.242359  0.303834  1
  O  O25  1  0.380108  0.242762  0.240133  1
  O  O26  1  0.776974  0.253403  0.348030  1
  O  O27  1  0.961270  0.253423  0.172310  1
  O  O28  1  0.960725  0.253518  0.347532  1
  O  O29  1  0.260755  0.253087  0.171966  1
  O  O30  1  0.173541  0.257331  0.215952  1
  O  O31  1  0.629344  0.301181  0.346451  1
  O  O32  1  0.056433  0.301368  0.238695  1
  O  O33  1  0.056998  0.301069  0.346112  1
  O  O34  1  0.313330  0.301220  0.238441  1
  O  O35  1  0.015348  0.189831  0.247263  1
  O  O36  1  0.491622  0.189913  0.247516  1
  O  O37  1  0.209985  0.215216  0.289187  1
  O  O38  1  0.394562  0.215761  0.289440  1
  O  O39  1  0.830526  0.204030  0.304829  1
  O  O40  1  0.437994  0.328132  0.312977  1
  O  O41  1  0.123772  0.328371  0.313098  1
  O  O42  1  0.852486  0.166822  0.243783  1
  O  O43  1  0.482366  0.166677  0.180318  1
  O  O44  1  0.285919  0.423843  0.285944  1
  O  O45  1  0.099369  0.424302  0.286278  1
  O  O46  1  0.405423  0.413548  0.251436  1
  O  O47  1  0.704832  0.413506  0.188480  1
  O  O48  1  0.404772  0.413172  0.188368  1
  O  O49  1  0.889195  0.413597  0.251362  1
  O  O50  1  0.492660  0.409475  0.322359  1
  O  O51  1  0.013503  0.409421  0.322249  1
  O  O52  1  0.353428  0.365453  0.267221  1
  O  O53  1  0.036658  0.365675  0.267280  1
  O  O54  1  0.175133  0.476811  0.291238  1
  O  O55  1  0.272028  0.451232  0.348790  1
  O  O56  1  0.327394  0.462694  0.223187  1
  O  O57  1  0.836622  0.462630  0.222973  1
  O  O58  1  0.186406  0.499995  0.179947  1
  O  O59  1  0.541539  0.449712  0.255110  1
  O  O60  1  0.729691  0.449288  0.319103  1
  O  O61  1  0.729422  0.450595  0.255459  1
  O  O62  1  0.227938  0.338646  0.280510  1
  O  O63  1  -0.000000  0.499917  0.243371  1
  O  O64  1  0.665655  0.498883  0.294593  1
  O  O65  1  0.506785  0.590511  0.215954  1
  O  O66  1  0.389954  0.634662  0.238704  1
  O  O67  1  0.646938  0.634354  0.238681  1
  O  O68  1  0.899912  0.575943  0.303854  1
  O  O69  1  0.385741  0.576245  0.240319  1
  O  O70  1  0.386331  0.575939  0.303994  1
  O  O71  1  0.713182  0.575817  0.240154  1
  O  O72  1  0.110263  0.586428  0.347972  1
  O  O73  1  0.294457  0.586785  0.172242  1
  O  O74  1  0.294458  0.586678  0.347958  1
  O  O75  1  0.594241  0.586424  0.172085  1
  O  O76  1  0.963480  0.634478  0.346484  1
  O  O77  1  0.389532  0.634579  0.346458  1
  O  O78  1  0.349837  0.523247  0.247588  1
  O  O79  1  0.825886  0.523186  0.247555  1
  O  O80  1  0.543700  0.549416  0.289590  1
  O  O81  1  0.728452  0.548486  0.289337  1
  O  O82  1  0.163413  0.537379  0.304262  1
  O  O83  1  0.186206  0.500109  0.243407  1
  O  O84  1  0.772169  0.661403  0.313116  1
  O  O85  1  0.456086  0.661570  0.313112  1
  O  O86  1  0.814393  0.500030  0.180001  1
  O  O87  1  0.508586  0.810136  0.291729  1
  O  O88  1  0.619444  0.757123  0.285812  1
  O  O89  1  0.432448  0.757348  0.285803  1
  O  O90  1  0.737605  0.746347  0.250806  1
  O  O91  1  0.038249  0.746875  0.188465  1
  O  O92  1  0.738083  0.746660  0.188108  1
  O  O93  1  0.222380  0.746711  0.251196  1
  O  O94  1  0.826134  0.742677  0.322010  1
  O  O95  1  0.347182  0.742765  0.322160  1
  O  O96  1  0.686329  0.698576  0.267235  1
  O  O97  1  0.370188  0.698824  0.267269  1
  O  O98  1  0.604945  0.783663  0.348687  1
  O  O99  1  0.661645  0.795996  0.223568  1
  O  O100  1  0.170297  0.796003  0.223309  1
  O  O101  1  0.334084  0.833287  0.243610  1
  O  O102  1  0.875398  0.782405  0.255537  1
  O  O103  1  0.063980  0.783612  0.319800  1
  O  O104  1  0.062908  0.783594  0.255578  1
  O  O105  1  0.561861  0.671739  0.280924  1
  O  O106  1  0.147294  0.833327  0.180214  1
  O  O107  1  0.995381  0.832222  0.292720  1
  O  O108  1  0.520025  0.833323  0.180621  1
  O  O109  1  0.295858  0.967969  0.346403  1
  O  O110  1  0.723428  0.968013  0.346505  1
  O  O111  1  0.233249  0.909422  0.303768  1
  O  O112  1  0.718892  0.909466  0.239865  1
  O  O113  1  0.718722  0.909566  0.303638  1
  O  O114  1  0.046495  0.909200  0.240146  1
  O  O115  1  0.443337  0.920166  0.347753  1
  O  O116  1  0.628236  0.919916  0.171775  1
  O  O117  1  0.627884  0.920149  0.347923  1
  O  O118  1  0.928940  0.920158  0.172272  1
  O  O119  1  0.840242  0.923984  0.215772  1
  O  O120  1  0.722850  0.967958  0.238405  1
  O  O121  1  0.980718  0.967874  0.238792  1
  O  O122  1  0.684227  0.856584  0.247925  1
  O  O123  1  0.159460  0.856539  0.247797  1
  O  O124  1  0.877423  0.883416  0.289994  1
  O  O125  1  0.062151  0.882130  0.289635  1
  O  O126  1  0.497127  0.870713  0.304744  1
  O  O127  1  0.104486  0.995012  0.313192  1
  O  O128  1  0.789927  0.994857  0.312977  1
  O  O129  1  0.521006  0.833431  0.244197  1
  O  O130  1  0.502624  0.129343  0.396422  1
  O  O131  1  0.766149  0.090736  0.397526  1
  O  O132  1  0.279590  0.090779  0.461156  1
  O  O133  1  0.279557  0.090849  0.397596  1
  O  O134  1  0.952802  0.090467  0.461220  1
  O  O135  1  0.556120  0.079862  0.353326  1
  O  O136  1  0.371579  0.080107  0.529182  1
  O  O137  1  0.372446  0.079840  0.353900  1
  O  O138  1  0.072012  0.080084  0.529341  1
  O  O139  1  0.159380  0.076021  0.485446  1
  O  O140  1  0.704057  0.032160  0.354925  1
  O  O141  1  0.276871  0.032164  0.462756  1
  O  O142  1  0.276256  0.032214  0.355163  1
  O  O143  1  0.019752  0.031995  0.462819  1
  O  O144  1  0.318396  0.143506  0.453968  1
  O  O145  1  0.842211  0.143471  0.453750  1
  O  O146  1  0.123484  0.118366  0.412162  1
  O  O147  1  0.939004  0.117162  0.411745  1
  O  O148  1  0.666445  0.166649  0.457118  1
  O  O149  1  0.895406  0.005116  0.388250  1
  O  O150  1  0.209805  0.005072  0.388359  1
  O  O151  1  0.851287  0.166659  0.520919  1
  O  O152  1  0.260257  0.253131  0.450063  1
  O  O153  1  0.777290  0.253425  0.450295  1
  O  O154  1  0.379900  0.242707  0.415633  1
  O  O155  1  0.566999  0.242994  0.415754  1
  O  O156  1  0.961270  0.253423  0.513237  1
  O  O157  1  0.260755  0.253087  0.512893  1
  O  O158  1  0.173312  0.257205  0.379182  1
  O  O159  1  0.652477  0.257258  0.379254  1
  O  O160  1  0.313172  0.301161  0.434185  1
  O  O161  1  0.630387  0.301421  0.434232  1
  O  O162  1  0.491394  0.189933  0.409466  1
  O  O163  1  0.394468  0.216718  0.352723  1
  O  O164  1  0.340742  0.204034  0.478320  1
  O  O165  1  0.830489  0.204042  0.478077  1
  O  O166  1  0.481094  0.166670  0.457492  1
  O  O167  1  0.126048  0.215920  0.445987  1
  O  O168  1  0.938945  0.217443  0.382304  1
  O  O169  1  0.938047  0.217141  0.446241  1
  O  O170  1  0.438838  0.328096  0.420854  1
  O  O171  1  0.482366  0.166677  0.521245  1
  O  O172  1  0.994916  0.167817  0.406771  1
  O  O173  1  0.099347  0.423813  0.397599  1
  O  O174  1  0.613211  0.424300  0.461461  1
  O  O175  1  0.613751  0.423837  0.397728  1
  O  O176  1  0.286198  0.423857  0.461310  1
  O  O177  1  0.889358  0.413033  0.353595  1
  O  O178  1  0.704832  0.413506  0.529407  1
  O  O179  1  0.704787  0.413329  0.353501  1
  O  O180  1  0.404772  0.413172  0.529295  1
  O  O181  1  0.492732  0.409401  0.485599  1
  O  O182  1  0.037078  0.365280  0.354878  1
  O  O183  1  0.610043  0.365642  0.462730  1
  O  O184  1  0.609674  0.365386  0.354873  1
  O  O185  1  0.352926  0.365326  0.462751  1
  O  O186  1  0.650889  0.476841  0.453500  1
  O  O187  1  0.175264  0.476777  0.453378  1
  O  O188  1  0.456597  0.451134  0.411709  1
  O  O189  1  0.271937  0.450017  0.411308  1
  O  O190  1  0.836083  0.462651  0.396583  1
  O  O191  1  0.186406  0.499995  0.520874  1
  O  O192  1  0.228632  0.338349  0.388269  1
  O  O193  1  0.542924  0.338495  0.388230  1
  O  O194  1  0.000000  0.499936  0.457348  1
  O  O195  1  0.713092  0.575988  0.415488  1
  O  O196  1  0.900130  0.576305  0.415691  1
  O  O197  1  0.594627  0.586816  0.450377  1
  O  O198  1  0.294457  0.586785  0.513169  1
  O  O199  1  0.594241  0.586424  0.513012  1
  O  O200  1  0.110266  0.586874  0.450339  1
  O  O201  1  0.506716  0.590691  0.379339  1
  O  O202  1  0.985695  0.590594  0.379215  1
  O  O203  1  0.647129  0.634618  0.434136  1
  O  O204  1  0.963128  0.634736  0.434098  1
  O  O205  1  0.825281  0.523230  0.409572  1
  O  O206  1  0.728245  0.549815  0.352688  1
  O  O207  1  0.673154  0.537403  0.478023  1
  O  O208  1  0.163831  0.537340  0.477824  1
  O  O209  1  0.458835  0.549883  0.445644  1
  O  O210  1  0.270872  0.549746  0.381563  1
  O  O211  1  0.270952  0.550856  0.446036  1
  O  O212  1  0.771611  0.661630  0.420443  1
  O  O213  1  0.814267  0.500107  0.457495  1
  O  O214  1  0.814393  0.500030  0.520928  1
  O  O215  1  0.331512  0.501145  0.408697  1
  O  O216  1  0.433336  0.757531  0.397476  1
  O  O217  1  0.947666  0.757259  0.461237  1
  O  O218  1  0.947218  0.757264  0.397401  1
  O  O219  1  0.619793  0.757426  0.461047  1
  O  O220  1  0.223152  0.746802  0.353608  1
  O  O221  1  0.038249  0.746875  0.529392  1
  O  O222  1  0.038197  0.746803  0.353176  1
  O  O223  1  0.738083  0.746660  0.529035  1
  O  O224  1  0.826189  0.742862  0.485407  1
  O  O225  1  0.370243  0.698892  0.355041  1
  O  O226  1  0.943436  0.698869  0.462803  1
  O  O227  1  0.943729  0.698747  0.354709  1
  O  O228  1  0.686199  0.698859  0.462546  1
  O  O229  1  0.983447  0.810093  0.453585  1
  O  O230  1  0.507810  0.810199  0.453899  1
  O  O231  1  0.789703  0.783807  0.411657  1
  O  O232  1  0.605081  0.784910  0.412056  1
  O  O233  1  0.169939  0.795982  0.397101  1
  O  O234  1  0.561327  0.671783  0.388208  1
  O  O235  1  0.877372  0.671976  0.388292  1
  O  O236  1  0.147294  0.833327  0.521142  1
  O  O237  1  0.333396  0.833302  0.458183  1
  O  O238  1  0.520025  0.833323  0.521549  1
  O  O239  1  0.046585  0.909215  0.415178  1
  O  O240  1  0.233523  0.909373  0.415333  1
  O  O241  1  0.927866  0.919881  0.450017  1
  O  O242  1  0.628236  0.919916  0.512702  1
  O  O243  1  0.928940  0.920158  0.513199  1
  O  O244  1  0.443860  0.919731  0.449948  1
  O  O245  1  0.840093  0.923863  0.379015  1
  O  O246  1  0.319196  0.923948  0.379116  1
  O  O247  1  0.980070  0.967760  0.434001  1
  O  O248  1  0.297065  0.967854  0.434223  1
  O  O249  1  0.159326  0.856546  0.410087  1
  O  O250  1  0.062089  0.882168  0.352556  1
  O  O251  1  0.005597  0.870669  0.478122  1
  O  O252  1  0.496609  0.870734  0.478432  1
  O  O253  1  0.146728  0.833432  0.457725  1
  O  O254  1  0.668642  0.834482  0.406977  1
  O  O255  1  0.791590  0.883843  0.446429  1
  O  O256  1  0.603630  0.883978  0.382205  1
  O  O257  1  0.603390  0.882673  0.445738  1
  O  O258  1  0.105577  0.994733  0.420868  1
  Si  Si259  1  0.333339  0.127708  0.280605  1
  Si  Si260  1  0.000000  -0.000000  0.273776  1
  Si  Si261  1  0.050740  0.069362  0.280505  1
  Si  Si262  1  0.674435  0.069392  0.280476  1
  Si  Si263  1  0.874401  0.110413  0.302500  1
  Si  Si264  1  0.925560  0.162243  0.222810  1
  Si  Si265  1  0.537127  0.162232  0.223087  1
  Si  Si266  1  0.086339  0.102296  0.229731  1
  Si  Si267  1  0.456447  0.102105  0.229685  1
  Si  Si268  1  0.774257  0.000000  0.273657  1
  Si  Si269  1  0.775060  0.000000  0.350656  1
  Si  Si270  1  0.333813  0.203318  0.306499  1
  Si  Si271  1  0.658302  0.263962  0.344211  1
  Si  Si272  1  0.058344  0.264100  0.216315  1
  Si  Si273  1  0.058432  0.263901  0.343983  1
  Si  Si274  1  0.282790  0.263959  0.216065  1
  Si  Si275  1  0.081735  0.222499  0.269911  1
  Si  Si276  1  0.459046  0.222722  0.269985  1
  Si  Si277  1  0.797115  0.171133  0.270687  1
  Si  Si278  1  0.876691  0.231530  0.345515  1
  Si  Si279  1  0.108464  0.333252  0.350603  1
  Si  Si280  1  0.558206  0.333286  0.350636  1
  Si  Si281  1  0.666656  0.461040  0.280616  1
  Si  Si282  1  0.383484  0.402752  0.280668  1
  Si  Si283  1  0.007768  0.402890  0.280700  1
  Si  Si284  1  0.207301  0.444073  0.302589  1
  Si  Si285  1  0.260175  0.495604  0.222789  1
  Si  Si286  1  0.870376  0.495538  0.222767  1
  Si  Si287  1  0.419875  0.435367  0.229789  1
  Si  Si288  1  0.789981  0.435623  0.229786  1
  Si  Si289  1  0.107820  0.333549  0.273751  1
  Si  Si290  1  0.333216  0.333335  0.273656  1
  Si  Si291  1  0.391483  0.597406  0.216255  1
  Si  Si292  1  0.616224  0.597126  0.216172  1
  Si  Si293  1  0.666596  0.536654  0.306456  1
  Si  Si294  1  0.666819  0.666482  0.273872  1
  Si  Si295  1  0.991741  0.597210  0.344172  1
  Si  Si296  1  0.391458  0.597353  0.344265  1
  Si  Si297  1  0.415001  0.556150  0.270172  1
  Si  Si298  1  0.792601  0.555838  0.270005  1
  Si  Si299  1  0.130229  0.504463  0.270126  1
  Si  Si300  1  0.209713  0.564505  0.345288  1
  Si  Si301  1  0.892573  0.666652  0.350660  1
  Si  Si302  1  -0.000000  0.794379  0.280598  1
  Si  Si303  1  0.716568  0.735820  0.280430  1
  Si  Si304  1  0.341035  0.736029  0.280512  1
  Si  Si305  1  0.540703  0.777140  0.302533  1
  Si  Si306  1  0.594554  0.828923  0.223422  1
  Si  Si307  1  0.204038  0.828884  0.223037  1
  Si  Si308  1  0.753268  0.768434  0.229676  1
  Si  Si309  1  0.123347  0.768881  0.229841  1
  Si  Si310  1  0.441345  0.666737  0.273925  1
  Si  Si311  1  0.000000  0.869991  0.306291  1
  Si  Si312  1  0.324850  0.930743  0.344095  1
  Si  Si313  1  0.724707  0.930720  0.215895  1
  Si  Si314  1  0.724741  0.930773  0.344129  1
  Si  Si315  1  0.950011  0.930664  0.216251  1
  Si  Si316  1  0.748350  0.889688  0.270067  1
  Si  Si317  1  0.125933  0.889267  0.270050  1
  Si  Si318  1  0.464030  0.837802  0.270609  1
  Si  Si319  1  0.543115  0.898160  0.345488  1
  Si  Si320  1  0.224820  0.000000  0.350767  1
  Si  Si321  1  0.000000  0.130048  0.394891  1
  Si  Si322  1  0.674829  0.069360  0.357146  1
  Si  Si323  1  0.274663  0.069412  0.485147  1
  Si  Si324  1  0.274735  0.069416  0.357402  1
  Si  Si325  1  0.050158  0.069256  0.485260  1
  Si  Si326  1  0.251596  0.110918  0.431482  1
  Si  Si327  1  0.874294  0.110519  0.431320  1
  Si  Si328  1  0.536449  0.162243  0.430556  1
  Si  Si329  1  0.456412  0.101767  0.355804  1
  Si  Si330  1  -0.000000  0.205656  0.420763  1
  Si  Si331  1  0.282458  0.263933  0.420873  1
  Si  Si332  1  0.658757  0.264137  0.420958  1
  Si  Si333  1  0.458959  0.223026  0.398870  1
  Si  Si334  1  0.408040  0.171125  0.478448  1
  Si  Si335  1  0.796479  0.171119  0.478152  1
  Si  Si336  1  0.246837  0.230969  0.471598  1
  Si  Si337  1  0.876781  0.231425  0.471733  1
  Si  Si338  1  0.333423  0.333207  0.427612  1
  Si  Si339  1  0.333140  0.463374  0.395054  1
  Si  Si340  1  0.558807  0.333461  0.427645  1
  Si  Si341  1  0.007842  0.402498  0.357206  1
  Si  Si342  1  0.608052  0.402840  0.485322  1
  Si  Si343  1  0.608035  0.402651  0.357292  1
  Si  Si344  1  0.383362  0.402557  0.485271  1
  Si  Si345  1  0.585026  0.444071  0.431392  1
  Si  Si346  1  0.207493  0.443704  0.431177  1
  Si  Si347  1  0.870174  0.495569  0.430706  1
  Si  Si348  1  0.789796  0.435170  0.355869  1
  Si  Si349  1  0.333217  0.538989  0.420773  1
  Si  Si350  1  0.616230  0.597421  0.420918  1
  Si  Si351  1  0.991748  0.597484  0.420882  1
  Si  Si352  1  0.792319  0.556258  0.398837  1
  Si  Si353  1  0.740439  0.504501  0.478151  1
  Si  Si354  1  0.130261  0.504420  0.478050  1
  Si  Si355  1  0.580087  0.564569  0.471594  1
  Si  Si356  1  0.209936  0.564859  0.471630  1
  Si  Si357  1  0.666966  0.796710  0.394923  1
  Si  Si358  1  0.440907  0.666702  0.350699  1
  Si  Si359  1  0.341601  0.736128  0.357270  1
  Si  Si360  1  0.941749  0.736115  0.485291  1
  Si  Si361  1  0.941641  0.736009  0.356998  1
  Si  Si362  1  0.716648  0.736097  0.485025  1
  Si  Si363  1  0.918468  0.777152  0.431182  1
  Si  Si364  1  0.540785  0.777555  0.431336  1
  Si  Si365  1  0.203466  0.828908  0.431221  1
  Si  Si366  1  0.123659  0.768855  0.356075  1
  Si  Si367  1  0.892038  0.666828  0.427487  1
  Si  Si368  1  0.666617  0.666698  0.427448  1
  Si  Si369  1  0.666692  0.872322  0.420763  1
  Si  Si370  1  0.949562  0.930513  0.420616  1
  Si  Si371  1  0.325389  0.930586  0.420756  1
  Si  Si372  1  0.126042  0.889295  0.398755  1
  Si  Si373  1  0.072935  0.837786  0.478362  1
  Si  Si374  1  0.463343  0.837796  0.478745  1
  Si  Si375  1  0.913404  0.898071  0.471680  1
  Si  Si376  1  0.543071  0.897700  0.471487  1
  Si  Si377  1  0.000000  -0.000000  0.427591  1
  Si  Si378  1  0.225715  -0.000000  0.427726  1
  H  H379  1  0.371579  0.080107  0.165889  1
  H  H380  1  0.072012  0.080084  0.166048  1
  H  H381  1  0.851287  0.166659  0.157626  1
  H  H382  1  0.961270  0.253423  0.149944  1
  H  H383  1  0.260755  0.253087  0.149600  1
  H  H384  1  0.482366  0.166677  0.157952  1
  H  H385  1  0.704832  0.413506  0.166114  1
  H  H386  1  0.404772  0.413172  0.166002  1
  H  H387  1  0.186406  0.499995  0.157581  1
  H  H388  1  0.294457  0.586785  0.149876  1
  H  H389  1  0.594241  0.586424  0.149720  1
  H  H390  1  0.814393  0.500030  0.157635  1
  H  H391  1  0.038249  0.746875  0.166099  1
  H  H392  1  0.738083  0.746660  0.165742  1
  H  H393  1  0.147294  0.833327  0.157849  1
  H  H394  1  0.520025  0.833323  0.158256  1
  H  H395  1  0.628236  0.919916  0.149409  1
  H  H396  1  0.928940  0.920158  0.149906  1
  H  H397  1  0.371579  0.080107  0.551548  1
  H  H398  1  0.072012  0.080084  0.551706  1
  H  H399  1  0.851287  0.166659  0.543285  1
  H  H400  1  0.961270  0.253423  0.535603  1
  H  H401  1  0.260755  0.253087  0.535258  1
  H  H402  1  0.482366  0.166677  0.543611  1
  H  H403  1  0.704832  0.413506  0.551773  1
  H  H404  1  0.404772  0.413172  0.551661  1
  H  H405  1  0.186406  0.499995  0.543240  1
  H  H406  1  0.294457  0.586785  0.535535  1
  H  H407  1  0.594241  0.586424  0.535378  1
  H  H408  1  0.814393  0.500030  0.543294  1
  H  H409  1  0.038249  0.746875  0.551758  1
  H  H410  1  0.738083  0.746660  0.551401  1
  H  H411  1  0.147294  0.833327  0.543507  1
  H  H412  1  0.520025  0.833323  0.543914  1
  H  H413  1  0.628236  0.919916  0.535068  1
  H  H414  1  0.928940  0.920158  0.535565  1
