# generated using pymatgen
data_Si34H6O71
_symmetry_space_group_name_H-M   'P 1'
_cell_length_a   13.68856018
_cell_length_b   13.69754544
_cell_length_c   44.18481400
_cell_angle_alpha   90.00000000
_cell_angle_beta   90.00000000
_cell_angle_gamma   120.00000000
_symmetry_Int_Tables_number   1
_chemical_formula_structural   Si34H6O71
_chemical_formula_sum   'Si68 H12 O142'
_cell_volume   7174.7072007
_cell_formula_units_Z   2
loop_
 _symmetry_equiv_pos_site_id
 _symmetry_equiv_pos_as_xyz
  1  'x, y, z'
loop_
 _atom_site_type_symbol
 _atom_site_label
 _atom_site_symmetry_multiplicity
 _atom_site_fract_x
 _atom_site_fract_y
 _atom_site_fract_z
 _atom_site_occupancy
  O  O1  1  0.094984  0.390485  0.184260  1
  O  O2  1  0.281748  0.392808  0.185273  1
  O  O3  1  0.166341  0.351903  0.233748  1
  O  O4  1  0.199918  0.198616  0.255932  1
  O  O5  1  0.296212  0.905566  0.187553  1
  O  O6  1  0.120580  0.714952  0.182703  1
  O  O7  1  0.154786  0.827264  0.231414  1
  O  O8  1  0.275900  0.740019  0.218249  1
  O  O9  1  0.264353  0.549203  0.210029  1
  O  O10  1  0.003724  0.638743  0.133762  1
  O  O11  1  -0.000000  0.505635  0.173904  1
  O  O12  1  0.167627  0.996041  0.259340  1
  O  O13  1  0.329269  0.648743  0.259855  1
  O  O14  1  0.387951  0.284499  0.189559  1
  O  O15  1  0.418681  0.117391  0.183705  1
  O  O16  1  0.345277  0.152024  0.233967  1
  O  O17  1  0.549305  0.282421  0.216613  1
  O  O18  1  0.368606  0.358041  0.137874  1
  O  O19  1  0.493774  0.493738  0.178178  1
  O  O20  1  0.642150  0.005231  0.135489  1
  O  O21  1  0.608618  0.702053  0.190832  1
  O  O22  1  0.608508  0.886280  0.183836  1
  O  O23  1  0.374122  0.996357  0.135076  1
  O  O24  1  0.657909  0.838334  0.235231  1
  O  O25  1  0.456175  0.729285  0.214372  1
  O  O26  1  0.616941  0.629007  0.137500  1
  O  O27  1  0.503442  0.992486  0.175168  1
  O  O28  1  0.711508  0.100515  0.187044  1
  O  O29  1  0.881688  0.295694  0.183237  1
  O  O30  1  0.849148  0.174474  0.230799  1
  O  O31  1  0.723357  0.259114  0.219084  1
  O  O32  1  0.747080  0.456211  0.213208  1
  O  O33  1  0.996228  0.373791  0.133530  1
  O  O34  1  0.905902  0.619396  0.185075  1
  O  O35  1  0.706678  0.588577  0.183454  1
  O  O36  1  0.823011  0.657928  0.232274  1
  O  O37  1  0.814774  0.816073  0.259846  1
  O  O38  1  0.100651  0.394316  0.334447  1
  O  O39  1  0.285312  0.393986  0.340862  1
  O  O40  1  0.094984  0.390485  0.435397  1
  O  O41  1  0.281748  0.392808  0.436409  1
  O  O42  1  0.184438  0.340875  0.290007  1
  O  O43  1  0.166341  0.351903  0.484885  1
  O  O44  1  0.009531  0.188412  0.263061  1
  O  O45  1  0.199918  0.198616  0.507068  1
  O  O46  1  0.322643  0.155572  0.290316  1
  O  O47  1  0.304451  0.891084  0.335316  1
  O  O48  1  0.110957  0.719143  0.335007  1
  O  O49  1  0.296212  0.905566  0.438690  1
  O  O50  1  0.120580  0.714952  0.433840  1
  O  O51  1  0.179807  0.842077  0.287883  1
  O  O52  1  0.154786  0.827264  0.482550  1
  O  O53  1  0.265948  0.722333  0.303447  1
  O  O54  1  0.278961  0.543923  0.309508  1
  O  O55  1  0.275900  0.740019  0.469385  1
  O  O56  1  0.264353  0.549203  0.461166  1
  O  O57  1  0.003724  0.638743  0.384899  1
  O  O58  1  -0.000000  0.505635  0.425041  1
  O  O59  1  0.167627  0.996041  0.510476  1
  O  O60  1  0.329269  0.648743  0.510992  1
  O  O61  1  0.004865  0.509510  0.344492  1
  O  O62  1  0.386167  0.280467  0.337280  1
  O  O63  1  0.401088  0.104713  0.336447  1
  O  O64  1  0.387951  0.284499  0.440696  1
  O  O65  1  0.418681  0.117391  0.434842  1
  O  O66  1  0.345277  0.152024  0.485103  1
  O  O67  1  0.531348  0.271653  0.303920  1
  O  O68  1  0.549305  0.282421  0.467749  1
  O  O69  1  0.368606  0.358041  0.389011  1
  O  O70  1  0.496408  0.489137  0.348521  1
  O  O71  1  0.493774  0.493738  0.429315  1
  O  O72  1  0.512104  0.006917  0.346660  1
  O  O73  1  0.642150  0.005231  0.386626  1
  O  O74  1  0.586672  0.696399  0.336762  1
  O  O75  1  0.602218  0.887643  0.338315  1
  O  O76  1  0.608618  0.702053  0.441968  1
  O  O77  1  0.608508  0.886280  0.434973  1
  O  O78  1  0.374122  0.996357  0.386212  1
  O  O79  1  0.657909  0.838334  0.486368  1
  O  O80  1  0.459119  0.736091  0.304225  1
  O  O81  1  0.456175  0.729285  0.465509  1
  O  O82  1  0.616941  0.629007  0.388636  1
  O  O83  1  0.503442  0.992486  0.426304  1
  O  O84  1  0.720084  0.102141  0.334646  1
  O  O85  1  0.887225  0.300472  0.335264  1
  O  O86  1  0.711508  0.100515  0.438180  1
  O  O87  1  0.881688  0.295694  0.434373  1
  O  O88  1  0.837779  0.183774  0.286926  1
  O  O89  1  0.849148  0.174474  0.481936  1
  O  O90  1  0.711635  0.259251  0.306840  1
  O  O91  1  0.722162  0.451326  0.312002  1
  O  O92  1  0.723357  0.259114  0.470221  1
  O  O93  1  0.747080  0.456211  0.464345  1
  O  O94  1  0.996228  0.373791  0.384667  1
  O  O95  1  0.676768  0.350478  0.262130  1
  O  O96  1  0.817726  0.005018  0.262895  1
  O  O97  1  0.896972  0.612880  0.334885  1
  O  O98  1  0.707320  0.603440  0.340227  1
  O  O99  1  0.905902  0.619396  0.436212  1
  O  O100  1  0.706678  0.588577  0.434590  1
  O  O101  1  0.806366  0.649848  0.288956  1
  O  O102  1  0.823011  0.657928  0.483411  1
  O  O103  1  0.814774  0.816073  0.510982  1
  O  O104  1  0.990381  0.797019  0.264628  1
  O  O105  1  0.669404  0.830995  0.291570  1
  O  O106  1  0.100651  0.394316  0.585583  1
  O  O107  1  0.285312  0.393986  0.591999  1
  O  O108  1  0.184438  0.340875  0.541144  1
  O  O109  1  0.009531  0.188412  0.514198  1
  O  O110  1  0.322643  0.155572  0.541453  1
  O  O111  1  0.304451  0.891084  0.586453  1
  O  O112  1  0.110957  0.719143  0.586144  1
  O  O113  1  0.179807  0.842077  0.539019  1
  O  O114  1  0.265948  0.722333  0.554584  1
  O  O115  1  0.278961  0.543923  0.560645  1
  O  O116  1  0.003724  0.638743  0.636036  1
  O  O117  1  0.004865  0.509510  0.595629  1
  O  O118  1  0.386167  0.280467  0.588417  1
  O  O119  1  0.401088  0.104713  0.587584  1
  O  O120  1  0.531348  0.271653  0.555057  1
  O  O121  1  0.368606  0.358041  0.640148  1
  O  O122  1  0.496408  0.489137  0.599658  1
  O  O123  1  0.512104  0.006917  0.597797  1
  O  O124  1  0.642150  0.005231  0.637762  1
  O  O125  1  0.586672  0.696399  0.587899  1
  O  O126  1  0.602218  0.887643  0.589452  1
  O  O127  1  0.374122  0.996357  0.637349  1
  O  O128  1  0.459119  0.736091  0.555362  1
  O  O129  1  0.616941  0.629007  0.639773  1
  O  O130  1  0.720084  0.102141  0.585783  1
  O  O131  1  0.887225  0.300472  0.586401  1
  O  O132  1  0.837779  0.183774  0.538062  1
  O  O133  1  0.711635  0.259251  0.557977  1
  O  O134  1  0.722162  0.451326  0.563139  1
  O  O135  1  0.996228  0.373791  0.635803  1
  O  O136  1  0.676768  0.350478  0.513267  1
  O  O137  1  0.817726  0.005018  0.514031  1
  O  O138  1  0.896972  0.612880  0.586022  1
  O  O139  1  0.707320  0.603440  0.591363  1
  O  O140  1  0.806366  0.649848  0.540093  1
  O  O141  1  0.990381  0.797019  0.515765  1
  O  O142  1  0.669404  0.830995  0.542707  1
  Si  Si143  1  0.201209  0.419921  0.203593  1
  Si  Si144  1  0.139765  0.268746  0.260662  1
  Si  Si145  1  0.257036  0.125175  0.259749  1
  Si  Si146  1  0.121139  0.865673  0.260884  1
  Si  Si147  1  0.211857  0.797991  0.205245  1
  Si  Si148  1  0.007856  0.621855  0.168636  1
  Si  Si149  1  0.331577  0.667391  0.225177  1
  Si  Si150  1  0.396075  0.002830  0.170058  1
  Si  Si151  1  0.381269  0.380590  0.172722  1
  Si  Si152  1  0.424591  0.207953  0.206210  1
  Si  Si153  1  0.607755  0.605011  0.172343  1
  Si  Si154  1  0.583877  0.789050  0.206421  1
  Si  Si155  1  0.618061  0.995849  0.170275  1
  Si  Si156  1  0.792420  0.207522  0.205311  1
  Si  Si157  1  0.878913  0.136179  0.260971  1
  Si  Si158  1  0.992687  0.389262  0.168505  1
  Si  Si159  1  0.674090  0.336668  0.227256  1
  Si  Si160  1  0.796351  0.582003  0.203781  1
  Si  Si161  1  0.211198  0.417092  0.318463  1
  Si  Si162  1  0.201209  0.419921  0.454730  1
  Si  Si163  1  0.139765  0.268746  0.511799  1
  Si  Si164  1  0.257036  0.125175  0.510886  1
  Si  Si165  1  0.121139  0.865673  0.512021  1
  Si  Si166  1  0.215523  0.794931  0.315109  1
  Si  Si167  1  0.211857  0.797991  0.456382  1
  Si  Si168  1  0.003707  0.621640  0.349917  1
  Si  Si169  1  0.007856  0.621855  0.419773  1
  Si  Si170  1  0.331577  0.667391  0.476313  1
  Si  Si171  1  0.333311  0.662755  0.294766  1
  Si  Si172  1  0.396075  0.002830  0.421194  1
  Si  Si173  1  0.659925  0.332841  0.296817  1
  Si  Si174  1  0.381269  0.380590  0.423858  1
  Si  Si175  1  0.409354  0.202289  0.316703  1
  Si  Si176  1  0.424591  0.207953  0.457346  1
  Si  Si177  1  0.382133  0.378103  0.354065  1
  Si  Si178  1  0.621907  0.001046  0.351684  1
  Si  Si179  1  0.607755  0.605011  0.423480  1
  Si  Si180  1  0.580429  0.787599  0.317376  1
  Si  Si181  1  0.583877  0.789050  0.457558  1
  Si  Si182  1  0.618061  0.995849  0.421412  1
  Si  Si183  1  0.603766  0.606764  0.353713  1
  Si  Si184  1  0.395699  -0.000000  0.351331  1
  Si  Si185  1  0.789729  0.211096  0.315521  1
  Si  Si186  1  0.792420  0.207522  0.456447  1
  Si  Si187  1  0.878913  0.136179  0.512108  1
  Si  Si188  1  0.998126  0.393588  0.349786  1
  Si  Si189  1  0.992687  0.389262  0.419642  1
  Si  Si190  1  0.674090  0.336668  0.478393  1
  Si  Si191  1  0.859436  0.731286  0.261473  1
  Si  Si192  1  0.783897  0.580458  0.318709  1
  Si  Si193  1  0.796351  0.582003  0.454918  1
  Si  Si194  1  0.741832  0.874169  0.262270  1
  Si  Si195  1  0.211198  0.417092  0.569600  1
  Si  Si196  1  0.215523  0.794931  0.566245  1
  Si  Si197  1  0.003707  0.621640  0.601054  1
  Si  Si198  1  0.333311  0.662755  0.545902  1
  Si  Si199  1  0.659925  0.332841  0.547954  1
  Si  Si200  1  0.409354  0.202289  0.567840  1
  Si  Si201  1  0.382133  0.378103  0.605202  1
  Si  Si202  1  0.621907  0.001046  0.602821  1
  Si  Si203  1  0.580429  0.787599  0.568513  1
  Si  Si204  1  0.603766  0.606764  0.604849  1
  Si  Si205  1  0.395699  -0.000000  0.602468  1
  Si  Si206  1  0.789729  0.211096  0.566658  1
  Si  Si207  1  0.998126  0.393588  0.600923  1
  Si  Si208  1  0.859436  0.731286  0.512610  1
  Si  Si209  1  0.783897  0.580458  0.569846  1
  Si  Si210  1  0.741832  0.874169  0.513407  1
  H  H211  1  0.003724  0.638743  0.113393  1
  H  H212  1  0.368606  0.358041  0.117505  1
  H  H213  1  0.642150  0.005231  0.115120  1
  H  H214  1  0.374122  0.996357  0.114707  1
  H  H215  1  0.616941  0.629007  0.117131  1
  H  H216  1  0.996228  0.373791  0.113161  1
  H  H217  1  0.003724  0.638743  0.656405  1
  H  H218  1  0.368606  0.358041  0.660517  1
  H  H219  1  0.642150  0.005231  0.658131  1
  H  H220  1  0.374122  0.996357  0.657718  1
  H  H221  1  0.616941  0.629007  0.660142  1
  H  H222  1  0.996228  0.373791  0.656172  1
