# generated using pymatgen
data_Si7H2O15
_symmetry_space_group_name_H-M   'P 1'
_cell_length_a   13.80613488
_cell_length_b   20.14838188
_cell_length_c   35.54680224
_cell_angle_alpha   90.00000000
_cell_angle_beta   90.00000000
_cell_angle_gamma   90.00000000
_symmetry_Int_Tables_number   1
_chemical_formula_structural   Si7H2O15
_chemical_formula_sum   'Si56 H16 O120'
_cell_volume   9888.09940298
_cell_formula_units_Z   8
loop_
 _symmetry_equiv_pos_site_id
 _symmetry_equiv_pos_as_xyz
  1  'x, y, z'
loop_
 _atom_site_type_symbol
 _atom_site_label
 _atom_site_symmetry_multiplicity
 _atom_site_fract_x
 _atom_site_fract_y
 _atom_site_fract_z
 _atom_site_occupancy
  O  O1  1  0.843775  0.913027  0.479159  1
  O  O2  1  0.155483  0.913392  0.478930  1
  O  O3  1  0.843780  0.913303  0.552702  1
  O  O4  1  0.156296  0.913154  0.552517  1
  O  O5  1  0.836562  0.703425  0.479841  1
  O  O6  1  0.163363  0.703387  0.479800  1
  O  O7  1  0.836460  0.703367  0.552125  1
  O  O8  1  0.163481  0.703549  0.552077  1
  O  O9  1  0.875227  0.807735  0.516022  1
  O  O10  1  0.124676  0.807805  0.515792  1
  O  O11  1  -0.000000  0.896438  0.515939  1
  O  O12  1  0.000000  0.717546  0.515989  1
  O  O13  1  0.655353  0.086502  0.478835  1
  O  O14  1  0.343349  0.086781  0.479437  1
  O  O15  1  0.663366  0.296536  0.479727  1
  O  O16  1  0.336484  0.296292  0.479770  1
  O  O17  1  0.759724  0.627494  0.426874  1
  O  O18  1  0.240267  0.627517  0.426840  1
  O  O19  1  0.259281  0.627529  0.291999  1
  O  O20  1  0.740769  0.627540  0.292050  1
  O  O21  1  0.600006  0.575846  0.399874  1
  O  O22  1  0.399978  0.575843  0.399869  1
  O  O23  1  0.099939  0.574822  0.319070  1
  O  O24  1  0.900091  0.574799  0.319082  1
  O  O25  1  0.750052  0.586759  0.359468  1
  O  O26  1  0.249978  0.586772  0.359440  1
  O  O27  1  0.749987  0.500010  0.308789  1
  O  O28  1  0.750571  0.000000  0.277283  1
  O  O29  1  0.907749  0.951663  0.415834  1
  O  O30  1  0.093295  0.952537  0.415245  1
  O  O31  1  0.407918  0.951228  0.302756  1
  O  O32  1  0.593314  0.952426  0.303771  1
  O  O33  1  0.757620  0.881013  0.418631  1
  O  O34  1  0.242370  0.881024  0.418667  1
  O  O35  1  0.257656  0.880970  0.300109  1
  O  O36  1  0.742317  0.881010  0.300275  1
  O  O37  1  0.598888  0.823057  0.398433  1
  O  O38  1  0.401074  0.823118  0.398428  1
  O  O39  1  0.098992  0.823253  0.320351  1
  O  O40  1  0.901062  0.823317  0.320393  1
  O  O41  1  0.750034  0.811312  0.359451  1
  O  O42  1  0.250011  0.811493  0.359421  1
  O  O43  1  0.745655  0.754500  0.422900  1
  O  O44  1  0.254305  0.754531  0.422852  1
  O  O45  1  0.245702  0.754472  0.296024  1
  O  O46  1  0.754368  0.754523  0.295982  1
  O  O47  1  0.907356  0.699592  0.416122  1
  O  O48  1  0.092630  0.699608  0.416092  1
  O  O49  1  0.407335  0.699387  0.302680  1
  O  O50  1  0.592764  0.699446  0.302765  1
  O  O51  1  0.000000  0.750502  0.362661  1
  O  O52  1  0.499898  0.749689  0.356339  1
  O  O53  1  -0.000000  0.624666  0.371160  1
  O  O54  1  0.499989  0.623506  0.347134  1
  O  O55  1  0.000000  0.500635  0.360398  1
  O  O56  1  0.000000  0.875785  0.372426  1
  O  O57  1  0.500080  0.875194  0.346288  1
  O  O58  1  0.249998  0.500005  0.308790  1
  O  O59  1  0.496845  -0.000000  0.359699  1
  O  O60  1  0.249980  0.500008  0.410125  1
  O  O61  1  0.250579  -0.000000  0.441666  1
  O  O62  1  0.997818  0.000000  0.359122  1
  O  O63  1  0.750400  0.000000  0.441626  1
  O  O64  1  0.499992  0.499103  0.360500  1
  O  O65  1  0.240687  0.372455  0.292062  1
  O  O66  1  0.759280  0.372466  0.292025  1
  O  O67  1  0.740250  0.372458  0.426804  1
  O  O68  1  0.259798  0.372482  0.426857  1
  O  O69  1  0.400060  0.425172  0.319060  1
  O  O70  1  0.599922  0.425172  0.319055  1
  O  O71  1  0.899990  0.424137  0.399884  1
  O  O72  1  0.100032  0.424112  0.399893  1
  O  O73  1  0.250046  0.413254  0.359466  1
  O  O74  1  0.749979  0.413256  0.359439  1
  O  O75  1  0.093172  0.047890  0.303461  1
  O  O76  1  0.907901  0.048789  0.302859  1
  O  O77  1  0.593292  0.047478  0.415126  1
  O  O78  1  0.407916  0.048707  0.416134  1
  O  O79  1  0.242375  0.118979  0.300070  1
  O  O80  1  0.757598  0.118971  0.300098  1
  O  O81  1  0.742420  0.118893  0.418639  1
  O  O82  1  0.257527  0.118958  0.418809  1
  O  O83  1  0.400993  0.176614  0.320302  1
  O  O84  1  0.598944  0.176659  0.320291  1
  O  O85  1  0.901091  0.176785  0.398454  1
  O  O86  1  0.098927  0.176863  0.398501  1
  O  O87  1  0.250018  0.188268  0.359440  1
  O  O88  1  0.749997  0.188423  0.359403  1
  O  O89  1  0.254305  0.245478  0.296085  1
  O  O90  1  0.745632  0.245496  0.296037  1
  O  O91  1  0.754340  0.245418  0.422808  1
  O  O92  1  0.245687  0.245487  0.422776  1
  O  O93  1  0.092685  0.300499  0.302773  1
  O  O94  1  0.907276  0.300514  0.302739  1
  O  O95  1  0.592656  0.300286  0.416021  1
  O  O96  1  0.407406  0.300335  0.416092  1
  O  O97  1  -0.000000  0.249881  0.356252  1
  O  O98  1  0.499910  0.249058  0.362730  1
  O  O99  1  -0.000000  0.376164  0.347250  1
  O  O100  1  0.499986  0.374993  0.371028  1
  O  O101  1  0.000000  0.124231  0.346581  1
  O  O102  1  0.500069  0.123633  0.372101  1
  O  O103  1  0.250455  0.000000  0.277231  1
  O  O104  1  0.749989  0.499993  0.410126  1
  O  O105  1  0.343274  0.913056  0.239446  1
  O  O106  1  0.655443  0.913338  0.240048  1
  O  O107  1  0.336395  0.703509  0.239026  1
  O  O108  1  0.663445  0.703245  0.239067  1
  O  O109  1  0.155835  0.086443  0.239752  1
  O  O110  1  0.843403  0.086788  0.239517  1
  O  O111  1  0.155857  0.086764  0.166167  1
  O  O112  1  0.844216  0.086610  0.165978  1
  O  O113  1  0.163505  0.296523  0.239125  1
  O  O114  1  0.836388  0.296459  0.239082  1
  O  O115  1  0.163402  0.296419  0.166887  1
  O  O116  1  0.836515  0.296573  0.166837  1
  O  O117  1  0.124668  0.192094  0.203066  1
  O  O118  1  0.875206  0.192168  0.202839  1
  O  O119  1  0.000000  0.103458  0.202965  1
  O  O120  1  0.000000  0.282378  0.203013  1
  Si  Si121  1  0.112376  0.730945  0.515934  1
  Si  Si122  1  0.887544  0.730877  0.515999  1
  Si  Si123  1  0.111559  0.884430  0.515766  1
  Si  Si124  1  0.888260  0.884359  0.515964  1
  Si  Si125  1  0.499984  0.818645  0.376480  1
  Si  Si126  1  -0.000000  0.819183  0.342292  1
  Si  Si127  1  0.499760  0.945703  0.328107  1
  Si  Si128  1  0.714722  0.572532  0.400798  1
  Si  Si129  1  0.285260  0.572537  0.400776  1
  Si  Si130  1  0.214638  0.572471  0.318118  1
  Si  Si131  1  0.785392  0.572455  0.318146  1
  Si  Si132  1  0.814529  0.936913  0.439130  1
  Si  Si133  1  0.185673  0.937208  0.438989  1
  Si  Si134  1  0.314443  0.936845  0.279551  1
  Si  Si135  1  0.685646  0.937211  0.279974  1
  Si  Si136  1  0.712765  0.817663  0.400753  1
  Si  Si137  1  0.287195  0.817730  0.400738  1
  Si  Si138  1  0.212862  0.817712  0.318098  1
  Si  Si139  1  0.787205  0.817691  0.318138  1
  Si  Si140  1  0.808976  0.695238  0.437370  1
  Si  Si141  1  0.191016  0.695260  0.437331  1
  Si  Si142  1  0.308848  0.695181  0.281493  1
  Si  Si143  1  0.691185  0.695170  0.281535  1
  Si  Si144  1  0.000000  0.692841  0.391721  1
  Si  Si145  1  0.499981  0.692284  0.327051  1
  Si  Si146  1  0.000000  0.569280  0.340354  1
  Si  Si147  1  0.499997  0.569350  0.378706  1
  Si  Si148  1  -0.000000  0.946183  0.390715  1
  Si  Si149  1  0.499748  0.053598  0.390757  1
  Si  Si150  1  0.499975  0.180548  0.342200  1
  Si  Si151  1  0.000000  0.181083  0.376544  1
  Si  Si152  1  0.285358  0.427550  0.318141  1
  Si  Si153  1  0.714621  0.427548  0.318119  1
  Si  Si154  1  0.785272  0.427468  0.400775  1
  Si  Si155  1  0.214749  0.427461  0.400801  1
  Si  Si156  1  0.185722  0.062783  0.279761  1
  Si  Si157  1  0.814489  0.063066  0.279617  1
  Si  Si158  1  0.685613  0.062707  0.438906  1
  Si  Si159  1  0.314451  0.063090  0.439325  1
  Si  Si160  1  0.287127  0.182181  0.318106  1
  Si  Si161  1  0.712808  0.182228  0.318084  1
  Si  Si162  1  0.787217  0.182198  0.400716  1
  Si  Si163  1  0.212812  0.182197  0.400761  1
  Si  Si164  1  0.191152  0.304787  0.281583  1
  Si  Si165  1  0.808812  0.304795  0.281542  1
  Si  Si166  1  0.691029  0.304693  0.437264  1
  Si  Si167  1  0.308990  0.304692  0.437309  1
  Si  Si168  1  -0.000000  0.307470  0.327097  1
  Si  Si169  1  0.499973  0.306900  0.391657  1
  Si  Si170  1  -0.000000  0.430483  0.378718  1
  Si  Si171  1  0.499995  0.430561  0.340340  1
  Si  Si172  1  -0.000000  0.054067  0.328050  1
  Si  Si173  1  0.112367  0.268961  0.203027  1
  Si  Si174  1  0.887535  0.269023  0.202960  1
  Si  Si175  1  0.111547  0.115470  0.202996  1
  Si  Si176  1  0.888254  0.115539  0.202797  1
  H  H177  1  0.843780  0.913303  0.578021  1
  H  H178  1  0.156296  0.913154  0.577836  1
  H  H179  1  0.836460  0.703367  0.577443  1
  H  H180  1  0.163481  0.703549  0.577396  1
  H  H181  1  0.655353  0.086502  0.504154  1
  H  H182  1  0.343349  0.086781  0.504756  1
  H  H183  1  0.663366  0.296536  0.505045  1
  H  H184  1  0.336484  0.296292  0.505089  1
  H  H185  1  0.343274  0.913056  0.214127  1
  H  H186  1  0.655443  0.913338  0.214729  1
  H  H187  1  0.336395  0.703509  0.213707  1
  H  H188  1  0.663445  0.703245  0.213749  1
  H  H189  1  0.155857  0.086764  0.140848  1
  H  H190  1  0.844216  0.086610  0.140660  1
  H  H191  1  0.163402  0.296419  0.141568  1
  H  H192  1  0.836515  0.296573  0.141518  1
