# generated using pymatgen
data_Si18H2O37
_symmetry_space_group_name_H-M   'P 1'
_cell_length_a   9.74992048
_cell_length_b   25.86680922
_cell_length_c   62.83548935
_cell_angle_alpha   118.34243522
_cell_angle_beta   90.00000000
_cell_angle_gamma   90.00000000
_symmetry_Int_Tables_number   1
_chemical_formula_structural   Si18H2O37
_chemical_formula_sum   'Si144 H16 O296'
_cell_volume   13947.4167899
_cell_formula_units_Z   8
loop_
 _symmetry_equiv_pos_site_id
 _symmetry_equiv_pos_as_xyz
  1  'x, y, z'
loop_
 _atom_site_type_symbol
 _atom_site_label
 _atom_site_symmetry_multiplicity
 _atom_site_fract_x
 _atom_site_fract_y
 _atom_site_fract_z
 _atom_site_occupancy
  O  O1  1  0.344696  0.527575  0.109643  1
  O  O2  1  0.155090  0.027575  0.109643  1
  O  O3  1  0.040928  0.190047  0.104734  1
  O  O4  1  0.458857  0.690048  0.104735  1
  O  O5  1  0.671056  0.148582  0.194347  1
  O  O6  1  0.828728  0.648582  0.194347  1
  O  O7  1  0.328728  0.851330  0.233970  1
  O  O8  1  0.171056  0.351330  0.233970  1
  O  O9  1  0.733860  0.075526  0.151747  1
  O  O10  1  0.765924  0.575526  0.151747  1
  O  O11  1  0.733860  0.075525  0.208391  1
  O  O12  1  0.765923  0.575525  0.208391  1
  O  O13  1  0.265924  0.924386  0.276569  1
  O  O14  1  0.233859  0.424386  0.276569  1
  O  O15  1  0.265924  0.924387  0.219926  1
  O  O16  1  0.233860  0.424387  0.219926  1
  O  O17  1  0.494461  0.131978  0.162555  1
  O  O18  1  0.005325  0.631979  0.162555  1
  O  O19  1  0.494460  0.131977  0.219649  1
  O  O20  1  0.005324  0.631977  0.219649  1
  O  O21  1  0.505324  0.867933  0.265762  1
  O  O22  1  0.994460  0.367933  0.265762  1
  O  O23  1  0.505324  0.867935  0.208668  1
  O  O24  1  0.994462  0.367936  0.208668  1
  O  O25  1  0.721126  0.185116  0.163862  1
  O  O26  1  0.778659  0.685116  0.163862  1
  O  O27  1  0.721125  0.185114  0.239112  1
  O  O28  1  0.778659  0.685115  0.239112  1
  O  O29  1  0.278658  0.814796  0.264455  1
  O  O30  1  0.221125  0.314797  0.264455  1
  O  O31  1  0.278659  0.814797  0.189205  1
  O  O32  1  0.221125  0.314797  0.189205  1
  O  O33  1  0.371780  0.478596  0.258842  1
  O  O34  1  0.128005  0.978596  0.258842  1
  O  O35  1  0.628004  0.521316  0.169475  1
  O  O36  1  0.871780  0.021316  0.169475  1
  O  O37  1  0.344698  0.527577  0.231755  1
  O  O38  1  0.155086  0.027577  0.231755  1
  O  O39  1  0.344696  0.527575  0.305074  1
  O  O40  1  0.155090  0.027575  0.305074  1
  O  O41  1  0.655087  0.472336  0.196562  1
  O  O42  1  0.844697  0.972336  0.196562  1
  O  O43  1  0.655090  0.472337  0.123243  1
  O  O44  1  0.844695  0.972337  0.123243  1
  O  O45  1  0.491560  0.435755  0.217925  1
  O  O46  1  0.008225  0.935754  0.217925  1
  O  O47  1  0.491560  0.435754  0.283013  1
  O  O48  1  0.008225  0.935754  0.283013  1
  O  O49  1  0.508224  0.564158  0.210392  1
  O  O50  1  0.991562  0.064158  0.210392  1
  O  O51  1  0.508224  0.564158  0.145303  1
  O  O52  1  0.991559  0.064158  0.145303  1
  O  O53  1  0.058963  0.132879  0.254093  1
  O  O54  1  0.440822  0.632880  0.254093  1
  O  O55  1  0.058967  0.132877  0.128463  1
  O  O56  1  0.440819  0.632879  0.128463  1
  O  O57  1  0.940823  0.867033  0.174224  1
  O  O58  1  0.558963  0.367033  0.174224  1
  O  O59  1  0.940819  0.867034  0.299854  1
  O  O60  1  0.558965  0.367035  0.299855  1
  O  O61  1  0.235135  0.106794  0.220719  1
  O  O62  1  0.264649  0.606794  0.220719  1
  O  O63  1  0.235134  0.106794  0.151641  1
  O  O64  1  0.264648  0.606794  0.151641  1
  O  O65  1  0.764650  0.893119  0.207598  1
  O  O66  1  0.735133  0.393119  0.207598  1
  O  O67  1  0.764649  0.893119  0.276676  1
  O  O68  1  0.735135  0.393119  0.276676  1
  O  O69  1  0.816381  0.343961  0.232530  1
  O  O70  1  0.683404  0.843961  0.232530  1
  O  O71  1  0.183403  0.655951  0.195787  1
  O  O72  1  0.316381  0.155951  0.195787  1
  O  O73  1  0.818366  0.287481  0.256503  1
  O  O74  1  0.681420  0.787480  0.256503  1
  O  O75  1  0.818374  0.287482  0.186481  1
  O  O76  1  0.681415  0.787483  0.186481  1
  O  O77  1  0.181431  0.712430  0.171812  1
  O  O78  1  0.318365  0.212431  0.171813  1
  O  O79  1  0.181423  0.712427  0.241836  1
  O  O80  1  0.318361  0.212427  0.241836  1
  O  O81  1  0.040928  0.190047  0.300165  1
  O  O82  1  0.458857  0.690048  0.300166  1
  O  O83  1  0.958856  0.809865  0.128151  1
  O  O84  1  0.540928  0.309865  0.128151  1
  O  O85  1  0.653242  0.264176  0.281654  1
  O  O86  1  0.846543  0.764176  0.281653  1
  O  O87  1  0.653241  0.264174  0.152220  1
  O  O88  1  0.846543  0.764176  0.152221  1
  O  O89  1  0.346541  0.735731  0.146664  1
  O  O90  1  0.153245  0.235737  0.146663  1
  O  O91  1  0.346543  0.735732  0.276094  1
  O  O92  1  0.153242  0.235732  0.276094  1
  O  O93  1  0.896041  0.220063  0.273511  1
  O  O94  1  0.603743  0.720063  0.273511  1
  O  O95  1  0.896036  0.220062  0.143122  1
  O  O96  1  0.603743  0.720061  0.143121  1
  O  O97  1  0.103742  0.779850  0.154806  1
  O  O98  1  0.396037  0.279848  0.154806  1
  O  O99  1  0.103743  0.779852  0.285196  1
  O  O100  1  0.396042  0.279852  0.285196  1
  O  O101  1  0.671056  0.148582  0.389778  1
  O  O102  1  0.828728  0.648582  0.389778  1
  O  O103  1  0.328728  0.851330  0.429401  1
  O  O104  1  0.171056  0.351330  0.429401  1
  O  O105  1  0.733860  0.075526  0.347178  1
  O  O106  1  0.765924  0.575526  0.347178  1
  O  O107  1  0.733860  0.075525  0.403822  1
  O  O108  1  0.765923  0.575525  0.403822  1
  O  O109  1  0.265924  0.924386  0.472001  1
  O  O110  1  0.233859  0.424386  0.472001  1
  O  O111  1  0.265924  0.924387  0.415357  1
  O  O112  1  0.233860  0.424387  0.415357  1
  O  O113  1  0.494461  0.131978  0.357986  1
  O  O114  1  0.005325  0.631979  0.357986  1
  O  O115  1  0.494460  0.131977  0.415080  1
  O  O116  1  0.005324  0.631977  0.415080  1
  O  O117  1  0.505324  0.867933  0.461193  1
  O  O118  1  0.994460  0.367933  0.461193  1
  O  O119  1  0.505324  0.867935  0.404099  1
  O  O120  1  0.994462  0.367936  0.404099  1
  O  O121  1  0.721126  0.185116  0.359293  1
  O  O122  1  0.778659  0.685116  0.359293  1
  O  O123  1  0.721125  0.185114  0.434543  1
  O  O124  1  0.778659  0.685115  0.434543  1
  O  O125  1  0.278658  0.814796  0.459886  1
  O  O126  1  0.221125  0.314797  0.459886  1
  O  O127  1  0.278659  0.814797  0.384636  1
  O  O128  1  0.221125  0.314797  0.384636  1
  O  O129  1  0.371780  0.478596  0.454273  1
  O  O130  1  0.128005  0.978596  0.454273  1
  O  O131  1  0.628004  0.521316  0.364906  1
  O  O132  1  0.871780  0.021316  0.364906  1
  O  O133  1  0.344698  0.527577  0.427186  1
  O  O134  1  0.155086  0.027577  0.427186  1
  O  O135  1  0.344696  0.527575  0.500505  1
  O  O136  1  0.155090  0.027575  0.500505  1
  O  O137  1  0.655087  0.472336  0.391993  1
  O  O138  1  0.844697  0.972336  0.391993  1
  O  O139  1  0.655090  0.472337  0.318674  1
  O  O140  1  0.844695  0.972337  0.318674  1
  O  O141  1  0.491560  0.435755  0.413356  1
  O  O142  1  0.008225  0.935754  0.413356  1
  O  O143  1  0.491560  0.435754  0.478445  1
  O  O144  1  0.008225  0.935754  0.478445  1
  O  O145  1  0.508224  0.564158  0.405823  1
  O  O146  1  0.991562  0.064158  0.405823  1
  O  O147  1  0.508224  0.564158  0.340734  1
  O  O148  1  0.991559  0.064158  0.340734  1
  O  O149  1  0.058963  0.132879  0.449524  1
  O  O150  1  0.440822  0.632880  0.449524  1
  O  O151  1  0.058967  0.132877  0.323894  1
  O  O152  1  0.440819  0.632879  0.323894  1
  O  O153  1  0.940823  0.867033  0.369655  1
  O  O154  1  0.558963  0.367033  0.369655  1
  O  O155  1  0.940819  0.867034  0.495285  1
  O  O156  1  0.558965  0.367035  0.495286  1
  O  O157  1  0.235135  0.106794  0.416150  1
  O  O158  1  0.264649  0.606794  0.416150  1
  O  O159  1  0.235134  0.106794  0.347072  1
  O  O160  1  0.264648  0.606794  0.347072  1
  O  O161  1  0.764650  0.893119  0.403029  1
  O  O162  1  0.735133  0.393119  0.403029  1
  O  O163  1  0.764649  0.893119  0.472107  1
  O  O164  1  0.735135  0.393119  0.472107  1
  O  O165  1  0.816381  0.343961  0.427961  1
  O  O166  1  0.683404  0.843961  0.427961  1
  O  O167  1  0.183403  0.655951  0.391218  1
  O  O168  1  0.316381  0.155951  0.391219  1
  O  O169  1  0.818366  0.287481  0.451934  1
  O  O170  1  0.681420  0.787480  0.451934  1
  O  O171  1  0.818374  0.287482  0.381912  1
  O  O172  1  0.681415  0.787483  0.381912  1
  O  O173  1  0.181431  0.712430  0.367243  1
  O  O174  1  0.318365  0.212431  0.367245  1
  O  O175  1  0.181423  0.712427  0.437267  1
  O  O176  1  0.318361  0.212427  0.437268  1
  O  O177  1  0.040928  0.190047  0.495596  1
  O  O178  1  0.458857  0.690048  0.495597  1
  O  O179  1  0.958856  0.809865  0.323582  1
  O  O180  1  0.540928  0.309865  0.323582  1
  O  O181  1  0.653242  0.264176  0.477085  1
  O  O182  1  0.846543  0.764176  0.477085  1
  O  O183  1  0.653241  0.264174  0.347651  1
  O  O184  1  0.846543  0.764176  0.347652  1
  O  O185  1  0.346541  0.735731  0.342095  1
  O  O186  1  0.153245  0.235737  0.342095  1
  O  O187  1  0.346543  0.735732  0.471525  1
  O  O188  1  0.153242  0.235732  0.471525  1
  O  O189  1  0.896041  0.220063  0.468942  1
  O  O190  1  0.603743  0.720063  0.468942  1
  O  O191  1  0.896036  0.220062  0.338553  1
  O  O192  1  0.603743  0.720061  0.338552  1
  O  O193  1  0.103742  0.779850  0.350237  1
  O  O194  1  0.396037  0.279848  0.350237  1
  O  O195  1  0.103743  0.779852  0.480627  1
  O  O196  1  0.396042  0.279852  0.480627  1
  O  O197  1  0.671056  0.148582  0.585209  1
  O  O198  1  0.828728  0.648582  0.585209  1
  O  O199  1  0.328728  0.851330  0.624832  1
  O  O200  1  0.171056  0.351330  0.624832  1
  O  O201  1  0.733860  0.075526  0.542610  1
  O  O202  1  0.765924  0.575526  0.542610  1
  O  O203  1  0.733860  0.075525  0.599253  1
  O  O204  1  0.765923  0.575525  0.599253  1
  O  O205  1  0.265924  0.924386  0.667432  1
  O  O206  1  0.233859  0.424386  0.667432  1
  O  O207  1  0.265924  0.924387  0.610788  1
  O  O208  1  0.233860  0.424387  0.610788  1
  O  O209  1  0.494461  0.131978  0.553417  1
  O  O210  1  0.005325  0.631979  0.553417  1
  O  O211  1  0.494460  0.131977  0.610511  1
  O  O212  1  0.005324  0.631977  0.610511  1
  O  O213  1  0.505324  0.867933  0.656624  1
  O  O214  1  0.994460  0.367933  0.656624  1
  O  O215  1  0.505324  0.867935  0.599530  1
  O  O216  1  0.994462  0.367936  0.599530  1
  O  O217  1  0.721126  0.185116  0.554724  1
  O  O218  1  0.778659  0.685116  0.554724  1
  O  O219  1  0.721125  0.185114  0.629974  1
  O  O220  1  0.778659  0.685115  0.629974  1
  O  O221  1  0.278658  0.814796  0.655317  1
  O  O222  1  0.221125  0.314797  0.655317  1
  O  O223  1  0.278659  0.814797  0.580067  1
  O  O224  1  0.221125  0.314797  0.580067  1
  O  O225  1  0.371780  0.478596  0.649704  1
  O  O226  1  0.128005  0.978596  0.649704  1
  O  O227  1  0.628004  0.521316  0.560337  1
  O  O228  1  0.871780  0.021316  0.560337  1
  O  O229  1  0.344698  0.527577  0.622617  1
  O  O230  1  0.155086  0.027577  0.622617  1
  O  O231  1  0.344696  0.527575  0.695936  1
  O  O232  1  0.155090  0.027575  0.695936  1
  O  O233  1  0.655087  0.472336  0.587424  1
  O  O234  1  0.844697  0.972336  0.587425  1
  O  O235  1  0.655090  0.472337  0.514105  1
  O  O236  1  0.844695  0.972337  0.514105  1
  O  O237  1  0.491560  0.435755  0.608787  1
  O  O238  1  0.008225  0.935754  0.608787  1
  O  O239  1  0.491560  0.435754  0.673876  1
  O  O240  1  0.008225  0.935754  0.673876  1
  O  O241  1  0.508224  0.564158  0.601254  1
  O  O242  1  0.991562  0.064158  0.601254  1
  O  O243  1  0.508224  0.564158  0.536165  1
  O  O244  1  0.991559  0.064158  0.536165  1
  O  O245  1  0.058963  0.132879  0.644955  1
  O  O246  1  0.440822  0.632880  0.644955  1
  O  O247  1  0.058967  0.132877  0.519325  1
  O  O248  1  0.440819  0.632879  0.519325  1
  O  O249  1  0.940823  0.867033  0.565086  1
  O  O250  1  0.558963  0.367033  0.565086  1
  O  O251  1  0.940819  0.867034  0.690716  1
  O  O252  1  0.558965  0.367035  0.690717  1
  O  O253  1  0.235135  0.106794  0.611581  1
  O  O254  1  0.264649  0.606794  0.611581  1
  O  O255  1  0.235134  0.106794  0.542503  1
  O  O256  1  0.264648  0.606794  0.542503  1
  O  O257  1  0.764650  0.893119  0.598460  1
  O  O258  1  0.735133  0.393119  0.598460  1
  O  O259  1  0.764649  0.893119  0.667538  1
  O  O260  1  0.735135  0.393119  0.667538  1
  O  O261  1  0.816381  0.343961  0.623392  1
  O  O262  1  0.683404  0.843961  0.623392  1
  O  O263  1  0.183403  0.655951  0.586649  1
  O  O264  1  0.316381  0.155951  0.586650  1
  O  O265  1  0.818366  0.287481  0.647366  1
  O  O266  1  0.681420  0.787480  0.647365  1
  O  O267  1  0.818374  0.287482  0.577343  1
  O  O268  1  0.681415  0.787483  0.577343  1
  O  O269  1  0.181431  0.712430  0.562674  1
  O  O270  1  0.318365  0.212431  0.562676  1
  O  O271  1  0.181423  0.712427  0.632699  1
  O  O272  1  0.318361  0.212427  0.632699  1
  O  O273  1  0.040928  0.190047  0.691027  1
  O  O274  1  0.458857  0.690048  0.691028  1
  O  O275  1  0.958856  0.809865  0.519013  1
  O  O276  1  0.540928  0.309865  0.519013  1
  O  O277  1  0.653242  0.264176  0.672516  1
  O  O278  1  0.846543  0.764176  0.672516  1
  O  O279  1  0.653241  0.264174  0.543082  1
  O  O280  1  0.846543  0.764176  0.543083  1
  O  O281  1  0.346541  0.735731  0.537526  1
  O  O282  1  0.153245  0.235737  0.537526  1
  O  O283  1  0.346543  0.735732  0.666956  1
  O  O284  1  0.153242  0.235732  0.666956  1
  O  O285  1  0.896041  0.220063  0.664373  1
  O  O286  1  0.603743  0.720063  0.664373  1
  O  O287  1  0.896036  0.220062  0.533984  1
  O  O288  1  0.603743  0.720061  0.533984  1
  O  O289  1  0.103742  0.779850  0.545668  1
  O  O290  1  0.396037  0.279848  0.545668  1
  O  O291  1  0.103743  0.779852  0.676058  1
  O  O292  1  0.396042  0.279852  0.676058  1
  O  O293  1  0.655090  0.472337  0.709536  1
  O  O294  1  0.844695  0.972337  0.709537  1
  O  O295  1  0.958856  0.809865  0.714445  1
  O  O296  1  0.540928  0.309865  0.714444  1
  Si  Si297  1  0.653671  0.134764  0.167223  1
  Si  Si298  1  0.846115  0.634763  0.167223  1
  Si  Si299  1  0.653669  0.134762  0.216069  1
  Si  Si300  1  0.846115  0.634761  0.216069  1
  Si  Si301  1  0.346116  0.865150  0.261094  1
  Si  Si302  1  0.153668  0.365150  0.261094  1
  Si  Si303  1  0.346116  0.865151  0.212248  1
  Si  Si304  1  0.153672  0.365150  0.212247  1
  Si  Si305  1  0.358233  0.467576  0.232127  1
  Si  Si306  1  0.141553  0.967576  0.232126  1
  Si  Si307  1  0.358231  0.467575  0.281250  1
  Si  Si308  1  0.141554  0.967574  0.281250  1
  Si  Si309  1  0.641550  0.532337  0.196190  1
  Si  Si310  1  0.858233  0.032337  0.196190  1
  Si  Si311  1  0.641552  0.532338  0.147067  1
  Si  Si312  1  0.858233  0.032338  0.147067  1
  Si  Si313  1  0.111139  0.082805  0.229273  1
  Si  Si314  1  0.388644  0.582805  0.229273  1
  Si  Si315  1  0.111141  0.082804  0.133710  1
  Si  Si316  1  0.388643  0.582804  0.133710  1
  Si  Si317  1  0.888645  0.917108  0.199043  1
  Si  Si318  1  0.611138  0.417108  0.199044  1
  Si  Si319  1  0.888643  0.917108  0.294607  1
  Si  Si320  1  0.611141  0.417108  0.294607  1
  Si  Si321  1  0.840918  0.349200  0.208950  1
  Si  Si322  1  0.658865  0.849200  0.208950  1
  Si  Si323  1  0.840918  0.349199  0.258157  1
  Si  Si324  1  0.658866  0.849200  0.258157  1
  Si  Si325  1  0.158866  0.650713  0.219367  1
  Si  Si326  1  0.340919  0.150713  0.219367  1
  Si  Si327  1  0.158867  0.650714  0.170160  1
  Si  Si328  1  0.340917  0.150713  0.170160  1
  Si  Si329  1  0.036199  0.194799  0.130370  1
  Si  Si330  1  0.463581  0.694799  0.130370  1
  Si  Si331  1  0.036203  0.194801  0.276388  1
  Si  Si332  1  0.463582  0.694800  0.276388  1
  Si  Si333  1  0.963584  0.805114  0.297947  1
  Si  Si334  1  0.536202  0.305113  0.297947  1
  Si  Si335  1  0.963584  0.805113  0.151929  1
  Si  Si336  1  0.536198  0.305112  0.151929  1
  Si  Si337  1  0.772239  0.238550  0.262845  1
  Si  Si338  1  0.727546  0.738550  0.262845  1
  Si  Si339  1  0.772240  0.238550  0.161014  1
  Si  Si340  1  0.727545  0.738550  0.161013  1
  Si  Si341  1  0.227545  0.761363  0.165471  1
  Si  Si342  1  0.272239  0.261362  0.165472  1
  Si  Si343  1  0.227542  0.761363  0.267304  1
  Si  Si344  1  0.272242  0.261363  0.267304  1
  Si  Si345  1  0.653671  0.134764  0.362654  1
  Si  Si346  1  0.846115  0.634763  0.362654  1
  Si  Si347  1  0.653669  0.134762  0.411501  1
  Si  Si348  1  0.846115  0.634761  0.411500  1
  Si  Si349  1  0.346116  0.865150  0.456525  1
  Si  Si350  1  0.153668  0.365150  0.456525  1
  Si  Si351  1  0.346116  0.865151  0.407679  1
  Si  Si352  1  0.153672  0.365150  0.407678  1
  Si  Si353  1  0.358233  0.467576  0.427558  1
  Si  Si354  1  0.141553  0.967576  0.427558  1
  Si  Si355  1  0.358231  0.467575  0.476681  1
  Si  Si356  1  0.141554  0.967574  0.476681  1
  Si  Si357  1  0.641550  0.532337  0.391621  1
  Si  Si358  1  0.858233  0.032337  0.391621  1
  Si  Si359  1  0.641552  0.532338  0.342498  1
  Si  Si360  1  0.858233  0.032338  0.342499  1
  Si  Si361  1  0.111139  0.082805  0.424705  1
  Si  Si362  1  0.388644  0.582805  0.424705  1
  Si  Si363  1  0.111141  0.082804  0.329141  1
  Si  Si364  1  0.388643  0.582804  0.329141  1
  Si  Si365  1  0.888645  0.917108  0.394474  1
  Si  Si366  1  0.611138  0.417108  0.394475  1
  Si  Si367  1  0.888643  0.917108  0.490038  1
  Si  Si368  1  0.611141  0.417108  0.490038  1
  Si  Si369  1  0.840918  0.349200  0.404382  1
  Si  Si370  1  0.658865  0.849200  0.404382  1
  Si  Si371  1  0.840918  0.349199  0.453588  1
  Si  Si372  1  0.658866  0.849200  0.453588  1
  Si  Si373  1  0.158866  0.650713  0.414798  1
  Si  Si374  1  0.340919  0.150713  0.414798  1
  Si  Si375  1  0.158867  0.650714  0.365591  1
  Si  Si376  1  0.340917  0.150713  0.365592  1
  Si  Si377  1  0.036199  0.194799  0.325801  1
  Si  Si378  1  0.463581  0.694799  0.325801  1
  Si  Si379  1  0.036203  0.194801  0.471819  1
  Si  Si380  1  0.463582  0.694800  0.471819  1
  Si  Si381  1  0.963584  0.805114  0.493378  1
  Si  Si382  1  0.536202  0.305113  0.493378  1
  Si  Si383  1  0.963584  0.805113  0.347360  1
  Si  Si384  1  0.536198  0.305112  0.347360  1
  Si  Si385  1  0.772239  0.238550  0.458277  1
  Si  Si386  1  0.727546  0.738550  0.458277  1
  Si  Si387  1  0.772240  0.238550  0.356445  1
  Si  Si388  1  0.727545  0.738550  0.356444  1
  Si  Si389  1  0.227545  0.761363  0.360903  1
  Si  Si390  1  0.272239  0.261362  0.360903  1
  Si  Si391  1  0.227542  0.761363  0.462735  1
  Si  Si392  1  0.272242  0.261363  0.462735  1
  Si  Si393  1  0.653671  0.134764  0.558086  1
  Si  Si394  1  0.846115  0.634763  0.558085  1
  Si  Si395  1  0.653669  0.134762  0.606932  1
  Si  Si396  1  0.846115  0.634761  0.606931  1
  Si  Si397  1  0.346116  0.865150  0.651956  1
  Si  Si398  1  0.153668  0.365150  0.651956  1
  Si  Si399  1  0.346116  0.865151  0.603110  1
  Si  Si400  1  0.153672  0.365150  0.603110  1
  Si  Si401  1  0.358233  0.467576  0.622989  1
  Si  Si402  1  0.141553  0.967576  0.622989  1
  Si  Si403  1  0.358231  0.467575  0.672112  1
  Si  Si404  1  0.141554  0.967574  0.672112  1
  Si  Si405  1  0.641550  0.532337  0.587053  1
  Si  Si406  1  0.858233  0.032337  0.587053  1
  Si  Si407  1  0.641552  0.532338  0.537930  1
  Si  Si408  1  0.858233  0.032338  0.537930  1
  Si  Si409  1  0.111139  0.082805  0.620136  1
  Si  Si410  1  0.388644  0.582805  0.620136  1
  Si  Si411  1  0.111141  0.082804  0.524573  1
  Si  Si412  1  0.388643  0.582804  0.524572  1
  Si  Si413  1  0.888645  0.917108  0.589906  1
  Si  Si414  1  0.611138  0.417108  0.589906  1
  Si  Si415  1  0.888643  0.917108  0.685469  1
  Si  Si416  1  0.611141  0.417108  0.685469  1
  Si  Si417  1  0.840918  0.349200  0.599813  1
  Si  Si418  1  0.658865  0.849200  0.599813  1
  Si  Si419  1  0.840918  0.349199  0.649019  1
  Si  Si420  1  0.658866  0.849200  0.649019  1
  Si  Si421  1  0.158866  0.650713  0.610229  1
  Si  Si422  1  0.340919  0.150713  0.610229  1
  Si  Si423  1  0.158867  0.650714  0.561023  1
  Si  Si424  1  0.340917  0.150713  0.561023  1
  Si  Si425  1  0.036199  0.194799  0.521232  1
  Si  Si426  1  0.463581  0.694799  0.521232  1
  Si  Si427  1  0.036203  0.194801  0.667250  1
  Si  Si428  1  0.463582  0.694800  0.667250  1
  Si  Si429  1  0.963584  0.805114  0.688810  1
  Si  Si430  1  0.536202  0.305113  0.688809  1
  Si  Si431  1  0.963584  0.805113  0.542791  1
  Si  Si432  1  0.536198  0.305112  0.542791  1
  Si  Si433  1  0.772239  0.238550  0.653708  1
  Si  Si434  1  0.727546  0.738550  0.653708  1
  Si  Si435  1  0.772240  0.238550  0.551876  1
  Si  Si436  1  0.727545  0.738550  0.551876  1
  Si  Si437  1  0.227545  0.761363  0.556334  1
  Si  Si438  1  0.272239  0.261362  0.556334  1
  Si  Si439  1  0.227542  0.761363  0.658166  1
  Si  Si440  1  0.272242  0.261363  0.658166  1
  H  H441  1  0.344696  0.527575  0.095320  1
  H  H442  1  0.155090  0.027575  0.095320  1
  H  H443  1  0.040928  0.190047  0.090411  1
  H  H444  1  0.458857  0.690048  0.090412  1
  H  H445  1  0.655090  0.472337  0.108920  1
  H  H446  1  0.844695  0.972337  0.108920  1
  H  H447  1  0.958856  0.809865  0.113828  1
  H  H448  1  0.540928  0.309865  0.113828  1
  H  H449  1  0.344696  0.527575  0.710259  1
  H  H450  1  0.155090  0.027575  0.710259  1
  H  H451  1  0.040928  0.190047  0.705351  1
  H  H452  1  0.458857  0.690048  0.705352  1
  H  H453  1  0.655090  0.472337  0.723859  1
  H  H454  1  0.844695  0.972337  0.723860  1
  H  H455  1  0.958856  0.809865  0.728768  1
  H  H456  1  0.540928  0.309865  0.728767  1
