# generated using pymatgen
data_Si20H2O41
_symmetry_space_group_name_H-M   'P 1'
_cell_length_a   13.80613488
_cell_length_b   20.14838188
_cell_length_c   52.60992838
_cell_angle_alpha   90.00000000
_cell_angle_beta   90.00000000
_cell_angle_gamma   90.00000000
_symmetry_Int_Tables_number   1
_chemical_formula_structural   Si20H2O41
_chemical_formula_sum   'Si160 H16 O328'
_cell_volume   14634.5710056
_cell_formula_units_Z   8
loop_
 _symmetry_equiv_pos_site_id
 _symmetry_equiv_pos_as_xyz
  1  'x, y, z'
loop_
 _atom_site_type_symbol
 _atom_site_label
 _atom_site_symmetry_multiplicity
 _atom_site_fract_x
 _atom_site_fract_y
 _atom_site_fract_z
 _atom_site_occupancy
  O  O1  1  0.759298  0.627433  0.359449  1
  O  O2  1  0.240481  0.627458  0.359422  1
  O  O3  1  0.599935  0.574632  0.377659  1
  O  O4  1  0.399960  0.574819  0.377642  1
  O  O5  1  0.249558  -0.000000  0.349439  1
  O  O6  1  0.843775  0.913027  0.274396  1
  O  O7  1  0.155483  0.913392  0.274242  1
  O  O8  1  0.843780  0.913303  0.324087  1
  O  O9  1  0.156296  0.913154  0.323962  1
  O  O10  1  0.906983  0.951865  0.367001  1
  O  O11  1  0.092237  0.951408  0.366815  1
  O  O12  1  0.757590  0.880867  0.364908  1
  O  O13  1  0.242222  0.880895  0.364883  1
  O  O14  1  0.598916  0.823224  0.378578  1
  O  O15  1  0.400950  0.823243  0.378568  1
  O  O16  1  0.745619  0.754387  0.362184  1
  O  O17  1  0.254291  0.754403  0.362151  1
  O  O18  1  0.836562  0.703425  0.274857  1
  O  O19  1  0.163363  0.703387  0.274829  1
  O  O20  1  0.836460  0.703367  0.323697  1
  O  O21  1  0.163481  0.703549  0.323664  1
  O  O22  1  0.907266  0.699447  0.366721  1
  O  O23  1  0.092577  0.699532  0.366691  1
  O  O24  1  -0.000000  0.751239  0.402640  1
  O  O25  1  -0.000000  0.625252  0.397229  1
  O  O26  1  -0.000000  0.876736  0.396571  1
  O  O27  1  0.875227  0.807735  0.299303  1
  O  O28  1  0.124676  0.807805  0.299148  1
  O  O29  1  -0.000000  0.896438  0.299247  1
  O  O30  1  -0.000000  0.717546  0.299281  1
  O  O31  1  0.749422  -0.000000  0.349446  1
  O  O32  1  -0.000000  0.501087  0.404162  1
  O  O33  1  0.249910  0.499890  0.370721  1
  O  O34  1  0.740184  0.372379  0.359385  1
  O  O35  1  0.259642  0.372393  0.359420  1
  O  O36  1  0.899976  0.423985  0.377641  1
  O  O37  1  0.099936  0.424111  0.377648  1
  O  O38  1  0.499950  0.250100  0.402897  1
  O  O39  1  0.656733  0.086754  0.323884  1
  O  O40  1  0.344424  0.086550  0.324293  1
  O  O41  1  0.655353  0.086502  0.274177  1
  O  O42  1  0.343349  0.086781  0.274584  1
  O  O43  1  0.592018  0.048768  0.366655  1
  O  O44  1  0.406603  0.047575  0.367346  1
  O  O45  1  0.742477  0.118887  0.364860  1
  O  O46  1  0.257369  0.118836  0.364978  1
  O  O47  1  0.901024  0.176810  0.378635  1
  O  O48  1  0.098814  0.176806  0.378660  1
  O  O49  1  0.749814  0.188374  0.404946  1
  O  O50  1  0.754355  0.245389  0.362115  1
  O  O51  1  0.245541  0.245356  0.362110  1
  O  O52  1  0.663519  0.296268  0.323600  1
  O  O53  1  0.336488  0.296539  0.323631  1
  O  O54  1  0.663366  0.296536  0.274780  1
  O  O55  1  0.336484  0.296292  0.274809  1
  O  O56  1  0.592584  0.300217  0.366622  1
  O  O57  1  0.407258  0.300249  0.366661  1
  O  O58  1  0.500020  0.376298  0.396617  1
  O  O59  1  0.499848  0.124563  0.396144  1
  O  O60  1  -0.000000  0.001665  0.404428  1
  O  O61  1  0.624663  0.192064  0.299079  1
  O  O62  1  0.375275  0.192084  0.299355  1
  O  O63  1  0.499966  0.103378  0.299266  1
  O  O64  1  0.499967  0.282329  0.299218  1
  O  O65  1  0.750106  0.499860  0.370722  1
  O  O66  1  0.749945  0.413090  0.404947  1
  O  O67  1  0.759724  0.627494  0.239069  1
  O  O68  1  0.240267  0.627517  0.239046  1
  O  O69  1  0.259281  0.627529  0.147938  1
  O  O70  1  0.740769  0.627540  0.147973  1
  O  O71  1  0.600006  0.575846  0.220826  1
  O  O72  1  0.399978  0.575843  0.220822  1
  O  O73  1  0.099939  0.574822  0.166229  1
  O  O74  1  0.900091  0.574799  0.166237  1
  O  O75  1  0.750052  0.586759  0.193525  1
  O  O76  1  0.249978  0.586772  0.193506  1
  O  O77  1  0.749987  0.500010  0.159283  1
  O  O78  1  0.750571  0.000000  0.137995  1
  O  O79  1  0.907749  0.951663  0.231609  1
  O  O80  1  0.093295  0.952537  0.231211  1
  O  O81  1  0.407918  0.951228  0.155206  1
  O  O82  1  0.593314  0.952426  0.155892  1
  O  O83  1  0.757620  0.881013  0.233499  1
  O  O84  1  0.242370  0.881024  0.233524  1
  O  O85  1  0.257656  0.880970  0.153418  1
  O  O86  1  0.742317  0.881010  0.153530  1
  O  O87  1  0.598888  0.823057  0.219852  1
  O  O88  1  0.401074  0.823118  0.219849  1
  O  O89  1  0.098992  0.823253  0.167095  1
  O  O90  1  0.901062  0.823317  0.167123  1
  O  O91  1  0.750034  0.811312  0.193514  1
  O  O92  1  0.250011  0.811493  0.193493  1
  O  O93  1  0.745655  0.754500  0.236384  1
  O  O94  1  0.254305  0.754531  0.236351  1
  O  O95  1  0.245702  0.754472  0.150658  1
  O  O96  1  0.754368  0.754523  0.150629  1
  O  O97  1  0.907356  0.699592  0.231804  1
  O  O98  1  0.092630  0.699608  0.231784  1
  O  O99  1  0.407335  0.699387  0.155155  1
  O  O100  1  0.592764  0.699446  0.155212  1
  O  O101  1  -0.000000  0.750502  0.195682  1
  O  O102  1  0.499898  0.749689  0.191410  1
  O  O103  1  -0.000000  0.624666  0.201425  1
  O  O104  1  0.499989  0.623506  0.185191  1
  O  O105  1  -0.000000  0.500635  0.194153  1
  O  O106  1  -0.000000  0.875785  0.202280  1
  O  O107  1  0.500080  0.875194  0.184619  1
  O  O108  1  0.249998  0.500005  0.159283  1
  O  O109  1  0.496845  0.000000  0.193681  1
  O  O110  1  0.249980  0.500008  0.227752  1
  O  O111  1  0.250579  0.000000  0.249064  1
  O  O112  1  0.997818  0.000000  0.193291  1
  O  O113  1  0.750400  -0.000000  0.249037  1
  O  O114  1  0.499992  0.499103  0.194222  1
  O  O115  1  0.240687  0.372455  0.147980  1
  O  O116  1  0.759280  0.372466  0.147956  1
  O  O117  1  0.740250  0.372458  0.239022  1
  O  O118  1  0.259798  0.372482  0.239057  1
  O  O119  1  0.400060  0.425172  0.166223  1
  O  O120  1  0.599922  0.425172  0.166219  1
  O  O121  1  0.899990  0.424137  0.220833  1
  O  O122  1  0.100032  0.424112  0.220839  1
  O  O123  1  0.250046  0.413254  0.193523  1
  O  O124  1  0.749979  0.413256  0.193505  1
  O  O125  1  0.093172  0.047890  0.155683  1
  O  O126  1  0.907901  0.048789  0.155276  1
  O  O127  1  0.593292  0.047478  0.231131  1
  O  O128  1  0.407916  0.048707  0.231812  1
  O  O129  1  0.242375  0.118979  0.153391  1
  O  O130  1  0.757598  0.118971  0.153411  1
  O  O131  1  0.742420  0.118893  0.233504  1
  O  O132  1  0.257527  0.118958  0.233619  1
  O  O133  1  0.400993  0.176614  0.167062  1
  O  O134  1  0.598944  0.176659  0.167054  1
  O  O135  1  0.901091  0.176785  0.219867  1
  O  O136  1  0.098927  0.176863  0.219898  1
  O  O137  1  0.250018  0.188268  0.193506  1
  O  O138  1  0.749997  0.188423  0.193481  1
  O  O139  1  0.254305  0.245478  0.150699  1
  O  O140  1  0.745632  0.245496  0.150666  1
  O  O141  1  0.754340  0.245418  0.236322  1
  O  O142  1  0.245687  0.245487  0.236300  1
  O  O143  1  0.092685  0.300499  0.155218  1
  O  O144  1  0.907276  0.300514  0.155195  1
  O  O145  1  0.592656  0.300286  0.231736  1
  O  O146  1  0.407406  0.300335  0.231784  1
  O  O147  1  -0.000000  0.249881  0.191352  1
  O  O148  1  0.499910  0.249058  0.195729  1
  O  O149  1  -0.000000  0.376164  0.185270  1
  O  O150  1  0.499986  0.374993  0.201336  1
  O  O151  1  -0.000000  0.124231  0.184817  1
  O  O152  1  0.500069  0.123633  0.202061  1
  O  O153  1  0.250455  0.000000  0.137960  1
  O  O154  1  0.749989  0.499993  0.227753  1
  O  O155  1  0.343274  0.913056  0.112430  1
  O  O156  1  0.655443  0.913338  0.112837  1
  O  O157  1  0.336395  0.703509  0.112146  1
  O  O158  1  0.663445  0.703245  0.112174  1
  O  O159  1  0.155835  0.086443  0.112637  1
  O  O160  1  0.843403  0.086788  0.112478  1
  O  O161  1  0.163505  0.296523  0.112213  1
  O  O162  1  0.836388  0.296459  0.112184  1
  O  O163  1  0.843775  0.913027  0.697315  1
  O  O164  1  0.155483  0.913392  0.697161  1
  O  O165  1  0.836562  0.703425  0.697776  1
  O  O166  1  0.163363  0.703387  0.697748  1
  O  O167  1  0.655353  0.086502  0.697096  1
  O  O168  1  0.343349  0.086781  0.697503  1
  O  O169  1  0.663366  0.296536  0.697699  1
  O  O170  1  0.336484  0.296292  0.697728  1
  O  O171  1  0.759724  0.627494  0.661988  1
  O  O172  1  0.240267  0.627517  0.661965  1
  O  O173  1  0.259281  0.627529  0.570857  1
  O  O174  1  0.740769  0.627540  0.570892  1
  O  O175  1  0.600006  0.575846  0.643745  1
  O  O176  1  0.399978  0.575843  0.643741  1
  O  O177  1  0.099939  0.574822  0.589148  1
  O  O178  1  0.900091  0.574799  0.589156  1
  O  O179  1  0.750052  0.586759  0.616444  1
  O  O180  1  0.249978  0.586772  0.616425  1
  O  O181  1  0.749987  0.500010  0.582202  1
  O  O182  1  0.750571  0.000000  0.560914  1
  O  O183  1  0.907749  0.951663  0.654528  1
  O  O184  1  0.093295  0.952537  0.654130  1
  O  O185  1  0.407918  0.951228  0.578126  1
  O  O186  1  0.593314  0.952426  0.578812  1
  O  O187  1  0.757620  0.881013  0.656418  1
  O  O188  1  0.242370  0.881024  0.656443  1
  O  O189  1  0.257656  0.880970  0.576337  1
  O  O190  1  0.742317  0.881010  0.576449  1
  O  O191  1  0.598888  0.823057  0.642771  1
  O  O192  1  0.401074  0.823118  0.642768  1
  O  O193  1  0.098992  0.823253  0.590014  1
  O  O194  1  0.901062  0.823317  0.590042  1
  O  O195  1  0.750034  0.811312  0.616433  1
  O  O196  1  0.250011  0.811493  0.616412  1
  O  O197  1  0.745655  0.754500  0.659303  1
  O  O198  1  0.254305  0.754531  0.659270  1
  O  O199  1  0.245702  0.754472  0.573577  1
  O  O200  1  0.754368  0.754523  0.573548  1
  O  O201  1  0.907356  0.699592  0.654723  1
  O  O202  1  0.092630  0.699608  0.654703  1
  O  O203  1  0.407335  0.699387  0.578074  1
  O  O204  1  0.592764  0.699446  0.578131  1
  O  O205  1  -0.000000  0.750502  0.618601  1
  O  O206  1  0.499898  0.749689  0.614330  1
  O  O207  1  -0.000000  0.624666  0.624344  1
  O  O208  1  0.499989  0.623506  0.608110  1
  O  O209  1  -0.000000  0.500635  0.617072  1
  O  O210  1  -0.000000  0.875785  0.625199  1
  O  O211  1  0.500080  0.875194  0.607538  1
  O  O212  1  0.249998  0.500005  0.582202  1
  O  O213  1  0.496845  0.000000  0.616600  1
  O  O214  1  0.249980  0.500008  0.650671  1
  O  O215  1  0.250579  -0.000000  0.671983  1
  O  O216  1  0.997818  -0.000000  0.616210  1
  O  O217  1  0.750400  -0.000000  0.671956  1
  O  O218  1  0.499992  0.499103  0.617141  1
  O  O219  1  0.240687  0.372455  0.570900  1
  O  O220  1  0.759280  0.372466  0.570875  1
  O  O221  1  0.740250  0.372458  0.661941  1
  O  O222  1  0.259798  0.372482  0.661976  1
  O  O223  1  0.400060  0.425172  0.589142  1
  O  O224  1  0.599922  0.425172  0.589138  1
  O  O225  1  0.899990  0.424137  0.643752  1
  O  O226  1  0.100032  0.424112  0.643758  1
  O  O227  1  0.250046  0.413254  0.616442  1
  O  O228  1  0.749979  0.413256  0.616424  1
  O  O229  1  0.093172  0.047890  0.578602  1
  O  O230  1  0.907901  0.048789  0.578195  1
  O  O231  1  0.593292  0.047478  0.654050  1
  O  O232  1  0.407916  0.048707  0.654731  1
  O  O233  1  0.242375  0.118979  0.576310  1
  O  O234  1  0.757598  0.118971  0.576330  1
  O  O235  1  0.742420  0.118893  0.656423  1
  O  O236  1  0.257527  0.118958  0.656539  1
  O  O237  1  0.400993  0.176614  0.589981  1
  O  O238  1  0.598944  0.176659  0.589973  1
  O  O239  1  0.901091  0.176785  0.642786  1
  O  O240  1  0.098927  0.176863  0.642817  1
  O  O241  1  0.250018  0.188268  0.616425  1
  O  O242  1  0.749997  0.188423  0.616400  1
  O  O243  1  0.254305  0.245478  0.573618  1
  O  O244  1  0.745632  0.245496  0.573585  1
  O  O245  1  0.754340  0.245418  0.659241  1
  O  O246  1  0.245687  0.245487  0.659219  1
  O  O247  1  0.092685  0.300499  0.578137  1
  O  O248  1  0.907276  0.300514  0.578114  1
  O  O249  1  0.592656  0.300286  0.654655  1
  O  O250  1  0.407406  0.300335  0.654703  1
  O  O251  1  0.000000  0.249881  0.614271  1
  O  O252  1  0.499910  0.249058  0.618648  1
  O  O253  1  -0.000000  0.376164  0.608189  1
  O  O254  1  0.499986  0.374993  0.624255  1
  O  O255  1  -0.000000  0.124231  0.607736  1
  O  O256  1  0.500069  0.123633  0.624980  1
  O  O257  1  0.250455  -0.000000  0.560879  1
  O  O258  1  0.749989  0.499993  0.650672  1
  O  O259  1  0.499677  0.500755  0.405611  1
  O  O260  1  0.749960  0.811522  0.405002  1
  O  O261  1  0.259197  0.627436  0.450475  1
  O  O262  1  0.740627  0.627434  0.450508  1
  O  O263  1  0.099925  0.574626  0.432252  1
  O  O264  1  0.899998  0.574756  0.432259  1
  O  O265  1  0.749934  0.586594  0.404971  1
  O  O266  1  0.249458  -0.000000  0.460528  1
  O  O267  1  0.344683  0.913357  0.485648  1
  O  O268  1  0.656495  0.913137  0.486056  1
  O  O269  1  0.343274  0.913056  0.535349  1
  O  O270  1  0.655443  0.913338  0.535756  1
  O  O271  1  0.406620  0.952531  0.442586  1
  O  O272  1  0.591988  0.951344  0.443281  1
  O  O273  1  0.257696  0.880954  0.444975  1
  O  O274  1  0.742123  0.880896  0.445082  1
  O  O275  1  0.098887  0.823277  0.431425  1
  O  O276  1  0.900913  0.823245  0.431454  1
  O  O277  1  0.245668  0.754436  0.447797  1
  O  O278  1  0.754134  0.754412  0.447833  1
  O  O279  1  0.336558  0.703212  0.486240  1
  O  O280  1  0.663541  0.703583  0.486256  1
  O  O281  1  0.336395  0.703509  0.535065  1
  O  O282  1  0.663445  0.703245  0.535093  1
  O  O283  1  0.407214  0.699326  0.443203  1
  O  O284  1  0.592572  0.699334  0.443245  1
  O  O285  1  0.499955  0.750733  0.407226  1
  O  O286  1  0.500015  0.624810  0.412772  1
  O  O287  1  0.499864  0.876126  0.413606  1
  O  O288  1  0.375209  0.807707  0.510533  1
  O  O289  1  0.624719  0.807728  0.510823  1
  O  O290  1  0.499969  0.896365  0.510737  1
  O  O291  1  0.499981  0.717495  0.510677  1
  O  O292  1  0.749568  -0.000000  0.460517  1
  O  O293  1  0.249812  0.811461  0.404959  1
  O  O294  1  0.249935  0.586597  0.404952  1
  O  O295  1  0.240271  0.372371  0.450531  1
  O  O296  1  0.759508  0.372388  0.450503  1
  O  O297  1  0.399993  0.423933  0.432254  1
  O  O298  1  0.599899  0.424118  0.432241  1
  O  O299  1  0.749885  0.499877  0.439192  1
  O  O300  1  0.249920  0.413091  0.404967  1
  O  O301  1  0.155835  0.086443  0.535556  1
  O  O302  1  0.843403  0.086788  0.535397  1
  O  O303  1  0.155857  0.086764  0.485837  1
  O  O304  1  0.844216  0.086610  0.485709  1
  O  O305  1  0.092406  0.048101  0.442923  1
  O  O306  1  0.906827  0.047682  0.442733  1
  O  O307  1  0.242347  0.118817  0.444995  1
  O  O308  1  0.757428  0.118831  0.444975  1
  O  O309  1  0.401021  0.176758  0.431351  1
  O  O310  1  0.598828  0.176774  0.431339  1
  O  O311  1  0.249970  0.188491  0.404984  1
  O  O312  1  0.254263  0.245347  0.447848  1
  O  O313  1  0.745637  0.245357  0.447809  1
  O  O314  1  0.163505  0.296523  0.535132  1
  O  O315  1  0.836388  0.296459  0.535103  1
  O  O316  1  0.163402  0.296419  0.486323  1
  O  O317  1  0.836515  0.296573  0.486290  1
  O  O318  1  0.092599  0.300367  0.443287  1
  O  O319  1  0.907242  0.300442  0.443258  1
  O  O320  1  -0.000000  0.250576  0.406966  1
  O  O321  1  -0.000000  0.376717  0.413347  1
  O  O322  1  -0.000000  0.125145  0.414008  1
  O  O323  1  0.124668  0.192094  0.510768  1
  O  O324  1  0.875206  0.192168  0.510615  1
  O  O325  1  0.000000  0.103458  0.510700  1
  O  O326  1  -0.000000  0.282378  0.510732  1
  O  O327  1  0.250145  0.499856  0.439194  1
  O  O328  1  0.503129  -0.000000  0.405042  1
  Si  Si329  1  0.499921  0.819266  0.393374  1
  Si  Si330  1  0.112376  0.730945  0.299244  1
  Si  Si331  1  0.887544  0.730877  0.299288  1
  Si  Si332  1  0.111559  0.884430  0.299130  1
  Si  Si333  1  0.888260  0.884359  0.299264  1
  Si  Si334  1  0.000000  0.946444  0.383747  1
  Si  Si335  1  0.714644  0.572287  0.377050  1
  Si  Si336  1  0.285246  0.572358  0.377028  1
  Si  Si337  1  0.814132  0.937017  0.351127  1
  Si  Si338  1  0.185408  0.936847  0.351048  1
  Si  Si339  1  0.712785  0.817657  0.377081  1
  Si  Si340  1  0.287084  0.817679  0.377050  1
  Si  Si341  1  0.808848  0.695111  0.352389  1
  Si  Si342  1  0.190997  0.695161  0.352357  1
  Si  Si343  1  -0.000000  0.693189  0.383196  1
  Si  Si344  1  0.499928  0.569323  0.392009  1
  Si  Si345  1  0.387556  0.268940  0.299237  1
  Si  Si346  1  0.785263  0.427291  0.377016  1
  Si  Si347  1  0.214649  0.427355  0.377036  1
  Si  Si348  1  0.685555  0.063032  0.350991  1
  Si  Si349  1  0.314237  0.062693  0.351272  1
  Si  Si350  1  0.787162  0.182154  0.377042  1
  Si  Si351  1  0.212673  0.182189  0.377079  1
  Si  Si352  1  0.691033  0.304594  0.352293  1
  Si  Si353  1  0.308829  0.304633  0.352325  1
  Si  Si354  1  0.499970  0.307461  0.383090  1
  Si  Si355  1  -0.000000  0.430729  0.391948  1
  Si  Si356  1  0.500174  0.054156  0.383785  1
  Si  Si357  1  -0.000000  0.181435  0.393476  1
  Si  Si358  1  0.611617  0.115435  0.299088  1
  Si  Si359  1  0.388319  0.115456  0.299395  1
  Si  Si360  1  0.612374  0.268922  0.299180  1
  Si  Si361  1  0.499984  0.818645  0.205019  1
  Si  Si362  1  -0.000000  0.819183  0.181920  1
  Si  Si363  1  0.499760  0.945703  0.172335  1
  Si  Si364  1  0.714722  0.572532  0.221450  1
  Si  Si365  1  0.285260  0.572537  0.221436  1
  Si  Si366  1  0.214638  0.572471  0.165586  1
  Si  Si367  1  0.785392  0.572455  0.165605  1
  Si  Si368  1  0.814529  0.936913  0.247350  1
  Si  Si369  1  0.185673  0.937208  0.247254  1
  Si  Si370  1  0.314443  0.936845  0.139527  1
  Si  Si371  1  0.685646  0.937211  0.139813  1
  Si  Si372  1  0.712765  0.817663  0.221420  1
  Si  Si373  1  0.287195  0.817730  0.221409  1
  Si  Si374  1  0.212862  0.817712  0.165573  1
  Si  Si375  1  0.787205  0.817691  0.165599  1
  Si  Si376  1  0.808976  0.695238  0.246161  1
  Si  Si377  1  0.191016  0.695260  0.246135  1
  Si  Si378  1  0.308848  0.695181  0.140840  1
  Si  Si379  1  0.691185  0.695170  0.140868  1
  Si  Si380  1  -0.000000  0.692841  0.215317  1
  Si  Si381  1  0.499981  0.692284  0.171622  1
  Si  Si382  1  0.000000  0.569280  0.180610  1
  Si  Si383  1  0.499997  0.569350  0.206523  1
  Si  Si384  1  -0.000000  0.946183  0.214638  1
  Si  Si385  1  0.499748  0.053598  0.214666  1
  Si  Si386  1  0.499975  0.180548  0.181858  1
  Si  Si387  1  -0.000000  0.181083  0.205063  1
  Si  Si388  1  0.285358  0.427550  0.165601  1
  Si  Si389  1  0.714621  0.427548  0.165587  1
  Si  Si390  1  0.785272  0.427468  0.221434  1
  Si  Si391  1  0.214749  0.427461  0.221452  1
  Si  Si392  1  0.185722  0.062783  0.139669  1
  Si  Si393  1  0.814489  0.063066  0.139572  1
  Si  Si394  1  0.685613  0.062707  0.247198  1
  Si  Si395  1  0.314451  0.063090  0.247481  1
  Si  Si396  1  0.287127  0.182181  0.165578  1
  Si  Si397  1  0.712808  0.182228  0.165563  1
  Si  Si398  1  0.787217  0.182198  0.221395  1
  Si  Si399  1  0.212812  0.182197  0.221425  1
  Si  Si400  1  0.191152  0.304787  0.140900  1
  Si  Si401  1  0.808812  0.304795  0.140872  1
  Si  Si402  1  0.691029  0.304693  0.246089  1
  Si  Si403  1  0.308990  0.304692  0.246119  1
  Si  Si404  1  -0.000000  0.307470  0.171653  1
  Si  Si405  1  0.499973  0.306900  0.215274  1
  Si  Si406  1  -0.000000  0.430483  0.206531  1
  Si  Si407  1  0.499995  0.430561  0.180601  1
  Si  Si408  1  -0.000000  0.054067  0.172297  1
  Si  Si409  1  0.499984  0.818645  0.627938  1
  Si  Si410  1  -0.000000  0.819183  0.604839  1
  Si  Si411  1  0.499760  0.945703  0.595254  1
  Si  Si412  1  0.714722  0.572532  0.644369  1
  Si  Si413  1  0.285260  0.572537  0.644355  1
  Si  Si414  1  0.214638  0.572471  0.588505  1
  Si  Si415  1  0.785392  0.572455  0.588524  1
  Si  Si416  1  0.814529  0.936913  0.670269  1
  Si  Si417  1  0.185673  0.937208  0.670173  1
  Si  Si418  1  0.314443  0.936845  0.562446  1
  Si  Si419  1  0.685646  0.937211  0.562732  1
  Si  Si420  1  0.712765  0.817663  0.644339  1
  Si  Si421  1  0.287195  0.817730  0.644328  1
  Si  Si422  1  0.212862  0.817712  0.588492  1
  Si  Si423  1  0.787205  0.817691  0.588518  1
  Si  Si424  1  0.808976  0.695238  0.669080  1
  Si  Si425  1  0.191016  0.695260  0.669054  1
  Si  Si426  1  0.308848  0.695181  0.563759  1
  Si  Si427  1  0.691185  0.695170  0.563787  1
  Si  Si428  1  -0.000000  0.692841  0.638236  1
  Si  Si429  1  0.499981  0.692284  0.594541  1
  Si  Si430  1  -0.000000  0.569280  0.603529  1
  Si  Si431  1  0.499997  0.569350  0.629443  1
  Si  Si432  1  -0.000000  0.946183  0.637557  1
  Si  Si433  1  0.499748  0.053598  0.637585  1
  Si  Si434  1  0.499975  0.180548  0.604777  1
  Si  Si435  1  -0.000000  0.181083  0.627982  1
  Si  Si436  1  0.285358  0.427550  0.588520  1
  Si  Si437  1  0.714621  0.427548  0.588506  1
  Si  Si438  1  0.785272  0.427468  0.644353  1
  Si  Si439  1  0.214749  0.427461  0.644371  1
  Si  Si440  1  0.185722  0.062783  0.562588  1
  Si  Si441  1  0.814489  0.063066  0.562491  1
  Si  Si442  1  0.685613  0.062707  0.670117  1
  Si  Si443  1  0.314451  0.063090  0.670401  1
  Si  Si444  1  0.287127  0.182181  0.588497  1
  Si  Si445  1  0.712808  0.182228  0.588482  1
  Si  Si446  1  0.787217  0.182198  0.644314  1
  Si  Si447  1  0.212812  0.182197  0.644345  1
  Si  Si448  1  0.191152  0.304787  0.563819  1
  Si  Si449  1  0.808812  0.304795  0.563792  1
  Si  Si450  1  0.691029  0.304693  0.669008  1
  Si  Si451  1  0.308990  0.304692  0.669038  1
  Si  Si452  1  -0.000000  0.307470  0.594572  1
  Si  Si453  1  0.499973  0.306900  0.638193  1
  Si  Si454  1  -0.000000  0.430483  0.629450  1
  Si  Si455  1  0.499995  0.430561  0.603520  1
  Si  Si456  1  -0.000000  0.054067  0.595216  1
  Si  Si457  1  0.214632  0.572274  0.432870  1
  Si  Si458  1  0.785293  0.572327  0.432888  1
  Si  Si459  1  0.314382  0.937180  0.458675  1
  Si  Si460  1  0.685413  0.936833  0.458955  1
  Si  Si461  1  0.212768  0.817672  0.432888  1
  Si  Si462  1  0.787030  0.817673  0.432934  1
  Si  Si463  1  0.308820  0.695072  0.457551  1
  Si  Si464  1  0.691001  0.695080  0.457580  1
  Si  Si465  1  0.499942  0.692842  0.426751  1
  Si  Si466  1  -0.000000  0.569502  0.417879  1
  Si  Si467  1  0.500176  0.946284  0.426126  1
  Si  Si468  1  -0.000000  0.819548  0.416636  1
  Si  Si469  1  0.388327  0.884332  0.510553  1
  Si  Si470  1  0.611618  0.884354  0.510862  1
  Si  Si471  1  0.387552  0.730849  0.510641  1
  Si  Si472  1  0.612406  0.730871  0.510694  1
  Si  Si473  1  0.112367  0.268961  0.510742  1
  Si  Si474  1  0.887535  0.269023  0.510697  1
  Si  Si475  1  0.285287  0.427287  0.432894  1
  Si  Si476  1  0.714603  0.427353  0.432873  1
  Si  Si477  1  0.185327  0.062896  0.458801  1
  Si  Si478  1  0.814217  0.062719  0.458720  1
  Si  Si479  1  0.287145  0.182161  0.432900  1
  Si  Si480  1  0.712704  0.182167  0.432870  1
  Si  Si481  1  0.191021  0.304635  0.457634  1
  Si  Si482  1  0.808814  0.304673  0.457600  1
  Si  Si483  1  -0.000000  0.307810  0.426838  1
  Si  Si484  1  0.499927  0.430522  0.417925  1
  Si  Si485  1  -0.000000  0.054333  0.426081  1
  Si  Si486  1  0.499911  0.181156  0.416517  1
  Si  Si487  1  0.111547  0.115470  0.510721  1
  Si  Si488  1  0.888254  0.115539  0.510586  1
  H  H489  1  0.343274  0.913056  0.095323  1
  H  H490  1  0.655443  0.913338  0.095730  1
  H  H491  1  0.336395  0.703509  0.095039  1
  H  H492  1  0.663445  0.703245  0.095067  1
  H  H493  1  0.155835  0.086443  0.095530  1
  H  H494  1  0.843403  0.086788  0.095371  1
  H  H495  1  0.163505  0.296523  0.095106  1
  H  H496  1  0.836388  0.296459  0.095077  1
  H  H497  1  0.843775  0.913027  0.714422  1
  H  H498  1  0.155483  0.913392  0.714268  1
  H  H499  1  0.836562  0.703425  0.714883  1
  H  H500  1  0.163363  0.703387  0.714855  1
  H  H501  1  0.655353  0.086502  0.714204  1
  H  H502  1  0.343349  0.086781  0.714610  1
  H  H503  1  0.663366  0.296536  0.714806  1
  H  H504  1  0.336484  0.296292  0.714835  1
