# generated using pymatgen
data_Si30H2O61
_symmetry_space_group_name_H-M   'P 1'
_cell_length_a   7.50249860
_cell_length_b   18.12388572
_cell_length_c   75.35281944
_cell_angle_alpha   90.00000000
_cell_angle_beta   90.00000000
_cell_angle_gamma   90.00000000
_symmetry_Int_Tables_number   1
_chemical_formula_structural   Si30H2O61
_chemical_formula_sum   'Si120 H8 O244'
_cell_volume   10246.0564641
_cell_formula_units_Z   4
loop_
 _symmetry_equiv_pos_site_id
 _symmetry_equiv_pos_as_xyz
  1  'x, y, z'
loop_
 _atom_site_type_symbol
 _atom_site_label
 _atom_site_symmetry_multiplicity
 _atom_site_fract_x
 _atom_site_fract_y
 _atom_site_fract_z
 _atom_site_occupancy
  O  O1  1  0.250030  0.884875  0.078315  1
  O  O2  1  0.250047  0.615036  0.078298  1
  O  O3  1  0.250077  0.749927  0.090366  1
  O  O4  1  0.580780  0.151808  0.420664  1
  O  O5  1  0.919277  0.151807  0.420663  1
  O  O6  1  0.580777  0.348054  0.420658  1
  O  O7  1  0.919297  0.348051  0.420655  1
  O  O8  1  0.419339  0.848043  0.107143  1
  O  O9  1  0.080818  0.848039  0.107146  1
  O  O10  1  0.419346  0.651794  0.107138  1
  O  O11  1  0.080847  0.651794  0.107141  1
  O  O12  1  0.750037  0.115037  0.110013  1
  O  O13  1  0.750079  0.384891  0.109996  1
  O  O14  1  0.250030  0.884875  0.417805  1
  O  O15  1  0.250047  0.615036  0.417788  1
  O  O16  1  0.250077  0.749927  0.429856  1
  O  O17  1  0.580875  0.029471  0.132110  1
  O  O18  1  0.919195  0.029469  0.132110  1
  O  O19  1  0.580966  0.470387  0.132109  1
  O  O20  1  0.919317  0.470365  0.132106  1
  O  O21  1  0.419160  0.970381  0.395696  1
  O  O22  1  0.080816  0.970373  0.395697  1
  O  O23  1  0.419234  0.529492  0.395691  1
  O  O24  1  0.080915  0.529472  0.395688  1
  O  O25  1  0.750031  0.138867  0.144142  1
  O  O26  1  0.750094  0.360881  0.144109  1
  O  O27  1  0.249992  0.860888  0.383690  1
  O  O28  1  0.250025  0.638882  0.383658  1
  O  O29  1  0.579923  0.128237  0.172933  1
  O  O30  1  0.920150  0.128239  0.172932  1
  O  O31  1  0.580070  0.371475  0.172897  1
  O  O32  1  0.920305  0.371425  0.172885  1
  O  O33  1  0.420093  0.871472  0.354908  1
  O  O34  1  0.079866  0.871468  0.354909  1
  O  O35  1  0.420173  0.628257  0.354871  1
  O  O36  1  0.079945  0.628239  0.354864  1
  O  O37  1  0.750037  0.249848  0.166074  1
  O  O38  1  0.249997  0.749862  0.361724  1
  O  O39  1  0.250026  0.156817  0.408858  1
  O  O40  1  0.250037  0.343042  0.408851  1
  O  O41  1  0.750077  0.843029  0.118950  1
  O  O42  1  0.750101  0.656805  0.118945  1
  O  O43  1  0.000000  0.105529  0.389497  1
  O  O44  1  0.500261  0.105536  0.389497  1
  O  O45  1  -0.000000  0.394321  0.389490  1
  O  O46  1  0.500321  0.394332  0.389494  1
  O  O47  1  -0.000000  0.894315  0.138310  1
  O  O48  1  0.499791  0.894317  0.138308  1
  O  O49  1  -0.000000  0.605518  0.138308  1
  O  O50  1  0.499862  0.605534  0.138308  1
  O  O51  1  0.018213  0.249922  0.398812  1
  O  O52  1  0.481856  0.249929  0.398813  1
  O  O53  1  0.981905  0.749913  0.128991  1
  O  O54  1  0.518263  0.749917  0.128988  1
  O  O55  1  0.018990  -0.000000  0.163531  1
  O  O56  1  0.481082  0.000000  0.163530  1
  O  O57  1  0.019072  0.499087  0.163526  1
  O  O58  1  0.481228  0.499118  0.163530  1
  O  O59  1  0.981063  0.000000  0.364278  1
  O  O60  1  0.518909  0.000000  0.364277  1
  O  O61  1  0.981107  0.500678  0.364267  1
  O  O62  1  0.519014  0.500686  0.364273  1
  O  O63  1  0.250040  0.989868  0.139132  1
  O  O64  1  0.250144  0.509990  0.139133  1
  O  O65  1  0.749991  0.009995  0.388673  1
  O  O66  1  0.750078  0.489880  0.388668  1
  O  O67  1  0.250033  0.082693  0.178372  1
  O  O68  1  0.250181  0.416957  0.178326  1
  O  O69  1  0.749977  0.916978  0.349477  1
  O  O70  1  0.750055  0.582700  0.349427  1
  O  O71  1  0.992415  0.038809  0.197991  1
  O  O72  1  0.507615  0.038797  0.197991  1
  O  O73  1  0.992663  0.460573  0.197980  1
  O  O74  1  0.507559  0.460635  0.197991  1
  O  O75  1  0.007388  0.960656  0.329818  1
  O  O76  1  0.492550  0.960651  0.329818  1
  O  O77  1  0.007601  0.538805  0.329805  1
  O  O78  1  0.492374  0.538805  0.329816  1
  O  O79  1  0.078518  0.123913  0.223380  1
  O  O80  1  0.421497  0.123887  0.223383  1
  O  O81  1  0.078761  0.375189  0.223318  1
  O  O82  1  0.421471  0.375237  0.223325  1
  O  O83  1  0.921301  0.875275  0.304482  1
  O  O84  1  0.578608  0.875269  0.304480  1
  O  O85  1  0.921491  0.623935  0.304422  1
  O  O86  1  0.578501  0.623929  0.304439  1
  O  O87  1  0.250127  0.249491  0.225738  1
  O  O88  1  0.749971  0.749536  0.302075  1
  O  O89  1  0.249988  0.157396  0.250902  1
  O  O90  1  0.250093  0.342154  0.250810  1
  O  O91  1  0.749986  0.842178  0.276997  1
  O  O92  1  0.749770  0.657420  0.276914  1
  O  O93  1  0.080178  0.122216  0.278118  1
  O  O94  1  0.419704  0.122219  0.278123  1
  O  O95  1  0.079512  0.378183  0.277875  1
  O  O96  1  0.420463  0.378164  0.277888  1
  O  O97  1  0.920402  0.878158  0.249918  1
  O  O98  1  0.579456  0.878159  0.249925  1
  O  O99  1  0.919890  0.622313  0.249717  1
  O  O100  1  0.580321  0.622176  0.249681  1
  O  O101  1  0.249944  0.250207  0.275923  1
  O  O102  1  0.749881  0.750201  0.251890  1
  O  O103  1  0.006004  0.990482  0.230582  1
  O  O104  1  0.493969  0.990463  0.230582  1
  O  O105  1  0.003325  0.508485  0.230595  1
  O  O106  1  0.497061  0.508545  0.230614  1
  O  O107  1  0.996939  0.008578  0.297192  1
  O  O108  1  0.502970  0.008572  0.297192  1
  O  O109  1  0.993982  0.490519  0.297207  1
  O  O110  1  0.506065  0.490494  0.297223  1
  O  O111  1  0.750000  0.073382  0.220524  1
  O  O112  1  0.750111  0.425080  0.220395  1
  O  O113  1  0.249955  0.925107  0.307415  1
  O  O114  1  0.249999  0.573395  0.307277  1
  O  O115  1  0.249940  0.930946  0.249651  1
  O  O116  1  0.250002  0.571227  0.248508  1
  O  O117  1  0.749946  0.071211  0.279288  1
  O  O118  1  0.749996  0.430977  0.278143  1
  O  O119  1  0.995152  0.001185  0.263783  1
  O  O120  1  0.504704  0.001200  0.263783  1
  O  O121  1  0.004781  0.501197  0.264001  1
  O  O122  1  0.495140  0.501188  0.264022  1
  O  O123  1  0.580780  0.151808  0.760153  1
  O  O124  1  0.919277  0.151807  0.760153  1
  O  O125  1  0.580777  0.348054  0.760148  1
  O  O126  1  0.919297  0.348051  0.760145  1
  O  O127  1  0.419339  0.848043  0.446632  1
  O  O128  1  0.080818  0.848039  0.446636  1
  O  O129  1  0.419346  0.651794  0.446628  1
  O  O130  1  0.080847  0.651794  0.446631  1
  O  O131  1  0.750037  0.115037  0.449503  1
  O  O132  1  0.750079  0.384891  0.449486  1
  O  O133  1  0.250030  0.884875  0.757294  1
  O  O134  1  0.250047  0.615036  0.757278  1
  O  O135  1  0.750046  0.249940  0.437437  1
  O  O136  1  0.580875  0.029471  0.471600  1
  O  O137  1  0.919195  0.029469  0.471600  1
  O  O138  1  0.580966  0.470387  0.471599  1
  O  O139  1  0.919317  0.470365  0.471596  1
  O  O140  1  0.419160  0.970381  0.735186  1
  O  O141  1  0.080816  0.970373  0.735187  1
  O  O142  1  0.419234  0.529492  0.735181  1
  O  O143  1  0.080915  0.529472  0.735178  1
  O  O144  1  0.750031  0.138867  0.483632  1
  O  O145  1  0.750094  0.360881  0.483599  1
  O  O146  1  0.249992  0.860888  0.723180  1
  O  O147  1  0.250025  0.638882  0.723148  1
  O  O148  1  0.579923  0.128237  0.512423  1
  O  O149  1  0.920150  0.128239  0.512422  1
  O  O150  1  0.580070  0.371475  0.512387  1
  O  O151  1  0.920305  0.371425  0.512375  1
  O  O152  1  0.420093  0.871472  0.694398  1
  O  O153  1  0.079866  0.871468  0.694399  1
  O  O154  1  0.420173  0.628257  0.694361  1
  O  O155  1  0.079945  0.628239  0.694354  1
  O  O156  1  0.750037  0.249848  0.505564  1
  O  O157  1  0.249997  0.749862  0.701214  1
  O  O158  1  0.250026  0.156817  0.748348  1
  O  O159  1  0.250037  0.343042  0.748341  1
  O  O160  1  0.750077  0.843029  0.458440  1
  O  O161  1  0.750101  0.656805  0.458435  1
  O  O162  1  0.000000  0.105529  0.728987  1
  O  O163  1  0.500261  0.105536  0.728986  1
  O  O164  1  -0.000000  0.394321  0.728979  1
  O  O165  1  0.500321  0.394332  0.728984  1
  O  O166  1  0.000000  0.894315  0.477800  1
  O  O167  1  0.499791  0.894317  0.477798  1
  O  O168  1  0.000000  0.605518  0.477798  1
  O  O169  1  0.499862  0.605534  0.477798  1
  O  O170  1  0.018213  0.249922  0.738301  1
  O  O171  1  0.481856  0.249929  0.738303  1
  O  O172  1  0.981905  0.749913  0.468481  1
  O  O173  1  0.518263  0.749917  0.468478  1
  O  O174  1  0.018990  -0.000000  0.503020  1
  O  O175  1  0.481082  -0.000000  0.503020  1
  O  O176  1  0.019072  0.499087  0.503015  1
  O  O177  1  0.481228  0.499118  0.503020  1
  O  O178  1  0.981063  -0.000000  0.703768  1
  O  O179  1  0.518909  0.000000  0.703767  1
  O  O180  1  0.981107  0.500678  0.703757  1
  O  O181  1  0.519014  0.500686  0.703763  1
  O  O182  1  0.250040  0.989868  0.478622  1
  O  O183  1  0.250144  0.509990  0.478623  1
  O  O184  1  0.749991  0.009995  0.728163  1
  O  O185  1  0.750078  0.489880  0.728158  1
  O  O186  1  0.250033  0.082693  0.517862  1
  O  O187  1  0.250181  0.416957  0.517816  1
  O  O188  1  0.749977  0.916978  0.688967  1
  O  O189  1  0.750055  0.582700  0.688917  1
  O  O190  1  0.992415  0.038809  0.537480  1
  O  O191  1  0.507615  0.038797  0.537480  1
  O  O192  1  0.992663  0.460573  0.537470  1
  O  O193  1  0.507559  0.460635  0.537480  1
  O  O194  1  0.007388  0.960656  0.669308  1
  O  O195  1  0.492550  0.960651  0.669308  1
  O  O196  1  0.007601  0.538805  0.669295  1
  O  O197  1  0.492374  0.538805  0.669306  1
  O  O198  1  0.078518  0.123913  0.562870  1
  O  O199  1  0.421497  0.123887  0.562872  1
  O  O200  1  0.078761  0.375189  0.562808  1
  O  O201  1  0.421471  0.375237  0.562815  1
  O  O202  1  0.921301  0.875275  0.643972  1
  O  O203  1  0.578608  0.875269  0.643970  1
  O  O204  1  0.921491  0.623935  0.643911  1
  O  O205  1  0.578501  0.623929  0.643928  1
  O  O206  1  0.250127  0.249491  0.565227  1
  O  O207  1  0.749971  0.749536  0.641564  1
  O  O208  1  0.249988  0.157396  0.590392  1
  O  O209  1  0.250093  0.342154  0.590299  1
  O  O210  1  0.749986  0.842178  0.616486  1
  O  O211  1  0.749770  0.657420  0.616404  1
  O  O212  1  0.080178  0.122216  0.617608  1
  O  O213  1  0.419704  0.122219  0.617612  1
  O  O214  1  0.079512  0.378183  0.617365  1
  O  O215  1  0.420463  0.378164  0.617378  1
  O  O216  1  0.920402  0.878158  0.589408  1
  O  O217  1  0.579456  0.878159  0.589415  1
  O  O218  1  0.919890  0.622313  0.589207  1
  O  O219  1  0.580321  0.622176  0.589170  1
  O  O220  1  0.249944  0.250207  0.615413  1
  O  O221  1  0.749881  0.750201  0.591379  1
  O  O222  1  0.006004  0.990482  0.570071  1
  O  O223  1  0.493969  0.990463  0.570072  1
  O  O224  1  0.003325  0.508485  0.570085  1
  O  O225  1  0.497061  0.508545  0.570104  1
  O  O226  1  0.996939  0.008578  0.636682  1
  O  O227  1  0.502970  0.008572  0.636682  1
  O  O228  1  0.993982  0.490519  0.636697  1
  O  O229  1  0.506065  0.490494  0.636712  1
  O  O230  1  0.750000  0.073382  0.560014  1
  O  O231  1  0.750111  0.425080  0.559885  1
  O  O232  1  0.249955  0.925107  0.646905  1
  O  O233  1  0.249999  0.573395  0.646767  1
  O  O234  1  0.249940  0.930946  0.589141  1
  O  O235  1  0.250002  0.571227  0.587997  1
  O  O236  1  0.749946  0.071211  0.618778  1
  O  O237  1  0.749996  0.430977  0.617633  1
  O  O238  1  0.995152  0.001185  0.603273  1
  O  O239  1  0.504704  0.001200  0.603273  1
  O  O240  1  0.004781  0.501197  0.603491  1
  O  O241  1  0.495140  0.501188  0.603511  1
  O  O242  1  0.750037  0.115037  0.788993  1
  O  O243  1  0.750079  0.384891  0.788976  1
  O  O244  1  0.750046  0.249940  0.776927  1
  Si  Si245  1  0.045265  0.165548  0.404172  1
  Si  Si246  1  0.454787  0.165554  0.404173  1
  Si  Si247  1  0.045280  0.334304  0.404164  1
  Si  Si248  1  0.454800  0.334310  0.404167  1
  Si  Si249  1  0.954834  0.834292  0.123637  1
  Si  Si250  1  0.545314  0.834298  0.123634  1
  Si  Si251  1  0.954859  0.665536  0.123632  1
  Si  Si252  1  0.545337  0.665542  0.123630  1
  Si  Si253  1  0.045355  0.977384  0.143313  1
  Si  Si254  1  0.454726  0.977381  0.143313  1
  Si  Si255  1  0.045444  0.522456  0.143312  1
  Si  Si256  1  0.454833  0.522471  0.143315  1
  Si  Si257  1  0.954688  0.022467  0.384493  1
  Si  Si258  1  0.545298  0.022471  0.384492  1
  Si  Si259  1  0.954757  0.477389  0.384485  1
  Si  Si260  1  0.545386  0.477396  0.384490  1
  Si  Si261  1  0.044938  0.061960  0.178467  1
  Si  Si262  1  0.455127  0.061957  0.178467  1
  Si  Si263  1  0.045082  0.437683  0.178436  1
  Si  Si264  1  0.455257  0.437725  0.178443  1
  Si  Si265  1  0.955065  0.937727  0.349364  1
  Si  Si266  1  0.544891  0.937730  0.349363  1
  Si  Si267  1  0.955147  0.561961  0.349330  1
  Si  Si268  1  0.544954  0.561973  0.349337  1
  Si  Si269  1  0.955289  0.056931  0.218189  1
  Si  Si270  1  0.544719  0.056909  0.218190  1
  Si  Si271  1  0.955187  0.442036  0.218153  1
  Si  Si272  1  0.545047  0.442089  0.218163  1
  Si  Si273  1  0.044891  0.942121  0.309646  1
  Si  Si274  1  0.455022  0.942114  0.309646  1
  Si  Si275  1  0.044708  0.556941  0.309606  1
  Si  Si276  1  0.455276  0.556929  0.309616  1
  Si  Si277  1  0.044713  0.947826  0.248291  1
  Si  Si278  1  0.455168  0.947828  0.248293  1
  Si  Si279  1  0.044961  0.552972  0.247944  1
  Si  Si280  1  0.455016  0.552935  0.247959  1
  Si  Si281  1  0.954964  0.052948  0.279843  1
  Si  Si282  1  0.544927  0.052951  0.279845  1
  Si  Si283  1  0.955232  0.447865  0.279497  1
  Si  Si284  1  0.544762  0.447839  0.279513  1
  Si  Si285  1  0.750031  0.165174  0.432651  1
  Si  Si286  1  0.750049  0.334699  0.432643  1
  Si  Si287  1  0.250068  0.834687  0.095158  1
  Si  Si288  1  0.250085  0.665162  0.095152  1
  Si  Si289  1  0.750036  0.079351  0.128871  1
  Si  Si290  1  0.750117  0.420511  0.128861  1
  Si  Si291  1  0.249998  0.920507  0.398941  1
  Si  Si292  1  0.250054  0.579363  0.398928  1
  Si  Si293  1  0.750033  0.164139  0.164179  1
  Si  Si294  1  0.750123  0.335542  0.164142  1
  Si  Si295  1  0.249983  0.835556  0.363657  1
  Si  Si296  1  0.250029  0.664152  0.363621  1
  Si  Si297  1  0.250025  0.164630  0.230319  1
  Si  Si298  1  0.250135  0.334414  0.230248  1
  Si  Si299  1  0.749963  0.834456  0.297559  1
  Si  Si300  1  0.749954  0.664669  0.297496  1
  Si  Si301  1  0.249948  0.165324  0.271507  1
  Si  Si302  1  0.249999  0.335021  0.271422  1
  Si  Si303  1  0.749938  0.835018  0.256385  1
  Si  Si304  1  0.749951  0.665325  0.256311  1
  Si  Si305  1  0.045265  0.165548  0.743662  1
  Si  Si306  1  0.454787  0.165554  0.743662  1
  Si  Si307  1  0.045280  0.334304  0.743654  1
  Si  Si308  1  0.454800  0.334310  0.743656  1
  Si  Si309  1  0.954834  0.834292  0.463126  1
  Si  Si310  1  0.545314  0.834298  0.463124  1
  Si  Si311  1  0.954859  0.665536  0.463122  1
  Si  Si312  1  0.545337  0.665542  0.463119  1
  Si  Si313  1  0.045355  0.977384  0.482803  1
  Si  Si314  1  0.454726  0.977381  0.482803  1
  Si  Si315  1  0.045444  0.522456  0.482801  1
  Si  Si316  1  0.454833  0.522471  0.482805  1
  Si  Si317  1  0.954688  0.022467  0.723983  1
  Si  Si318  1  0.545298  0.022471  0.723981  1
  Si  Si319  1  0.954757  0.477389  0.723975  1
  Si  Si320  1  0.545386  0.477396  0.723980  1
  Si  Si321  1  0.044938  0.061960  0.517957  1
  Si  Si322  1  0.455127  0.061957  0.517957  1
  Si  Si323  1  0.045082  0.437683  0.517925  1
  Si  Si324  1  0.455257  0.437725  0.517933  1
  Si  Si325  1  0.955065  0.937727  0.688854  1
  Si  Si326  1  0.544891  0.937730  0.688853  1
  Si  Si327  1  0.955147  0.561961  0.688820  1
  Si  Si328  1  0.544954  0.561973  0.688827  1
  Si  Si329  1  0.955289  0.056931  0.557679  1
  Si  Si330  1  0.544719  0.056909  0.557680  1
  Si  Si331  1  0.955187  0.442036  0.557643  1
  Si  Si332  1  0.545047  0.442089  0.557652  1
  Si  Si333  1  0.044891  0.942121  0.649136  1
  Si  Si334  1  0.455022  0.942114  0.649136  1
  Si  Si335  1  0.044708  0.556941  0.649096  1
  Si  Si336  1  0.455276  0.556929  0.649106  1
  Si  Si337  1  0.044713  0.947826  0.587781  1
  Si  Si338  1  0.455168  0.947828  0.587783  1
  Si  Si339  1  0.044961  0.552972  0.587434  1
  Si  Si340  1  0.455016  0.552935  0.587448  1
  Si  Si341  1  0.954964  0.052948  0.619333  1
  Si  Si342  1  0.544927  0.052951  0.619334  1
  Si  Si343  1  0.955232  0.447865  0.618987  1
  Si  Si344  1  0.544762  0.447839  0.619002  1
  Si  Si345  1  0.750031  0.165174  0.772141  1
  Si  Si346  1  0.750049  0.334699  0.772133  1
  Si  Si347  1  0.250068  0.834687  0.434647  1
  Si  Si348  1  0.250085  0.665162  0.434642  1
  Si  Si349  1  0.750036  0.079351  0.468361  1
  Si  Si350  1  0.750117  0.420511  0.468350  1
  Si  Si351  1  0.249998  0.920507  0.738431  1
  Si  Si352  1  0.250054  0.579363  0.738418  1
  Si  Si353  1  0.750033  0.164139  0.503669  1
  Si  Si354  1  0.750123  0.335542  0.503631  1
  Si  Si355  1  0.249983  0.835556  0.703147  1
  Si  Si356  1  0.250029  0.664152  0.703111  1
  Si  Si357  1  0.250025  0.164630  0.569809  1
  Si  Si358  1  0.250135  0.334414  0.569738  1
  Si  Si359  1  0.749963  0.834456  0.637049  1
  Si  Si360  1  0.749954  0.664669  0.636986  1
  Si  Si361  1  0.249948  0.165324  0.610996  1
  Si  Si362  1  0.249999  0.335021  0.610912  1
  Si  Si363  1  0.749938  0.835018  0.595875  1
  Si  Si364  1  0.749951  0.665325  0.595801  1
  H  H365  1  0.250030  0.884875  0.066371  1
  H  H366  1  0.250047  0.615036  0.066355  1
  H  H367  1  0.750037  0.115037  0.098069  1
  H  H368  1  0.750079  0.384891  0.098052  1
  H  H369  1  0.250030  0.884875  0.769238  1
  H  H370  1  0.250047  0.615036  0.769222  1
  H  H371  1  0.750037  0.115037  0.800936  1
  H  H372  1  0.750079  0.384891  0.800919  1
