# generated using pymatgen
data_Si6H2O13
_symmetry_space_group_name_H-M   'P 1'
_cell_length_a   12.56904554
_cell_length_b   24.35339409
_cell_length_c   34.85454327
_cell_angle_alpha   114.80776686
_cell_angle_beta   90.00000000
_cell_angle_gamma   90.00000000
_symmetry_Int_Tables_number   1
_chemical_formula_structural   Si6H2O13
_chemical_formula_sum   'Si48 H16 O104'
_cell_volume   9684.41494028
_cell_formula_units_Z   8
loop_
 _symmetry_equiv_pos_site_id
 _symmetry_equiv_pos_as_xyz
  1  'x, y, z'
loop_
 _atom_site_type_symbol
 _atom_site_label
 _atom_site_symmetry_multiplicity
 _atom_site_fract_x
 _atom_site_fract_y
 _atom_site_fract_z
 _atom_site_occupancy
  O  O1  1  0.396274  0.335710  0.183860  1
  O  O2  1  0.103521  0.335711  0.183859  1
  O  O3  1  0.603517  0.835709  0.183858  1
  O  O4  1  0.896272  0.835711  0.183859  1
  O  O5  1  0.440798  0.054425  0.275207  1
  O  O6  1  0.440800  0.054426  0.440603  1
  O  O7  1  0.058986  0.054428  0.275207  1
  O  O8  1  0.058989  0.054426  0.440604  1
  O  O9  1  0.389368  0.140762  0.345950  1
  O  O10  1  0.389367  0.140762  0.420480  1
  O  O11  1  0.110421  0.140761  0.345951  1
  O  O12  1  0.110421  0.140760  0.420481  1
  O  O13  1  0.396272  0.164379  0.280212  1
  O  O14  1  0.396272  0.164381  0.206903  1
  O  O15  1  0.103520  0.164384  0.280215  1
  O  O16  1  0.103521  0.164381  0.206904  1
  O  O17  1  0.249893  0.099135  0.288912  1
  O  O18  1  0.249895  0.099134  0.453112  1
  O  O19  1  0.061689  0.234787  0.410781  1
  O  O20  1  0.438107  0.234788  0.410780  1
  O  O21  1  0.438113  0.265302  0.273145  1
  O  O22  1  0.061686  0.265306  0.273145  1
  O  O23  1  0.249898  0.281799  0.424563  1
  O  O24  1  0.249898  0.218295  0.259364  1
  O  O25  1  0.058994  0.445666  0.408720  1
  O  O26  1  0.058995  0.445667  0.243322  1
  O  O27  1  0.440800  0.445664  0.408718  1
  O  O28  1  0.440802  0.445663  0.243323  1
  O  O29  1  0.110420  0.359331  0.337975  1
  O  O30  1  0.110420  0.359332  0.263446  1
  O  O31  1  0.389377  0.359328  0.337974  1
  O  O32  1  0.389377  0.359328  0.263446  1
  O  O33  1  0.249897  0.400955  0.395012  1
  O  O34  1  0.249898  0.400956  0.230815  1
  O  O35  1  0.440725  0.630362  0.380167  1
  O  O36  1  0.059068  0.630365  0.380168  1
  O  O37  1  0.086266  0.530828  0.315709  1
  O  O38  1  0.086267  0.530828  0.386265  1
  O  O39  1  0.413531  0.530825  0.315709  1
  O  O40  1  0.413530  0.530825  0.386264  1
  O  O41  1  0.249898  0.577633  0.364708  1
  O  O42  1  0.396274  0.335710  0.477023  1
  O  O43  1  0.103521  0.335710  0.403712  1
  O  O44  1  0.103521  0.335711  0.477023  1
  O  O45  1  0.396274  0.335711  0.403713  1
  O  O46  1  0.059066  0.869730  0.303759  1
  O  O47  1  0.440721  0.869728  0.303759  1
  O  O48  1  0.413528  0.969265  0.368216  1
  O  O49  1  0.413529  0.969266  0.297662  1
  O  O50  1  0.086259  0.969267  0.368217  1
  O  O51  1  0.086259  0.969268  0.297662  1
  O  O52  1  0.249893  0.922462  0.319218  1
  O  O53  1  0.940720  0.130365  0.380168  1
  O  O54  1  0.559068  0.130364  0.380167  1
  O  O55  1  0.586260  0.030826  0.315709  1
  O  O56  1  0.586260  0.030826  0.386263  1
  O  O57  1  0.913526  0.030827  0.315710  1
  O  O58  1  0.913527  0.030827  0.386265  1
  O  O59  1  0.749894  0.077632  0.364709  1
  O  O60  1  0.940805  0.554429  0.275206  1
  O  O61  1  0.940805  0.554428  0.440605  1
  O  O62  1  0.558991  0.554424  0.275206  1
  O  O63  1  0.558990  0.554425  0.440604  1
  O  O64  1  0.889366  0.640760  0.345951  1
  O  O65  1  0.889367  0.640760  0.420481  1
  O  O66  1  0.610425  0.640757  0.345949  1
  O  O67  1  0.610425  0.640757  0.420479  1
  O  O68  1  0.749896  0.599134  0.288909  1
  O  O69  1  0.749896  0.599133  0.453115  1
  O  O70  1  0.559080  0.369727  0.303759  1
  O  O71  1  0.940722  0.369731  0.303759  1
  O  O72  1  0.913537  0.469270  0.368218  1
  O  O73  1  0.913536  0.469270  0.297663  1
  O  O74  1  0.586264  0.469266  0.368217  1
  O  O75  1  0.586264  0.469266  0.297662  1
  O  O76  1  0.749902  0.422468  0.319220  1
  O  O77  1  0.603517  0.664381  0.206903  1
  O  O78  1  0.603517  0.664381  0.280213  1
  O  O79  1  0.896270  0.664385  0.280215  1
  O  O80  1  0.896270  0.664383  0.206904  1
  O  O81  1  0.558989  0.945665  0.408719  1
  O  O82  1  0.558987  0.945665  0.243322  1
  O  O83  1  0.940799  0.945666  0.408720  1
  O  O84  1  0.940797  0.945668  0.243323  1
  O  O85  1  0.610423  0.859332  0.337976  1
  O  O86  1  0.610422  0.859331  0.263445  1
  O  O87  1  0.889365  0.859334  0.337976  1
  O  O88  1  0.889364  0.859334  0.263446  1
  O  O89  1  0.603518  0.835709  0.403712  1
  O  O90  1  0.603517  0.835709  0.477022  1
  O  O91  1  0.896272  0.835709  0.403712  1
  O  O92  1  0.896272  0.835711  0.477023  1
  O  O93  1  0.749894  0.900957  0.395016  1
  O  O94  1  0.749892  0.900957  0.230811  1
  O  O95  1  0.561690  0.734784  0.410779  1
  O  O96  1  0.938104  0.734786  0.410781  1
  O  O97  1  0.938100  0.765308  0.273146  1
  O  O98  1  0.561684  0.765305  0.273146  1
  O  O99  1  0.749896  0.781797  0.424562  1
  O  O100  1  0.749892  0.718295  0.259364  1
  O  O101  1  0.396272  0.164381  0.500066  1
  O  O102  1  0.103521  0.164381  0.500067  1
  O  O103  1  0.603517  0.664381  0.500067  1
  O  O104  1  0.896270  0.664383  0.500068  1
  Si  Si105  1  0.499895  -0.000000  0.403830  1
  Si  Si106  1  0.373011  0.203911  0.255147  1
  Si  Si107  1  0.126785  0.203913  0.255148  1
  Si  Si108  1  0.126785  0.296180  0.428779  1
  Si  Si109  1  0.371879  0.114642  0.296747  1
  Si  Si110  1  0.371880  0.114643  0.454369  1
  Si  Si111  1  0.127908  0.114644  0.296748  1
  Si  Si112  1  0.127910  0.114643  0.454370  1
  Si  Si113  1  0.052637  0.163572  0.389903  1
  Si  Si114  1  0.447153  0.163573  0.389903  1
  Si  Si115  1  0.373011  0.296181  0.428779  1
  Si  Si116  1  0.499894  -0.000000  0.280096  1
  Si  Si117  1  0.127911  0.385449  0.387178  1
  Si  Si118  1  0.127912  0.385450  0.229556  1
  Si  Si119  1  0.371882  0.385447  0.387177  1
  Si  Si120  1  0.371883  0.385447  0.229557  1
  Si  Si121  1  0.447165  0.336517  0.294023  1
  Si  Si122  1  0.052636  0.336521  0.294023  1
  Si  Si123  1  0.125806  0.569139  0.362219  1
  Si  Si124  1  0.373989  0.569136  0.362217  1
  Si  Si125  1  0.499897  0.500044  0.280096  1
  Si  Si126  1  0.499896  0.500045  0.403830  1
  Si  Si127  1  0.373986  0.930955  0.321708  1
  Si  Si128  1  0.125801  0.930957  0.321708  1
  Si  Si129  1  0.625802  0.069137  0.362218  1
  Si  Si130  1  0.873985  0.069138  0.362219  1
  Si  Si131  1  0.000000  -0.000000  0.403830  1
  Si  Si132  1  0.000000  -0.000000  0.280096  1
  Si  Si133  1  0.871881  0.614644  0.296747  1
  Si  Si134  1  0.871881  0.614643  0.454371  1
  Si  Si135  1  0.627911  0.614641  0.296746  1
  Si  Si136  1  0.627911  0.614641  0.454370  1
  Si  Si137  1  0.552642  0.663569  0.389902  1
  Si  Si138  1  0.947151  0.663571  0.389903  1
  Si  Si139  1  0.873993  0.430961  0.321709  1
  Si  Si140  1  0.625809  0.430956  0.321709  1
  Si  Si141  1  -0.000000  0.500048  0.403832  1
  Si  Si142  1  0.000000  0.500049  0.280096  1
  Si  Si143  1  0.873005  0.703914  0.255148  1
  Si  Si144  1  0.626779  0.703912  0.255147  1
  Si  Si145  1  0.626782  0.796178  0.428778  1
  Si  Si146  1  0.873009  0.796180  0.428779  1
  Si  Si147  1  0.627909  0.885449  0.387179  1
  Si  Si148  1  0.627908  0.885448  0.229555  1
  Si  Si149  1  0.871879  0.885449  0.387179  1
  Si  Si150  1  0.871878  0.885451  0.229556  1
  Si  Si151  1  0.947149  0.836523  0.294023  1
  Si  Si152  1  0.552638  0.836521  0.294023  1
  H  H153  1  0.396274  0.335710  0.158038  1
  H  H154  1  0.103521  0.335711  0.158037  1
  H  H155  1  0.603517  0.835709  0.158037  1
  H  H156  1  0.896272  0.835711  0.158037  1
  H  H157  1  0.396272  0.164381  0.181081  1
  H  H158  1  0.103521  0.164381  0.181082  1
  H  H159  1  0.396274  0.335710  0.502845  1
  H  H160  1  0.103521  0.335711  0.502844  1
  H  H161  1  0.603517  0.664381  0.181082  1
  H  H162  1  0.896270  0.664383  0.181083  1
  H  H163  1  0.603517  0.835709  0.502844  1
  H  H164  1  0.896272  0.835711  0.502844  1
  H  H165  1  0.396272  0.164381  0.525888  1
  H  H166  1  0.103521  0.164381  0.525889  1
  H  H167  1  0.603517  0.664381  0.525888  1
  H  H168  1  0.896270  0.664383  0.525889  1
