# generated using pymatgen
data_Si18H2O37
_symmetry_space_group_name_H-M   'P 1'
_cell_length_a   12.82938429
_cell_length_b   15.31141979
_cell_length_c   51.65507486
_cell_angle_alpha   90.00000000
_cell_angle_beta   120.00000000
_cell_angle_gamma   90.00000000
_symmetry_Int_Tables_number   1
_chemical_formula_structural   Si18H2O37
_chemical_formula_sum   'Si72 H8 O148'
_cell_volume   8787.49123223
_cell_formula_units_Z   4
loop_
 _symmetry_equiv_pos_site_id
 _symmetry_equiv_pos_as_xyz
  1  'x, y, z'
loop_
 _atom_site_type_symbol
 _atom_site_label
 _atom_site_symmetry_multiplicity
 _atom_site_fract_x
 _atom_site_fract_y
 _atom_site_fract_z
 _atom_site_occupancy
  O  O1  1  0.542833  0.250080  0.129194  1
  O  O2  1  0.913814  0.250080  0.129194  1
  O  O3  1  0.122802  0.121308  0.233506  1
  O  O4  1  0.753856  0.121308  0.233499  1
  O  O5  1  0.684867  0.166474  0.178143  1
  O  O6  1  0.968911  0.166475  0.178147  1
  O  O7  1  0.894868  0.109522  0.211913  1
  O  O8  1  0.772675  0.250080  0.151217  1
  O  O9  1  -0.000000  0.000000  0.196452  1
  O  O10  1  0.727626  0.000000  0.196445  1
  O  O11  1  0.876853  0.621336  0.202966  1
  O  O12  1  0.122802  0.378852  0.233506  1
  O  O13  1  0.753856  0.378853  0.233499  1
  O  O14  1  0.727626  0.500098  0.196445  1
  O  O15  1  -0.000000  0.500098  0.196452  1
  O  O16  1  0.789969  0.609536  0.237997  1
  O  O17  1  0.104792  0.609536  0.238004  1
  O  O18  1  0.894868  0.390639  0.211913  1
  O  O19  1  0.653956  0.666490  0.185847  1
  O  O20  1  0.314823  0.666481  0.256398  1
  O  O21  1  0.968911  0.333685  0.178147  1
  O  O22  1  0.684867  0.333687  0.178143  1
  O  O23  1  0.030835  0.666488  0.185855  1
  O  O24  1  0.654014  0.666480  0.256395  1
  O  O25  1  0.876852  0.878825  0.202966  1
  O  O26  1  0.654014  0.833681  0.256395  1
  O  O27  1  0.030835  0.833673  0.185855  1
  O  O28  1  0.653956  0.833671  0.185847  1
  O  O29  1  0.314823  0.833680  0.256398  1
  O  O30  1  0.789969  0.890625  0.237997  1
  O  O31  1  0.104792  0.890625  0.238004  1
  O  O32  1  0.545530  0.750080  0.207663  1
  O  O33  1  0.227096  0.750080  0.207666  1
  O  O34  1  0.456940  0.750080  0.242747  1
  O  O35  1  0.456852  0.750080  0.150578  1
  O  O36  1  0.085872  0.750080  0.150578  1
  O  O37  1  0.345671  0.166480  0.271722  1
  O  O38  1  0.684863  0.166482  0.271717  1
  O  O39  1  0.542746  0.250080  0.285368  1
  O  O40  1  0.209717  0.109536  0.290119  1
  O  O41  1  0.894895  0.109536  0.290111  1
  O  O42  1  0.727651  -0.000000  0.264055  1
  O  O43  1  0.272035  0.000000  0.264061  1
  O  O44  1  0.122834  0.121335  0.325150  1
  O  O45  1  -0.000000  0.000000  0.331664  1
  O  O46  1  0.272060  0.000000  0.331671  1
  O  O47  1  0.345729  0.166489  0.342269  1
  O  O48  1  0.454156  0.250080  0.320453  1
  O  O49  1  0.968850  0.166488  0.342260  1
  O  O50  1  0.772589  0.250080  0.320449  1
  O  O51  1  0.542833  0.250080  0.377537  1
  O  O52  1  0.913814  0.250080  0.377537  1
  O  O53  1  0.272035  0.500081  0.264061  1
  O  O54  1  0.727651  0.500079  0.264055  1
  O  O55  1  0.684863  0.333679  0.271717  1
  O  O56  1  0.209716  0.390625  0.290119  1
  O  O57  1  0.894895  0.390625  0.290111  1
  O  O58  1  0.345672  0.333681  0.271722  1
  O  O59  1  0.345730  0.333671  0.342269  1
  O  O60  1  0.968850  0.333673  0.342260  1
  O  O61  1  0.104818  0.609522  0.316203  1
  O  O62  1  -0.000000  0.500062  0.331664  1
  O  O63  1  0.272060  0.500063  0.331671  1
  O  O64  1  0.876885  0.621308  0.294610  1
  O  O65  1  0.245831  0.621307  0.294617  1
  O  O66  1  0.122833  0.378826  0.325150  1
  O  O67  1  0.030775  0.666475  0.349969  1
  O  O68  1  0.314819  0.666474  0.349972  1
  O  O69  1  0.227012  0.750080  0.376898  1
  O  O70  1  0.876885  0.878853  0.294610  1
  O  O71  1  0.245831  0.878853  0.294617  1
  O  O72  1  0.314819  0.833687  0.349972  1
  O  O73  1  0.030775  0.833686  0.349969  1
  O  O74  1  0.104818  0.890639  0.316203  1
  O  O75  1  0.122802  0.121308  0.481850  1
  O  O76  1  0.753856  0.121308  0.481843  1
  O  O77  1  0.684867  0.166474  0.426487  1
  O  O78  1  0.968911  0.166475  0.426491  1
  O  O79  1  0.894868  0.109522  0.460257  1
  O  O80  1  0.772675  0.250080  0.399561  1
  O  O81  1  0.000000  0.000000  0.444795  1
  O  O82  1  0.727626  0.000000  0.444789  1
  O  O83  1  0.876853  0.621336  0.451310  1
  O  O84  1  0.122802  0.378852  0.481850  1
  O  O85  1  0.753856  0.378853  0.481843  1
  O  O86  1  0.727626  0.500098  0.444789  1
  O  O87  1  0.000000  0.500098  0.444795  1
  O  O88  1  0.789969  0.609536  0.486341  1
  O  O89  1  0.104792  0.609536  0.486348  1
  O  O90  1  0.894868  0.390639  0.460257  1
  O  O91  1  0.653956  0.666490  0.434191  1
  O  O92  1  0.314823  0.666481  0.504742  1
  O  O93  1  0.968911  0.333685  0.426491  1
  O  O94  1  0.684867  0.333687  0.426487  1
  O  O95  1  0.030835  0.666488  0.434199  1
  O  O96  1  0.654014  0.666480  0.504738  1
  O  O97  1  0.876852  0.878825  0.451310  1
  O  O98  1  0.654014  0.833681  0.504738  1
  O  O99  1  0.030835  0.833673  0.434199  1
  O  O100  1  0.653956  0.833671  0.434191  1
  O  O101  1  0.314823  0.833680  0.504742  1
  O  O102  1  0.789969  0.890625  0.486341  1
  O  O103  1  0.104792  0.890625  0.486348  1
  O  O104  1  0.545530  0.750080  0.456007  1
  O  O105  1  0.227096  0.750080  0.456010  1
  O  O106  1  0.456940  0.750080  0.491091  1
  O  O107  1  0.456852  0.750080  0.398922  1
  O  O108  1  0.085872  0.750080  0.398922  1
  O  O109  1  0.345671  0.166480  0.520065  1
  O  O110  1  0.684863  0.166482  0.520061  1
  O  O111  1  0.542746  0.250080  0.533712  1
  O  O112  1  0.209717  0.109536  0.538463  1
  O  O113  1  0.894895  0.109536  0.538455  1
  O  O114  1  0.727651  0.000000  0.512399  1
  O  O115  1  0.272035  0.000000  0.512404  1
  O  O116  1  0.122834  0.121335  0.573494  1
  O  O117  1  0.000000  0.000000  0.580008  1
  O  O118  1  0.272060  0.000000  0.580015  1
  O  O119  1  0.345729  0.166489  0.590613  1
  O  O120  1  0.454156  0.250080  0.568797  1
  O  O121  1  0.968850  0.166488  0.590604  1
  O  O122  1  0.772589  0.250080  0.568793  1
  O  O123  1  0.542833  0.250080  0.625881  1
  O  O124  1  0.913814  0.250080  0.625881  1
  O  O125  1  0.272035  0.500081  0.512404  1
  O  O126  1  0.727651  0.500079  0.512399  1
  O  O127  1  0.684863  0.333679  0.520061  1
  O  O128  1  0.209716  0.390625  0.538462  1
  O  O129  1  0.894895  0.390625  0.538455  1
  O  O130  1  0.345672  0.333681  0.520065  1
  O  O131  1  0.345730  0.333671  0.590613  1
  O  O132  1  0.968850  0.333673  0.590604  1
  O  O133  1  0.104818  0.609522  0.564547  1
  O  O134  1  0.000000  0.500062  0.580008  1
  O  O135  1  0.272060  0.500063  0.580015  1
  O  O136  1  0.876885  0.621308  0.542954  1
  O  O137  1  0.245831  0.621307  0.542961  1
  O  O138  1  0.122833  0.378826  0.573494  1
  O  O139  1  0.030775  0.666475  0.598313  1
  O  O140  1  0.314819  0.666474  0.598316  1
  O  O141  1  0.227012  0.750080  0.625242  1
  O  O142  1  0.876885  0.878853  0.542954  1
  O  O143  1  0.245831  0.878853  0.542961  1
  O  O144  1  0.314819  0.833687  0.598316  1
  O  O145  1  0.030775  0.833686  0.598313  1
  O  O146  1  0.104818  0.890639  0.564547  1
  O  O147  1  0.456852  0.750080  0.647266  1
  O  O148  1  0.085872  0.750080  0.647266  1
  Si  Si149  1  0.000000  0.100212  0.204376  1
  Si  Si150  1  0.667372  0.250080  0.158524  1
  Si  Si151  1  0.907403  0.250081  0.158529  1
  Si  Si152  1  0.759912  0.100210  0.204371  1
  Si  Si153  1  0.759912  0.399951  0.204371  1
  Si  Si154  1  -0.000000  0.399949  0.204375  1
  Si  Si155  1  0.000000  0.600234  0.204483  1
  Si  Si156  1  0.759583  0.600237  0.204476  1
  Si  Si157  1  0.332369  0.750081  0.241132  1
  Si  Si158  1  0.000000  0.899926  0.204483  1
  Si  Si159  1  0.759583  0.899924  0.204476  1
  Si  Si160  1  0.574952  0.750081  0.181509  1
  Si  Si161  1  0.575001  0.750081  0.241129  1
  Si  Si162  1  0.092361  0.750080  0.181514  1
  Si  Si163  1  0.240074  0.100222  0.264140  1
  Si  Si164  1  0.759934  0.100224  0.264134  1
  Si  Si165  1  0.424686  0.250081  0.286987  1
  Si  Si166  1  0.667315  0.250080  0.286984  1
  Si  Si167  1  0.000000  0.100234  0.323633  1
  Si  Si168  1  0.907324  0.250081  0.346601  1
  Si  Si169  1  0.424735  0.250081  0.346608  1
  Si  Si170  1  0.240103  0.100237  0.323640  1
  Si  Si171  1  0.759934  0.399936  0.264135  1
  Si  Si172  1  0.240074  0.399938  0.264140  1
  Si  Si173  1  0.759612  0.600222  0.263975  1
  Si  Si174  1  0.239753  0.600224  0.263981  1
  Si  Si175  1  0.000000  0.600212  0.323740  1
  Si  Si176  1  0.000000  0.399926  0.323633  1
  Si  Si177  1  0.239774  0.600210  0.323745  1
  Si  Si178  1  0.240103  0.399924  0.323640  1
  Si  Si179  1  0.239753  0.899937  0.263981  1
  Si  Si180  1  0.759612  0.899939  0.263975  1
  Si  Si181  1  0.092283  0.750080  0.369587  1
  Si  Si182  1  0.239774  0.899951  0.323745  1
  Si  Si183  1  0.332315  0.750081  0.369591  1
  Si  Si184  1  -0.000000  0.899949  0.323740  1
  Si  Si185  1  -0.000000  0.100212  0.452720  1
  Si  Si186  1  0.667372  0.250080  0.406868  1
  Si  Si187  1  0.907403  0.250081  0.406873  1
  Si  Si188  1  0.759912  0.100210  0.452715  1
  Si  Si189  1  0.759912  0.399951  0.452715  1
  Si  Si190  1  0.000000  0.399949  0.452719  1
  Si  Si191  1  0.000000  0.600234  0.452827  1
  Si  Si192  1  0.759583  0.600237  0.452820  1
  Si  Si193  1  0.332369  0.750081  0.489475  1
  Si  Si194  1  -0.000000  0.899926  0.452827  1
  Si  Si195  1  0.759583  0.899924  0.452820  1
  Si  Si196  1  0.574952  0.750081  0.429853  1
  Si  Si197  1  0.575001  0.750081  0.489472  1
  Si  Si198  1  0.092361  0.750080  0.429858  1
  Si  Si199  1  0.240074  0.100222  0.512484  1
  Si  Si200  1  0.759934  0.100224  0.512478  1
  Si  Si201  1  0.424686  0.250081  0.535331  1
  Si  Si202  1  0.667315  0.250080  0.535327  1
  Si  Si203  1  0.000000  0.100234  0.571976  1
  Si  Si204  1  0.907324  0.250081  0.594945  1
  Si  Si205  1  0.424735  0.250081  0.594951  1
  Si  Si206  1  0.240103  0.100237  0.571984  1
  Si  Si207  1  0.759934  0.399936  0.512478  1
  Si  Si208  1  0.240074  0.399938  0.512484  1
  Si  Si209  1  0.759612  0.600222  0.512319  1
  Si  Si210  1  0.239753  0.600224  0.512325  1
  Si  Si211  1  0.000000  0.600212  0.572084  1
  Si  Si212  1  0.000000  0.399926  0.571977  1
  Si  Si213  1  0.239774  0.600210  0.572088  1
  Si  Si214  1  0.240103  0.399924  0.571984  1
  Si  Si215  1  0.239753  0.899937  0.512325  1
  Si  Si216  1  0.759612  0.899939  0.512319  1
  Si  Si217  1  0.092283  0.750080  0.617931  1
  Si  Si218  1  0.239774  0.899951  0.572088  1
  Si  Si219  1  0.332315  0.750081  0.617935  1
  Si  Si220  1  0.000000  0.899949  0.572084  1
  H  H221  1  0.542833  0.250080  0.111770  1
  H  H222  1  0.913814  0.250080  0.111770  1
  H  H223  1  0.456852  0.750080  0.133155  1
  H  H224  1  0.085872  0.750080  0.133155  1
  H  H225  1  0.542833  0.250080  0.643304  1
  H  H226  1  0.913814  0.250080  0.643304  1
  H  H227  1  0.456852  0.750080  0.664689  1
  H  H228  1  0.085872  0.750080  0.664689  1
