# generated using pymatgen
data_Si6H2O13
_symmetry_space_group_name_H-M   'P 1'
_cell_length_a   7.50249860
_cell_length_b   18.12388572
_cell_length_c   31.73437482
_cell_angle_alpha   90.00000000
_cell_angle_beta   90.00000000
_cell_angle_gamma   90.00000000
_symmetry_Int_Tables_number   1
_chemical_formula_structural   Si6H2O13
_chemical_formula_sum   'Si24 H8 O52'
_cell_volume   4315.06344033
_cell_formula_units_Z   4
loop_
 _symmetry_equiv_pos_site_id
 _symmetry_equiv_pos_as_xyz
  1  'x, y, z'
loop_
 _atom_site_type_symbol
 _atom_site_label
 _atom_site_symmetry_multiplicity
 _atom_site_fract_x
 _atom_site_fract_y
 _atom_site_fract_z
 _atom_site_occupancy
  O  O1  1  0.992415  0.038809  0.185942  1
  O  O2  1  0.507615  0.038797  0.185942  1
  O  O3  1  0.992663  0.460573  0.185918  1
  O  O4  1  0.507559  0.460635  0.185942  1
  O  O5  1  0.007388  0.960656  0.498966  1
  O  O6  1  0.492550  0.960651  0.498964  1
  O  O7  1  0.007601  0.538805  0.498934  1
  O  O8  1  0.492374  0.538805  0.498960  1
  O  O9  1  0.078518  0.123913  0.246230  1
  O  O10  1  0.421497  0.123887  0.246236  1
  O  O11  1  0.078761  0.375189  0.246083  1
  O  O12  1  0.421471  0.375237  0.246099  1
  O  O13  1  0.921301  0.875275  0.438806  1
  O  O14  1  0.578608  0.875269  0.438800  1
  O  O15  1  0.921491  0.623935  0.438661  1
  O  O16  1  0.578501  0.623929  0.438702  1
  O  O17  1  0.250127  0.249491  0.251828  1
  O  O18  1  0.749971  0.749536  0.433089  1
  O  O19  1  0.249988  0.157396  0.311581  1
  O  O20  1  0.250093  0.342154  0.311361  1
  O  O21  1  0.749986  0.842178  0.373541  1
  O  O22  1  0.749770  0.657420  0.373346  1
  O  O23  1  0.080178  0.122216  0.376204  1
  O  O24  1  0.419704  0.122219  0.376215  1
  O  O25  1  0.079512  0.378183  0.375627  1
  O  O26  1  0.420463  0.378164  0.375659  1
  O  O27  1  0.920402  0.878158  0.309243  1
  O  O28  1  0.579456  0.878159  0.309261  1
  O  O29  1  0.919890  0.622313  0.308766  1
  O  O30  1  0.580321  0.622176  0.308680  1
  O  O31  1  0.249944  0.250207  0.370991  1
  O  O32  1  0.749881  0.750201  0.313925  1
  O  O33  1  0.006004  0.990482  0.263329  1
  O  O34  1  0.493969  0.990463  0.263331  1
  O  O35  1  0.003325  0.508485  0.263362  1
  O  O36  1  0.497061  0.508545  0.263408  1
  O  O37  1  0.996939  0.008578  0.421495  1
  O  O38  1  0.502970  0.008572  0.421496  1
  O  O39  1  0.993982  0.490519  0.421530  1
  O  O40  1  0.506065  0.490494  0.421568  1
  O  O41  1  0.750000  0.073382  0.239447  1
  O  O42  1  0.750111  0.425080  0.239141  1
  O  O43  1  0.249955  0.925107  0.445769  1
  O  O44  1  0.249999  0.573395  0.445443  1
  O  O45  1  0.249940  0.930946  0.308610  1
  O  O46  1  0.250002  0.571227  0.305895  1
  O  O47  1  0.749946  0.071211  0.378982  1
  O  O48  1  0.749996  0.430977  0.376263  1
  O  O49  1  0.995152  0.001185  0.342166  1
  O  O50  1  0.504704  0.001200  0.342166  1
  O  O51  1  0.004781  0.501197  0.342684  1
  O  O52  1  0.495140  0.501188  0.342732  1
  Si  Si53  1  0.955289  0.056931  0.233905  1
  Si  Si54  1  0.544719  0.056909  0.233906  1
  Si  Si55  1  0.955187  0.442036  0.233818  1
  Si  Si56  1  0.545047  0.442089  0.233841  1
  Si  Si57  1  0.044891  0.942121  0.451067  1
  Si  Si58  1  0.455022  0.942114  0.451067  1
  Si  Si59  1  0.044708  0.556941  0.450972  1
  Si  Si60  1  0.455276  0.556929  0.450997  1
  Si  Si61  1  0.044713  0.947826  0.305381  1
  Si  Si62  1  0.455168  0.947828  0.305385  1
  Si  Si63  1  0.044961  0.552972  0.304557  1
  Si  Si64  1  0.455016  0.552935  0.304591  1
  Si  Si65  1  0.954964  0.052948  0.380300  1
  Si  Si66  1  0.544927  0.052951  0.380304  1
  Si  Si67  1  0.955232  0.447865  0.379478  1
  Si  Si68  1  0.544762  0.447839  0.379515  1
  Si  Si69  1  0.250025  0.164630  0.262707  1
  Si  Si70  1  0.250135  0.334414  0.262537  1
  Si  Si71  1  0.749963  0.834456  0.422367  1
  Si  Si72  1  0.749954  0.664669  0.422218  1
  Si  Si73  1  0.249948  0.165324  0.360506  1
  Si  Si74  1  0.249999  0.335021  0.360304  1
  Si  Si75  1  0.749938  0.835018  0.324600  1
  Si  Si76  1  0.749951  0.665325  0.324424  1
  H  H77  1  0.992415  0.038809  0.157582  1
  H  H78  1  0.507615  0.038797  0.157582  1
  H  H79  1  0.992663  0.460573  0.157558  1
  H  H80  1  0.507559  0.460635  0.157582  1
  H  H81  1  0.007388  0.960656  0.527326  1
  H  H82  1  0.492550  0.960651  0.527325  1
  H  H83  1  0.007601  0.538805  0.527294  1
  H  H84  1  0.492374  0.538805  0.527320  1
