# generated using pymatgen
data_Si8H2O17
_symmetry_space_group_name_H-M   'P 1'
_cell_length_a   13.80613488
_cell_length_b   20.14838188
_cell_length_c   35.56088633
_cell_angle_alpha   90.00000000
_cell_angle_beta   90.00000000
_cell_angle_gamma   90.00000000
_symmetry_Int_Tables_number   1
_chemical_formula_structural   Si8H2O17
_chemical_formula_sum   'Si64 H16 O136'
_cell_volume   9892.01719119
_cell_formula_units_Z   8
loop_
 _symmetry_equiv_pos_site_id
 _symmetry_equiv_pos_as_xyz
  1  'x, y, z'
loop_
 _atom_site_type_symbol
 _atom_site_label
 _atom_site_symmetry_multiplicity
 _atom_site_fract_x
 _atom_site_fract_y
 _atom_site_fract_z
 _atom_site_occupancy
  O  O1  1  0.843775  0.913027  0.479061  1
  O  O2  1  0.155483  0.913392  0.478832  1
  O  O3  1  0.843780  0.913303  0.552575  1
  O  O4  1  0.156296  0.913154  0.552390  1
  O  O5  1  0.836562  0.703425  0.479742  1
  O  O6  1  0.163363  0.703387  0.479701  1
  O  O7  1  0.836460  0.703367  0.551997  1
  O  O8  1  0.163481  0.703549  0.551950  1
  O  O9  1  0.875227  0.807735  0.515909  1
  O  O10  1  0.124676  0.807805  0.515679  1
  O  O11  1  -0.000000  0.896438  0.515826  1
  O  O12  1  0.000000  0.717546  0.515876  1
  O  O13  1  0.656733  0.086754  0.552274  1
  O  O14  1  0.344424  0.086550  0.552880  1
  O  O15  1  0.655353  0.086502  0.478737  1
  O  O16  1  0.343349  0.086781  0.479338  1
  O  O17  1  0.663519  0.296268  0.551854  1
  O  O18  1  0.336488  0.296539  0.551900  1
  O  O19  1  0.663366  0.296536  0.479628  1
  O  O20  1  0.336484  0.296292  0.479672  1
  O  O21  1  0.624663  0.192064  0.515577  1
  O  O22  1  0.375275  0.192084  0.515986  1
  O  O23  1  0.499966  0.103378  0.515854  1
  O  O24  1  0.499967  0.282329  0.515784  1
  O  O25  1  0.759724  0.627494  0.426796  1
  O  O26  1  0.240267  0.627517  0.426762  1
  O  O27  1  0.259281  0.627529  0.291975  1
  O  O28  1  0.740769  0.627540  0.292026  1
  O  O29  1  0.600006  0.575846  0.399807  1
  O  O30  1  0.399978  0.575843  0.399802  1
  O  O31  1  0.099939  0.574822  0.319035  1
  O  O32  1  0.900091  0.574799  0.319047  1
  O  O33  1  0.750052  0.586759  0.359417  1
  O  O34  1  0.249978  0.586772  0.359389  1
  O  O35  1  0.749987  0.500010  0.308759  1
  O  O36  1  0.750571  -0.000000  0.277265  1
  O  O37  1  0.907749  0.951663  0.415760  1
  O  O38  1  0.093295  0.952537  0.415172  1
  O  O39  1  0.407918  0.951228  0.302728  1
  O  O40  1  0.593314  0.952426  0.303742  1
  O  O41  1  0.757620  0.881013  0.418557  1
  O  O42  1  0.242370  0.881024  0.418593  1
  O  O43  1  0.257656  0.880970  0.300082  1
  O  O44  1  0.742317  0.881010  0.300247  1
  O  O45  1  0.598888  0.823057  0.398367  1
  O  O46  1  0.401074  0.823118  0.398362  1
  O  O47  1  0.098992  0.823253  0.320315  1
  O  O48  1  0.901062  0.823317  0.320357  1
  O  O49  1  0.750034  0.811312  0.359400  1
  O  O50  1  0.250011  0.811493  0.359370  1
  O  O51  1  0.745655  0.754500  0.422824  1
  O  O52  1  0.254305  0.754531  0.422776  1
  O  O53  1  0.245702  0.754472  0.295998  1
  O  O54  1  0.754368  0.754523  0.295956  1
  O  O55  1  0.907356  0.699592  0.416048  1
  O  O56  1  0.092630  0.699608  0.416018  1
  O  O57  1  0.407335  0.699387  0.302651  1
  O  O58  1  0.592764  0.699446  0.302736  1
  O  O59  1  -0.000000  0.750502  0.362608  1
  O  O60  1  0.499898  0.749689  0.356289  1
  O  O61  1  0.000000  0.624666  0.371104  1
  O  O62  1  0.499989  0.623506  0.347088  1
  O  O63  1  0.000000  0.500635  0.360346  1
  O  O64  1  -0.000000  0.875785  0.372370  1
  O  O65  1  0.500080  0.875194  0.346242  1
  O  O66  1  0.249998  0.500005  0.308759  1
  O  O67  1  0.496845  0.000000  0.359648  1
  O  O68  1  0.249980  0.500008  0.410054  1
  O  O69  1  0.250579  0.000000  0.441583  1
  O  O70  1  0.997818  0.000000  0.359071  1
  O  O71  1  0.750400  -0.000000  0.441543  1
  O  O72  1  0.499992  0.499103  0.360448  1
  O  O73  1  0.240687  0.372455  0.292037  1
  O  O74  1  0.759280  0.372466  0.292000  1
  O  O75  1  0.740250  0.372458  0.426727  1
  O  O76  1  0.259798  0.372482  0.426779  1
  O  O77  1  0.400060  0.425172  0.319025  1
  O  O78  1  0.599922  0.425172  0.319020  1
  O  O79  1  0.899990  0.424137  0.399817  1
  O  O80  1  0.100032  0.424112  0.399826  1
  O  O81  1  0.250046  0.413254  0.359415  1
  O  O82  1  0.749979  0.413256  0.359388  1
  O  O83  1  0.093172  0.047890  0.303432  1
  O  O84  1  0.907901  0.048789  0.302831  1
  O  O85  1  0.593292  0.047478  0.415053  1
  O  O86  1  0.407916  0.048707  0.416060  1
  O  O87  1  0.242375  0.118979  0.300042  1
  O  O88  1  0.757598  0.118971  0.300071  1
  O  O89  1  0.742420  0.118893  0.418564  1
  O  O90  1  0.257527  0.118958  0.418734  1
  O  O91  1  0.400993  0.176614  0.320267  1
  O  O92  1  0.598944  0.176659  0.320255  1
  O  O93  1  0.901091  0.176785  0.398388  1
  O  O94  1  0.098927  0.176863  0.398434  1
  O  O95  1  0.250018  0.188268  0.359389  1
  O  O96  1  0.749997  0.188423  0.359352  1
  O  O97  1  0.254305  0.245478  0.296059  1
  O  O98  1  0.745632  0.245496  0.296011  1
  O  O99  1  0.754340  0.245418  0.422732  1
  O  O100  1  0.245687  0.245487  0.422700  1
  O  O101  1  0.092685  0.300499  0.302744  1
  O  O102  1  0.907276  0.300514  0.302711  1
  O  O103  1  0.592656  0.300286  0.415948  1
  O  O104  1  0.407406  0.300335  0.416018  1
  O  O105  1  -0.000000  0.249881  0.356203  1
  O  O106  1  0.499910  0.249058  0.362678  1
  O  O107  1  -0.000000  0.376164  0.347204  1
  O  O108  1  0.499986  0.374993  0.370972  1
  O  O109  1  0.000000  0.124231  0.346535  1
  O  O110  1  0.500069  0.123633  0.372045  1
  O  O111  1  0.250455  -0.000000  0.277213  1
  O  O112  1  0.749989  0.499993  0.410055  1
  O  O113  1  0.344683  0.913357  0.165913  1
  O  O114  1  0.656495  0.913137  0.166516  1
  O  O115  1  0.343274  0.913056  0.239443  1
  O  O116  1  0.655443  0.913338  0.240044  1
  O  O117  1  0.336558  0.703212  0.166789  1
  O  O118  1  0.663541  0.703583  0.166813  1
  O  O119  1  0.336395  0.703509  0.239023  1
  O  O120  1  0.663445  0.703245  0.239064  1
  O  O121  1  0.375209  0.807707  0.202729  1
  O  O122  1  0.624719  0.807728  0.203157  1
  O  O123  1  0.499969  0.896365  0.203030  1
  O  O124  1  0.499981  0.717495  0.202942  1
  O  O125  1  0.155835  0.086443  0.239749  1
  O  O126  1  0.843403  0.086788  0.239514  1
  O  O127  1  0.155857  0.086764  0.166192  1
  O  O128  1  0.844216  0.086610  0.166004  1
  O  O129  1  0.163505  0.296523  0.239122  1
  O  O130  1  0.836388  0.296459  0.239078  1
  O  O131  1  0.163402  0.296419  0.166912  1
  O  O132  1  0.836515  0.296573  0.166862  1
  O  O133  1  0.124668  0.192094  0.203077  1
  O  O134  1  0.875206  0.192168  0.202850  1
  O  O135  1  0.000000  0.103458  0.202976  1
  O  O136  1  0.000000  0.282378  0.203024  1
  Si  Si137  1  0.112376  0.730945  0.515821  1
  Si  Si138  1  0.887544  0.730877  0.515886  1
  Si  Si139  1  0.111559  0.884430  0.515653  1
  Si  Si140  1  0.888260  0.884359  0.515851  1
  Si  Si141  1  0.387556  0.268940  0.515810  1
  Si  Si142  1  0.611617  0.115435  0.515591  1
  Si  Si143  1  0.388319  0.115456  0.516045  1
  Si  Si144  1  0.612374  0.268922  0.515726  1
  Si  Si145  1  0.499984  0.818645  0.376422  1
  Si  Si146  1  0.000000  0.819183  0.342248  1
  Si  Si147  1  0.499760  0.945703  0.328068  1
  Si  Si148  1  0.714722  0.572532  0.400731  1
  Si  Si149  1  0.285260  0.572537  0.400709  1
  Si  Si150  1  0.214638  0.572471  0.318084  1
  Si  Si151  1  0.785392  0.572455  0.318111  1
  Si  Si152  1  0.814529  0.936913  0.439047  1
  Si  Si153  1  0.185673  0.937208  0.438906  1
  Si  Si154  1  0.314443  0.936845  0.279531  1
  Si  Si155  1  0.685646  0.937211  0.279954  1
  Si  Si156  1  0.712765  0.817663  0.400686  1
  Si  Si157  1  0.287195  0.817730  0.400670  1
  Si  Si158  1  0.212862  0.817712  0.318064  1
  Si  Si159  1  0.787205  0.817691  0.318103  1
  Si  Si160  1  0.808976  0.695238  0.437288  1
  Si  Si161  1  0.191016  0.695260  0.437249  1
  Si  Si162  1  0.308848  0.695181  0.281473  1
  Si  Si163  1  0.691185  0.695170  0.281515  1
  Si  Si164  1  -0.000000  0.692841  0.391657  1
  Si  Si165  1  0.499981  0.692284  0.327013  1
  Si  Si166  1  -0.000000  0.569280  0.340310  1
  Si  Si167  1  0.499997  0.569350  0.378648  1
  Si  Si168  1  0.000000  0.946183  0.390652  1
  Si  Si169  1  0.499748  0.053598  0.390693  1
  Si  Si170  1  0.499975  0.180548  0.342156  1
  Si  Si171  1  -0.000000  0.181083  0.376487  1
  Si  Si172  1  0.285358  0.427550  0.318106  1
  Si  Si173  1  0.714621  0.427548  0.318084  1
  Si  Si174  1  0.785272  0.427468  0.400707  1
  Si  Si175  1  0.214749  0.427461  0.400734  1
  Si  Si176  1  0.185722  0.062783  0.279741  1
  Si  Si177  1  0.814489  0.063066  0.279597  1
  Si  Si178  1  0.685613  0.062707  0.438823  1
  Si  Si179  1  0.314451  0.063090  0.439242  1
  Si  Si180  1  0.287127  0.182181  0.318071  1
  Si  Si181  1  0.712808  0.182228  0.318049  1
  Si  Si182  1  0.787217  0.182198  0.400648  1
  Si  Si183  1  0.212812  0.182197  0.400694  1
  Si  Si184  1  0.191152  0.304787  0.281563  1
  Si  Si185  1  0.808812  0.304795  0.281521  1
  Si  Si186  1  0.691029  0.304693  0.437183  1
  Si  Si187  1  0.308990  0.304692  0.437227  1
  Si  Si188  1  0.000000  0.307470  0.327059  1
  Si  Si189  1  0.499973  0.306900  0.391594  1
  Si  Si190  1  0.000000  0.430483  0.378659  1
  Si  Si191  1  0.499995  0.430561  0.340297  1
  Si  Si192  1  0.000000  0.054067  0.328011  1
  Si  Si193  1  0.388327  0.884332  0.202759  1
  Si  Si194  1  0.611618  0.884354  0.203216  1
  Si  Si195  1  0.387552  0.730849  0.202889  1
  Si  Si196  1  0.612406  0.730871  0.202967  1
  Si  Si197  1  0.112367  0.268961  0.203038  1
  Si  Si198  1  0.887535  0.269023  0.202971  1
  Si  Si199  1  0.111547  0.115470  0.203007  1
  Si  Si200  1  0.888254  0.115539  0.202808  1
  H  H201  1  0.843780  0.913303  0.577884  1
  H  H202  1  0.156296  0.913154  0.577698  1
  H  H203  1  0.836460  0.703367  0.577306  1
  H  H204  1  0.163481  0.703549  0.577258  1
  H  H205  1  0.656733  0.086754  0.577583  1
  H  H206  1  0.344424  0.086550  0.578188  1
  H  H207  1  0.663519  0.296268  0.577163  1
  H  H208  1  0.336488  0.296539  0.577208  1
  H  H209  1  0.344683  0.913357  0.140604  1
  H  H210  1  0.656495  0.913137  0.141208  1
  H  H211  1  0.336558  0.703212  0.141480  1
  H  H212  1  0.663541  0.703583  0.141504  1
  H  H213  1  0.155857  0.086764  0.140884  1
  H  H214  1  0.844216  0.086610  0.140695  1
  H  H215  1  0.163402  0.296419  0.141604  1
  H  H216  1  0.836515  0.296573  0.141554  1
