# generated using pymatgen
data_Si10H2O21
_symmetry_space_group_name_H-M   'P 1'
_cell_length_a   6.89841315
_cell_length_b   6.32871661
_cell_length_c   35.59776766
_cell_angle_alpha   90.00000000
_cell_angle_beta   90.00000000
_cell_angle_gamma   90.00000000
_symmetry_Int_Tables_number   1
_chemical_formula_structural   Si10H2O21
_chemical_formula_sum   'Si10 H2 O21'
_cell_volume   1554.13096738
_cell_formula_units_Z   1
loop_
 _symmetry_equiv_pos_site_id
 _symmetry_equiv_pos_as_xyz
  1  'x, y, z'
loop_
 _atom_site_type_symbol
 _atom_site_label
 _atom_site_symmetry_multiplicity
 _atom_site_fract_x
 _atom_site_fract_y
 _atom_site_fract_z
 _atom_site_occupancy
  O  O1  1  0.000000  0.347847  0.227046  1
  O  O2  1  0.180238  0.000000  0.227640  1
  O  O3  1  0.819055  0.000000  0.227640  1
  O  O4  1  -0.000000  0.110023  0.165741  1
  O  O5  1  0.000000  0.347847  0.298236  1
  O  O6  1  0.183313  0.650652  0.262641  1
  O  O7  1  0.000000  0.347847  0.420847  1
  O  O8  1  0.815980  0.650652  0.262641  1
  O  O9  1  0.180238  0.000000  0.297642  1
  O  O10  1  0.180238  0.000000  0.421441  1
  O  O11  1  0.819055  0.000000  0.421441  1
  O  O12  1  0.819054  0.000000  0.297642  1
  O  O13  1  0.000000  0.110023  0.359542  1
  O  O14  1  0.499646  0.888489  0.262641  1
  O  O15  1  0.000000  0.347847  0.492037  1
  O  O16  1  0.183313  0.650652  0.456442  1
  O  O17  1  0.815980  0.650652  0.456442  1
  O  O18  1  0.180238  0.000000  0.491443  1
  O  O19  1  0.819054  0.000000  0.491443  1
  O  O20  1  0.000000  0.110023  0.553343  1
  O  O21  1  0.499646  0.888489  0.456442  1
  Si  Si22  1  0.000000  0.117576  0.209598  1
  Si  Si23  1  -0.000000  0.117576  0.315684  1
  Si  Si24  1  0.273355  0.880921  0.262642  1
  Si  Si25  1  -0.000000  0.117576  0.403400  1
  Si  Si26  1  0.725938  0.880920  0.262641  1
  Si  Si27  1  -0.000000  0.499268  0.262641  1
  Si  Si28  1  0.000000  0.117576  0.509485  1
  Si  Si29  1  0.273355  0.880921  0.456443  1
  Si  Si30  1  0.725938  0.880920  0.456442  1
  Si  Si31  1  -0.000000  0.499268  0.456442  1
  H  H32  1  -0.000000  0.110023  0.140458  1
  H  H33  1  0.000000  0.110023  0.578625  1
