# generated using pymatgen
data_Si5H2O11
_symmetry_space_group_name_H-M   'P 1'
_cell_length_a   6.89841315
_cell_length_b   6.32871661
_cell_length_c   28.69888383
_cell_angle_alpha   90.00000000
_cell_angle_beta   90.00000000
_cell_angle_gamma   90.00000000
_symmetry_Int_Tables_number   1
_chemical_formula_structural   Si5H2O11
_chemical_formula_sum   'Si5 H2 O11'
_cell_volume   1252.93879424
_cell_formula_units_Z   1
loop_
 _symmetry_equiv_pos_site_id
 _symmetry_equiv_pos_as_xyz
  1  'x, y, z'
loop_
 _atom_site_type_symbol
 _atom_site_label
 _atom_site_symmetry_multiplicity
 _atom_site_fract_x
 _atom_site_fract_y
 _atom_site_fract_z
 _atom_site_occupancy
  O  O1  1  0.000000  0.347847  0.281626  1
  O  O2  1  0.180238  0.000000  0.282362  1
  O  O3  1  0.819055  0.000000  0.282362  1
  O  O4  1  0.000000  0.110023  0.205583  1
  O  O5  1  0.000000  0.347847  0.369928  1
  O  O6  1  0.183313  0.650652  0.325777  1
  O  O7  1  0.815980  0.650652  0.325777  1
  O  O8  1  0.180238  -0.000000  0.369192  1
  O  O9  1  0.819054  0.000000  0.369192  1
  O  O10  1  0.000000  0.110023  0.445971  1
  O  O11  1  0.499646  0.888489  0.325777  1
  Si  Si12  1  0.000000  0.117576  0.259984  1
  Si  Si13  1  -0.000000  0.117576  0.391571  1
  Si  Si14  1  0.273355  0.880921  0.325778  1
  Si  Si15  1  0.725938  0.880920  0.325777  1
  Si  Si16  1  -0.000000  0.499268  0.325777  1
  H  H17  1  0.000000  0.110023  0.174223  1
  H  H18  1  0.000000  0.110023  0.477332  1
