# generated using pymatgen
data_Si23(H4O25)2
_symmetry_space_group_name_H-M   'P 1'
_cell_length_a   13.77465444
_cell_length_b   35.19864774
_cell_length_c   35.32868677
_cell_angle_alpha   90.00000000
_cell_angle_beta   90.00000000
_cell_angle_gamma   90.00000000
_symmetry_Int_Tables_number   1
_chemical_formula_structural   Si23(H4O25)2
_chemical_formula_sum   'Si92 H32 O200'
_cell_volume   17129.0858465
_cell_formula_units_Z   4
loop_
 _symmetry_equiv_pos_site_id
 _symmetry_equiv_pos_as_xyz
  1  'x, y, z'
loop_
 _atom_site_type_symbol
 _atom_site_label
 _atom_site_symmetry_multiplicity
 _atom_site_fract_x
 _atom_site_fract_y
 _atom_site_fract_z
 _atom_site_occupancy
  O  O1  1  0.337601  0.924575  0.167079  1
  O  O2  1  0.663136  0.924365  0.167198  1
  O  O3  1  0.343161  0.802490  0.167056  1
  O  O4  1  0.655776  0.802126  0.167003  1
  O  O5  1  0.499731  0.813624  0.203412  1
  O  O6  1  0.399757  -0.000000  0.399144  1
  O  O7  1  0.600435  -0.000000  0.399138  1
  O  O8  1  0.100435  -0.000000  0.317761  1
  O  O9  1  0.497566  0.250324  0.358094  1
  O  O10  1  0.996790  0.250151  0.358587  1
  O  O11  1  0.251073  0.108936  0.422595  1
  O  O12  1  0.249325  0.108955  0.294360  1
  O  O13  1  0.749296  0.108918  0.422598  1
  O  O14  1  0.751218  0.108879  0.294359  1
  O  O15  1  0.162952  0.075254  0.477108  1
  O  O16  1  0.337336  0.075175  0.239838  1
  O  O17  1  0.837338  0.075443  0.477317  1
  O  O18  1  0.662895  0.075557  0.239650  1
  O  O19  1  0.246201  0.036237  0.420935  1
  O  O20  1  0.254154  0.036247  0.296082  1
  O  O21  1  0.753472  0.036084  0.421806  1
  O  O22  1  0.746693  0.036064  0.295082  1
  O  O23  1  0.093211  0.074844  0.413022  1
  O  O24  1  0.407149  0.074875  0.303896  1
  O  O25  1  0.906745  0.074498  0.413166  1
  O  O26  1  0.593603  0.074576  0.303836  1
  O  O27  1  0.257024  0.181971  0.300553  1
  O  O28  1  0.257383  0.317953  0.416452  1
  O  O29  1  0.243203  0.181929  0.416509  1
  O  O30  1  0.242885  0.318036  0.300395  1
  O  O31  1  0.742824  0.317991  0.416668  1
  O  O32  1  0.742882  0.181858  0.300310  1
  O  O33  1  0.757345  0.317942  0.300405  1
  O  O34  1  0.757434  0.181938  0.416490  1
  O  O35  1  0.250146  0.140050  0.358502  1
  O  O36  1  0.750099  0.140102  0.358452  1
  O  O37  1  0.099497  0.147383  0.318617  1
  O  O38  1  0.400814  0.147443  0.398357  1
  O  O39  1  0.900601  0.147572  0.318570  1
  O  O40  1  0.599724  0.147516  0.398423  1
  O  O41  1  0.250671  0.249921  0.441715  1
  O  O42  1  0.250738  0.250029  0.275315  1
  O  O43  1  0.750673  0.249880  0.275215  1
  O  O44  1  0.750736  0.249982  0.441767  1
  O  O45  1  0.155739  0.197691  0.476873  1
  O  O46  1  0.155677  0.302127  0.239993  1
  O  O47  1  0.342762  0.197341  0.239689  1
  O  O48  1  0.343520  0.302516  0.477199  1
  O  O49  1  0.842966  0.302469  0.239505  1
  O  O50  1  0.843168  0.197348  0.477369  1
  O  O51  1  0.655538  0.302070  0.477074  1
  O  O52  1  0.656010  0.197730  0.239796  1
  O  O53  1  0.093930  0.222554  0.413928  1
  O  O54  1  0.093821  0.277353  0.302995  1
  O  O55  1  0.407876  0.221764  0.302003  1
  O  O56  1  0.407843  0.277897  0.414804  1
  O  O57  1  0.907936  0.278058  0.301886  1
  O  O58  1  0.908034  0.221855  0.415061  1
  O  O59  1  0.593822  0.277282  0.414055  1
  O  O60  1  0.593700  0.222414  0.302734  1
  O  O61  1  0.500453  0.321280  0.370641  1
  O  O62  1  0.500445  0.178988  0.346690  1
  O  O63  1  0.899706  -0.000000  0.317752  1
  O  O64  1  0.750065  0.001222  0.358438  1
  O  O65  1  0.000000  0.107392  0.361795  1
  O  O66  1  0.500608  0.107402  0.355190  1
  O  O67  1  -0.000000  0.035443  0.365491  1
  O  O68  1  0.499827  0.035413  0.351394  1
  O  O69  1  0.000000  0.178941  0.370346  1
  O  O70  1  0.000000  0.321233  0.346410  1
  O  O71  1  0.656135  0.302273  0.549819  1
  O  O72  1  0.342982  0.302521  0.549781  1
  O  O73  1  0.499820  0.313817  0.513618  1
  O  O74  1  0.500068  0.464725  0.365664  1
  O  O75  1  0.000000  0.535415  0.351540  1
  O  O76  1  0.000000  0.464742  0.351276  1
  O  O77  1  0.500178  0.535353  0.365451  1
  O  O78  1  0.751189  0.608797  0.422490  1
  O  O79  1  0.251302  0.391017  0.294401  1
  O  O80  1  0.749114  0.608816  0.294507  1
  O  O81  1  0.249142  0.390975  0.422619  1
  O  O82  1  0.749215  0.390961  0.294405  1
  O  O83  1  0.249234  0.608834  0.422510  1
  O  O84  1  0.751167  0.390981  0.422556  1
  O  O85  1  0.251148  0.608781  0.294457  1
  O  O86  1  0.662943  0.575627  0.477197  1
  O  O87  1  0.162887  0.424679  0.239911  1
  O  O88  1  0.837358  0.575460  0.239820  1
  O  O89  1  0.337360  0.424786  0.477104  1
  O  O90  1  0.837230  0.424698  0.239857  1
  O  O91  1  0.337359  0.575400  0.477189  1
  O  O92  1  0.663058  0.424623  0.477107  1
  O  O93  1  0.162893  0.575599  0.239748  1
  O  O94  1  0.746724  0.535999  0.421799  1
  O  O95  1  0.246195  0.463720  0.296049  1
  O  O96  1  0.753464  0.535999  0.295263  1
  O  O97  1  0.253997  0.463701  0.420905  1
  O  O98  1  0.754051  0.463681  0.296074  1
  O  O99  1  0.253358  0.536019  0.421728  1
  O  O100  1  0.746293  0.463693  0.420960  1
  O  O101  1  0.246634  0.536005  0.295183  1
  O  O102  1  0.593441  0.574502  0.413071  1
  O  O103  1  0.093420  0.425033  0.304051  1
  O  O104  1  0.906770  0.574483  0.303937  1
  O  O105  1  0.406895  0.425078  0.412989  1
  O  O106  1  0.906978  0.425070  0.303942  1
  O  O107  1  0.406808  0.574432  0.413074  1
  O  O108  1  0.593366  0.425101  0.413005  1
  O  O109  1  0.093365  0.574535  0.303886  1
  O  O110  1  0.750038  0.640150  0.358527  1
  O  O111  1  0.250090  0.359833  0.358480  1
  O  O112  1  0.750136  0.359712  0.358504  1
  O  O113  1  0.249966  0.640100  0.358447  1
  O  O114  1  0.599471  0.647402  0.318650  1
  O  O115  1  0.099577  0.352354  0.398404  1
  O  O116  1  0.900630  0.647488  0.398373  1
  O  O117  1  0.400706  0.352309  0.318626  1
  O  O118  1  0.900614  0.352280  0.398411  1
  O  O119  1  0.400608  0.647426  0.318624  1
  O  O120  1  0.599658  0.352348  0.318575  1
  O  O121  1  0.099498  0.647372  0.398378  1
  O  O122  1  0.500188  0.392791  0.361455  1
  O  O123  1  -0.000000  0.607392  0.355106  1
  O  O124  1  0.600460  0.499871  0.317784  1
  O  O125  1  0.100417  0.499871  0.399164  1
  O  O126  1  0.899749  0.499921  0.399170  1
  O  O127  1  0.399739  0.499921  0.317780  1
  O  O128  1  0.750012  0.500985  0.358524  1
  O  O129  1  0.250086  0.501018  0.358472  1
  O  O130  1  0.500000  0.607289  0.361845  1
  O  O131  1  0.000000  0.392772  0.355554  1
  O  O132  1  0.627215  0.363953  0.513384  1
  O  O133  1  0.663077  0.424552  0.549903  1
  O  O134  1  0.337364  0.424758  0.549941  1
  O  O135  1  0.500258  0.415423  0.513514  1
  O  O136  1  0.372973  0.364207  0.513510  1
  O  O137  1  0.003619  0.750317  0.358106  1
  O  O138  1  0.497088  0.750029  0.358504  1
  O  O139  1  0.751140  0.891081  0.294500  1
  O  O140  1  0.749212  0.891038  0.422406  1
  O  O141  1  0.249045  0.891109  0.294442  1
  O  O142  1  0.251219  0.891135  0.422527  1
  O  O143  1  0.663045  0.924538  0.239951  1
  O  O144  1  0.837188  0.924725  0.476927  1
  O  O145  1  0.337458  0.924567  0.239816  1
  O  O146  1  0.162822  0.924391  0.477181  1
  O  O147  1  0.746083  0.963785  0.296068  1
  O  O148  1  0.753928  0.963777  0.420781  1
  O  O149  1  0.253419  0.963951  0.295245  1
  O  O150  1  0.246765  0.963957  0.421803  1
  O  O151  1  0.593155  0.925127  0.303997  1
  O  O152  1  0.907016  0.925216  0.412905  1
  O  O153  1  0.406593  0.925450  0.303987  1
  O  O154  1  0.093607  0.925463  0.412990  1
  O  O155  1  0.757038  0.681853  0.300446  1
  O  O156  1  0.757065  0.817984  0.416502  1
  O  O157  1  0.742818  0.681792  0.416709  1
  O  O158  1  0.742952  0.818080  0.300198  1
  O  O159  1  0.242575  0.818135  0.416680  1
  O  O160  1  0.242886  0.681766  0.300256  1
  O  O161  1  0.257345  0.818073  0.300457  1
  O  O162  1  0.257084  0.681871  0.416480  1
  O  O163  1  0.749963  0.859680  0.358422  1
  O  O164  1  0.250035  0.859827  0.358517  1
  O  O165  1  0.599449  0.852464  0.398343  1
  O  O166  1  0.900667  0.852427  0.318620  1
  O  O167  1  0.400517  0.852356  0.398402  1
  O  O168  1  0.099592  0.852419  0.318591  1
  O  O169  1  0.750014  0.749906  0.441603  1
  O  O170  1  0.750029  0.749952  0.275369  1
  O  O171  1  0.249992  0.749944  0.275499  1
  O  O172  1  0.250031  0.750001  0.441507  1
  O  O173  1  0.655485  0.697889  0.477102  1
  O  O174  1  0.655591  0.801959  0.239807  1
  O  O175  1  0.844398  0.697752  0.240096  1
  O  O176  1  0.844839  0.802070  0.476756  1
  O  O177  1  0.342941  0.802278  0.239667  1
  O  O178  1  0.342892  0.697593  0.477230  1
  O  O179  1  0.156910  0.802182  0.477498  1
  O  O180  1  0.157550  0.697716  0.239354  1
  O  O181  1  0.593448  0.722402  0.414035  1
  O  O182  1  0.593530  0.777533  0.302918  1
  O  O183  1  0.906562  0.722382  0.303022  1
  O  O184  1  0.906455  0.777343  0.413748  1
  O  O185  1  0.407606  0.777996  0.302050  1
  O  O186  1  0.407490  0.721919  0.414862  1
  O  O187  1  0.092451  0.777984  0.414971  1
  O  O188  1  0.092433  0.721711  0.301815  1
  O  O189  1  0.500032  0.678837  0.370399  1
  O  O190  1  0.000000  0.964798  0.365549  1
  O  O191  1  0.000000  0.821331  0.370595  1
  O  O192  1  -0.000000  0.678977  0.346714  1
  O  O193  1  0.500024  0.821187  0.346487  1
  O  O194  1  0.249961  0.998926  0.358516  1
  O  O195  1  0.499647  0.892740  0.355373  1
  O  O196  1  -0.000000  0.892851  0.361531  1
  O  O197  1  0.500406  0.964723  0.351395  1
  O  O198  1  0.500381  0.915228  0.203518  1
  O  O199  1  0.627217  0.863778  0.203609  1
  O  O200  1  0.373044  0.864006  0.203501  1
  Si  Si201  1  0.191929  0.072817  0.434207  1
  Si  Si202  1  0.308391  0.072814  0.282747  1
  Si  Si203  1  0.808151  0.072818  0.434475  1
  Si  Si204  1  0.692125  0.072842  0.282476  1
  Si  Si205  1  0.213764  0.144579  0.316903  1
  Si  Si206  1  0.286553  0.144597  0.400096  1
  Si  Si207  1  0.786350  0.144605  0.316831  1
  Si  Si208  1  0.714002  0.144602  0.400094  1
  Si  Si209  1  0.186633  0.213704  0.437704  1
  Si  Si210  1  0.186523  0.286206  0.279212  1
  Si  Si211  1  0.313694  0.213494  0.279011  1
  Si  Si212  1  0.313953  0.286365  0.437937  1
  Si  Si213  1  0.813813  0.286375  0.278852  1
  Si  Si214  1  0.813899  0.213495  0.438063  1
  Si  Si215  1  0.686491  0.286157  0.437860  1
  Si  Si216  1  0.686591  0.213657  0.279050  1
  Si  Si217  1  0.785017  -0.000000  0.316384  1
  Si  Si218  1  0.000000  0.072655  0.388694  1
  Si  Si219  1  0.500399  0.072679  0.328269  1
  Si  Si220  1  0.000000  0.146116  0.340507  1
  Si  Si221  1  0.500309  0.146126  0.376480  1
  Si  Si222  1  0.000000  0.218829  0.389550  1
  Si  Si223  1  0.000000  0.281234  0.327379  1
  Si  Si224  1  0.500176  0.218793  0.327339  1
  Si  Si225  1  0.500210  0.281197  0.389517  1
  Si  Si226  1  0.000000  -0.000000  0.339190  1
  Si  Si227  1  0.500089  -0.000000  0.377696  1
  Si  Si228  1  0.715124  -0.000000  0.400494  1
  Si  Si229  1  0.611867  0.320080  0.513451  1
  Si  Si230  1  0.387857  0.320325  0.513536  1
  Si  Si231  1  0.692066  0.572774  0.434369  1
  Si  Si232  1  0.192033  0.427110  0.282793  1
  Si  Si233  1  0.808141  0.572753  0.282654  1
  Si  Si234  1  0.308230  0.427123  0.434211  1
  Si  Si235  1  0.808254  0.427096  0.282761  1
  Si  Si236  1  0.308156  0.572741  0.434350  1
  Si  Si237  1  0.692061  0.427094  0.434211  1
  Si  Si238  1  0.191978  0.572770  0.282581  1
  Si  Si239  1  0.713726  0.644540  0.316916  1
  Si  Si240  1  0.213842  0.355289  0.400101  1
  Si  Si241  1  0.786379  0.644574  0.400132  1
  Si  Si242  1  0.286465  0.355288  0.316876  1
  Si  Si243  1  0.786354  0.355229  0.400133  1
  Si  Si244  1  0.286361  0.644536  0.316847  1
  Si  Si245  1  0.713927  0.355246  0.316872  1
  Si  Si246  1  0.213766  0.644528  0.400073  1
  Si  Si247  1  0.715156  0.500002  0.316455  1
  Si  Si248  1  0.215103  0.500020  0.400524  1
  Si  Si249  1  0.785069  0.500027  0.400566  1
  Si  Si250  1  0.285050  0.500049  0.316418  1
  Si  Si251  1  0.500122  0.572521  0.388704  1
  Si  Si252  1  0.000000  0.427318  0.328385  1
  Si  Si253  1  0.000000  0.572590  0.328292  1
  Si  Si254  1  0.500142  0.427342  0.388614  1
  Si  Si255  1  0.500020  0.646012  0.340558  1
  Si  Si256  1  0.000000  0.353850  0.376515  1
  Si  Si257  1  0.000000  0.646078  0.376455  1
  Si  Si258  1  0.500213  0.353868  0.340496  1
  Si  Si259  1  0.500096  0.499970  0.339217  1
  Si  Si260  1  0.000000  0.499992  0.377720  1
  Si  Si261  1  0.613011  0.407991  0.513493  1
  Si  Si262  1  0.387416  0.408217  0.513517  1
  Si  Si263  1  0.691924  0.927159  0.282844  1
  Si  Si264  1  0.808207  0.927189  0.434028  1
  Si  Si265  1  0.308061  0.927196  0.282633  1
  Si  Si266  1  0.192118  0.927181  0.434369  1
  Si  Si267  1  0.713720  0.855297  0.400043  1
  Si  Si268  1  0.786416  0.855292  0.316828  1
  Si  Si269  1  0.286266  0.855347  0.400140  1
  Si  Si270  1  0.213848  0.855369  0.316887  1
  Si  Si271  1  0.686196  0.713625  0.437797  1
  Si  Si272  1  0.686271  0.786251  0.279129  1
  Si  Si273  1  0.813700  0.713652  0.279325  1
  Si  Si274  1  0.813806  0.786168  0.437570  1
  Si  Si275  1  0.313491  0.786343  0.279034  1
  Si  Si276  1  0.313395  0.713571  0.437890  1
  Si  Si277  1  0.186423  0.786385  0.438073  1
  Si  Si278  1  0.186660  0.713481  0.278840  1
  Si  Si279  1  0.285079  -0.000000  0.400550  1
  Si  Si280  1  0.611777  0.819910  0.203431  1
  Si  Si281  1  0.387570  0.908004  0.203460  1
  Si  Si282  1  0.499890  0.927402  0.328362  1
  Si  Si283  1  0.000000  0.927481  0.388586  1
  Si  Si284  1  0.499942  0.853899  0.376470  1
  Si  Si285  1  -0.000000  0.853967  0.340509  1
  Si  Si286  1  0.499776  0.718762  0.389527  1
  Si  Si287  1  0.499840  0.781225  0.327409  1
  Si  Si288  1  0.000000  0.718779  0.327365  1
  Si  Si289  1  0.000000  0.781251  0.389463  1
  Si  Si290  1  0.215134  -0.000000  0.316446  1
  Si  Si291  1  0.387758  0.820120  0.203428  1
  Si  Si292  1  0.613123  0.907820  0.203586  1
  H  H293  1  0.337601  0.924575  0.141604  1
  H  H294  1  0.663136  0.924365  0.141723  1
  H  H295  1  0.343161  0.802490  0.141581  1
  H  H296  1  0.655776  0.802126  0.141528  1
  H  H297  1  0.162952  0.075254  0.502583  1
  H  H298  1  0.337336  0.075175  0.214363  1
  H  H299  1  0.837338  0.075443  0.502792  1
  H  H300  1  0.662895  0.075557  0.214175  1
  H  H301  1  0.155739  0.197691  0.502348  1
  H  H302  1  0.155677  0.302127  0.214518  1
  H  H303  1  0.342762  0.197341  0.214214  1
  H  H304  1  0.842966  0.302469  0.214030  1
  H  H305  1  0.843168  0.197348  0.502844  1
  H  H306  1  0.656010  0.197730  0.214321  1
  H  H307  1  0.656135  0.302273  0.575294  1
  H  H308  1  0.342982  0.302521  0.575256  1
  H  H309  1  0.662943  0.575627  0.502672  1
  H  H310  1  0.162887  0.424679  0.214436  1
  H  H311  1  0.837358  0.575460  0.214345  1
  H  H312  1  0.837230  0.424698  0.214382  1
  H  H313  1  0.337359  0.575400  0.502664  1
  H  H314  1  0.162893  0.575599  0.214273  1
  H  H315  1  0.663077  0.424552  0.575378  1
  H  H316  1  0.337364  0.424758  0.575416  1
  H  H317  1  0.837188  0.924725  0.502403  1
  H  H318  1  0.162822  0.924391  0.502656  1
  H  H319  1  0.655485  0.697889  0.502577  1
  H  H320  1  0.844398  0.697752  0.214621  1
  H  H321  1  0.844839  0.802070  0.502231  1
  H  H322  1  0.342892  0.697593  0.502705  1
  H  H323  1  0.156910  0.802182  0.502973  1
  H  H324  1  0.157550  0.697716  0.213879  1
