# generated using pymatgen
data_Si25(HO13)4
_symmetry_space_group_name_H-M   'P 1'
_cell_length_a   13.77465444
_cell_length_b   35.19864774
_cell_length_c   46.28487641
_cell_angle_alpha   90.00000000
_cell_angle_beta   90.00000000
_cell_angle_gamma   90.00000000
_symmetry_Int_Tables_number   1
_chemical_formula_structural   Si25(HO13)4
_chemical_formula_sum   'Si200 H32 O416'
_cell_volume   22441.1857358
_cell_formula_units_Z   8
loop_
 _symmetry_equiv_pos_site_id
 _symmetry_equiv_pos_as_xyz
  1  'x, y, z'
loop_
 _atom_site_type_symbol
 _atom_site_label
 _atom_site_symmetry_multiplicity
 _atom_site_fract_x
 _atom_site_fract_y
 _atom_site_fract_z
 _atom_site_occupancy
  O  O1  1  0.343520  0.302516  0.127567  1
  O  O2  1  0.655538  0.302070  0.127471  1
  O  O3  1  0.001645  0.250706  0.273116  1
  O  O4  1  0.497942  0.249504  0.273222  1
  O  O5  1  0.000000  0.321454  0.283090  1
  O  O6  1  0.751192  0.108933  0.322508  1
  O  O7  1  0.748995  0.108965  0.224779  1
  O  O8  1  0.249275  0.109023  0.322570  1
  O  O9  1  0.251171  0.108936  0.224750  1
  O  O10  1  0.662906  0.075358  0.364105  1
  O  O11  1  0.837467  0.075199  0.183214  1
  O  O12  1  0.337131  0.075142  0.364166  1
  O  O13  1  0.163157  0.075373  0.183085  1
  O  O14  1  0.746221  0.036207  0.321280  1
  O  O15  1  0.754053  0.036232  0.226070  1
  O  O16  1  0.253688  0.036290  0.321253  1
  O  O17  1  0.246027  0.036251  0.225980  1
  O  O18  1  0.593377  0.074839  0.315186  1
  O  O19  1  0.906799  0.074945  0.232150  1
  O  O20  1  0.406860  0.074774  0.315252  1
  O  O21  1  0.093188  0.074942  0.232004  1
  O  O22  1  0.757097  0.181997  0.229314  1
  O  O23  1  0.757355  0.317960  0.317868  1
  O  O24  1  0.742740  0.181938  0.318099  1
  O  O25  1  0.742965  0.318104  0.229225  1
  O  O26  1  0.242675  0.318070  0.318052  1
  O  O27  1  0.242820  0.181905  0.229202  1
  O  O28  1  0.257178  0.318003  0.229387  1
  O  O29  1  0.257326  0.182064  0.317892  1
  O  O30  1  0.750139  0.140293  0.273671  1
  O  O31  1  0.249887  0.140216  0.273627  1
  O  O32  1  0.599509  0.147618  0.243229  1
  O  O33  1  0.900610  0.147677  0.304172  1
  O  O34  1  0.400549  0.147651  0.243213  1
  O  O35  1  0.099579  0.147617  0.304201  1
  O  O36  1  0.750173  0.249984  0.337233  1
  O  O37  1  0.750211  0.250067  0.210128  1
  O  O38  1  0.250219  0.249965  0.210157  1
  O  O39  1  0.250271  0.250067  0.337235  1
  O  O40  1  0.655275  0.197923  0.364199  1
  O  O41  1  0.656135  0.302273  0.182997  1
  O  O42  1  0.844012  0.197706  0.183129  1
  O  O43  1  0.844323  0.302419  0.364054  1
  O  O44  1  0.342982  0.302521  0.182968  1
  O  O45  1  0.343509  0.197519  0.364231  1
  O  O46  1  0.156306  0.302314  0.364381  1
  O  O47  1  0.156948  0.197697  0.182804  1
  O  O48  1  0.593526  0.222600  0.316071  1
  O  O49  1  0.593402  0.277738  0.231021  1
  O  O50  1  0.907010  0.222213  0.231006  1
  O  O51  1  0.906958  0.277430  0.316164  1
  O  O52  1  0.407625  0.278101  0.230566  1
  O  O53  1  0.407507  0.222245  0.316568  1
  O  O54  1  0.093008  0.277656  0.316525  1
  O  O55  1  0.092783  0.221966  0.230589  1
  O  O56  1  0.499820  0.313817  0.155365  1
  O  O57  1  0.372766  0.135747  0.391904  1
  O  O58  1  0.899709  0.000000  0.304651  1
  O  O59  1  0.399701  0.000000  0.242541  1
  O  O60  1  0.499932  0.107159  0.275914  1
  O  O61  1  0.000000  0.107519  0.271282  1
  O  O62  1  0.500066  0.035241  0.279056  1
  O  O63  1  0.000000  0.035463  0.268264  1
  O  O64  1  0.500086  0.178641  0.282971  1
  O  O65  1  0.500146  0.320932  0.264719  1
  O  O66  1  0.000000  0.179179  0.264781  1
  O  O67  1  0.500057  0.084570  0.391897  1
  O  O68  1  0.626995  0.136072  0.391820  1
  O  O69  1  0.600456  0.000000  0.242533  1
  O  O70  1  0.662943  0.575627  0.127566  1
  O  O71  1  0.337360  0.424786  0.127495  1
  O  O72  1  0.337359  0.575400  0.127559  1
  O  O73  1  0.663058  0.424623  0.127497  1
  O  O74  1  0.627215  0.363953  0.155187  1
  O  O75  1  0.000000  0.464787  0.279106  1
  O  O76  1  0.251151  0.608857  0.322533  1
  O  O77  1  0.751431  0.391071  0.224728  1
  O  O78  1  0.249005  0.608830  0.224764  1
  O  O79  1  0.749275  0.390989  0.322587  1
  O  O80  1  0.249098  0.391005  0.224723  1
  O  O81  1  0.749400  0.608875  0.322460  1
  O  O82  1  0.251064  0.391039  0.322599  1
  O  O83  1  0.751189  0.608854  0.224828  1
  O  O84  1  0.162785  0.575422  0.364190  1
  O  O85  1  0.663077  0.424552  0.183061  1
  O  O86  1  0.337457  0.575385  0.183098  1
  O  O87  1  0.837301  0.424814  0.364196  1
  O  O88  1  0.337364  0.424758  0.183090  1
  O  O89  1  0.837246  0.575551  0.364236  1
  O  O90  1  0.163007  0.424585  0.364264  1
  O  O91  1  0.662968  0.575636  0.183060  1
  O  O92  1  0.247085  0.536047  0.321902  1
  O  O93  1  0.745871  0.463763  0.225932  1
  O  O94  1  0.253767  0.536019  0.225510  1
  O  O95  1  0.753812  0.463729  0.321310  1
  O  O96  1  0.254201  0.463715  0.225992  1
  O  O97  1  0.753305  0.536059  0.321915  1
  O  O98  1  0.246412  0.463742  0.321480  1
  O  O99  1  0.746648  0.536042  0.225362  1
  O  O100  1  0.093592  0.574440  0.315213  1
  O  O101  1  0.593334  0.424921  0.231995  1
  O  O102  1  0.406843  0.574700  0.232052  1
  O  O103  1  0.906874  0.425214  0.315278  1
  O  O104  1  0.406954  0.425011  0.232022  1
  O  O105  1  0.906918  0.574365  0.315327  1
  O  O106  1  0.093358  0.425259  0.315319  1
  O  O107  1  0.593440  0.574570  0.231995  1
  O  O108  1  0.250221  0.640039  0.273652  1
  O  O109  1  0.749905  0.359837  0.273625  1
  O  O110  1  0.250224  0.359840  0.273689  1
  O  O111  1  0.750048  0.640305  0.273634  1
  O  O112  1  0.099489  0.647435  0.243274  1
  O  O113  1  0.599578  0.352401  0.304183  1
  O  O114  1  0.400795  0.647465  0.304086  1
  O  O115  1  0.900691  0.352364  0.243282  1
  O  O116  1  0.400604  0.352360  0.304200  1
  O  O117  1  0.900641  0.647516  0.243246  1
  O  O118  1  0.099590  0.352415  0.243271  1
  O  O119  1  0.599722  0.647504  0.304146  1
  O  O120  1  0.626993  0.636272  0.155349  1
  O  O121  1  0.499980  0.535282  0.268220  1
  O  O122  1  0.500284  0.464565  0.268138  1
  O  O123  1  0.372911  0.635976  0.155312  1
  O  O124  1  0.872889  0.364162  0.391875  1
  O  O125  1  0.500197  0.584779  0.155311  1
  O  O126  1  0.000000  0.535365  0.278864  1
  O  O127  1  0.500258  0.415423  0.155286  1
  O  O128  1  0.000000  0.392901  0.275972  1
  O  O129  1  0.100462  0.499865  0.242498  1
  O  O130  1  0.600408  0.499912  0.304628  1
  O  O131  1  0.399802  0.499819  0.304606  1
  O  O132  1  0.899673  0.499833  0.242505  1
  O  O133  1  0.249475  0.500807  0.273742  1
  O  O134  1  0.750241  0.500998  0.273637  1
  O  O135  1  0.000000  0.607265  0.276196  1
  O  O136  1  0.500042  0.392550  0.271308  1
  O  O137  1  0.500442  0.607288  0.271204  1
  O  O138  1  0.127218  0.636142  0.391738  1
  O  O139  1  0.372973  0.364207  0.155283  1
  O  O140  1  0.655485  0.697889  0.127493  1
  O  O141  1  0.342892  0.697593  0.127591  1
  O  O142  1  0.500497  0.821235  0.282813  1
  O  O143  1  0.500519  0.678876  0.264610  1
  O  O144  1  0.497475  0.750155  0.273501  1
  O  O145  1  0.251277  0.891177  0.224722  1
  O  O146  1  0.249072  0.891149  0.322560  1
  O  O147  1  0.749214  0.891143  0.224759  1
  O  O148  1  0.750931  0.891122  0.322491  1
  O  O149  1  0.162514  0.924522  0.183053  1
  O  O150  1  0.337601  0.924575  0.364233  1
  O  O151  1  0.837064  0.924388  0.182918  1
  O  O152  1  0.663136  0.924365  0.364324  1
  O  O153  1  0.246600  0.963976  0.225339  1
  O  O154  1  0.253397  0.963969  0.321937  1
  O  O155  1  0.753607  0.963926  0.225294  1
  O  O156  1  0.746824  0.963903  0.321988  1
  O  O157  1  0.093530  0.925367  0.232057  1
  O  O158  1  0.406669  0.925472  0.315252  1
  O  O159  1  0.906969  0.925440  0.231834  1
  O  O160  1  0.593289  0.925556  0.315405  1
  O  O161  1  0.257149  0.681887  0.229400  1
  O  O162  1  0.257144  0.818120  0.317852  1
  O  O163  1  0.243017  0.681882  0.317903  1
  O  O164  1  0.243111  0.818184  0.229346  1
  O  O165  1  0.742847  0.818136  0.318044  1
  O  O166  1  0.743041  0.681860  0.229155  1
  O  O167  1  0.757235  0.818134  0.229227  1
  O  O168  1  0.757444  0.681915  0.318049  1
  O  O169  1  0.250015  0.860018  0.273629  1
  O  O170  1  0.750132  0.859798  0.273631  1
  O  O171  1  0.099412  0.852613  0.304061  1
  O  O172  1  0.400775  0.852581  0.243272  1
  O  O173  1  0.900544  0.852512  0.304090  1
  O  O174  1  0.599624  0.852562  0.243203  1
  O  O175  1  0.250683  0.749975  0.336981  1
  O  O176  1  0.250723  0.750071  0.210350  1
  O  O177  1  0.750733  0.749979  0.210191  1
  O  O178  1  0.750622  0.750072  0.337119  1
  O  O179  1  0.155533  0.697923  0.363903  1
  O  O180  1  0.155905  0.802128  0.183284  1
  O  O181  1  0.342864  0.697579  0.183009  1
  O  O182  1  0.343161  0.802490  0.364216  1
  O  O183  1  0.842646  0.802457  0.182721  1
  O  O184  1  0.843246  0.697726  0.364468  1
  O  O185  1  0.655776  0.802126  0.364175  1
  O  O186  1  0.655834  0.698046  0.183059  1
  O  O187  1  0.093904  0.722679  0.315819  1
  O  O188  1  0.093852  0.777550  0.231344  1
  O  O189  1  0.407936  0.721769  0.230606  1
  O  O190  1  0.407779  0.778101  0.316599  1
  O  O191  1  0.907991  0.778326  0.230347  1
  O  O192  1  0.907884  0.721961  0.316785  1
  O  O193  1  0.593760  0.777442  0.316076  1
  O  O194  1  0.593862  0.722455  0.231195  1
  O  O195  1  -0.000000  0.821126  0.264586  1
  O  O196  1  0.000000  0.678779  0.282845  1
  O  O197  1  0.500125  0.964645  0.278972  1
  O  O198  1  -0.000000  0.964729  0.268169  1
  O  O199  1  0.500388  0.892746  0.276192  1
  O  O200  1  -0.000000  0.892725  0.271122  1
  O  O201  1  0.996465  0.749836  0.273433  1
  O  O202  1  0.749891  0.998808  0.273658  1
  O  O203  1  0.250126  0.998947  0.273634  1
  O  O204  1  0.499589  0.686415  0.155337  1
  O  O205  1  0.100328  0.000000  0.304651  1
  O  O206  1  0.499731  0.813624  0.391966  1
  O  O207  1  0.399757  0.000000  0.541365  1
  O  O208  1  0.600435  0.000000  0.541361  1
  O  O209  1  0.100435  0.000000  0.479247  1
  O  O210  1  0.497566  0.250324  0.510032  1
  O  O211  1  0.996790  0.250151  0.510409  1
  O  O212  1  0.251073  0.108936  0.559265  1
  O  O213  1  0.249325  0.108955  0.461385  1
  O  O214  1  0.749296  0.108918  0.559267  1
  O  O215  1  0.751218  0.108879  0.461384  1
  O  O216  1  0.162952  0.075254  0.600874  1
  O  O217  1  0.337336  0.075175  0.419769  1
  O  O218  1  0.837338  0.075443  0.601034  1
  O  O219  1  0.662895  0.075557  0.419625  1
  O  O220  1  0.246201  0.036237  0.557998  1
  O  O221  1  0.254154  0.036247  0.462699  1
  O  O222  1  0.753472  0.036084  0.558663  1
  O  O223  1  0.746693  0.036064  0.461936  1
  O  O224  1  0.093211  0.074844  0.551958  1
  O  O225  1  0.407149  0.074875  0.468663  1
  O  O226  1  0.906745  0.074498  0.552068  1
  O  O227  1  0.593603  0.074576  0.468618  1
  O  O228  1  0.257024  0.181971  0.466112  1
  O  O229  1  0.257383  0.317953  0.554576  1
  O  O230  1  0.243203  0.181929  0.554620  1
  O  O231  1  0.242885  0.318036  0.465992  1
  O  O232  1  0.742824  0.317991  0.554741  1
  O  O233  1  0.742882  0.181858  0.465926  1
  O  O234  1  0.757345  0.317942  0.465999  1
  O  O235  1  0.757434  0.181938  0.554606  1
  O  O236  1  0.250146  0.140050  0.510344  1
  O  O237  1  0.750099  0.140102  0.510306  1
  O  O238  1  0.099497  0.147383  0.479900  1
  O  O239  1  0.400814  0.147443  0.540764  1
  O  O240  1  0.900601  0.147572  0.479865  1
  O  O241  1  0.599724  0.147516  0.540815  1
  O  O242  1  0.250671  0.249921  0.573860  1
  O  O243  1  0.250738  0.250029  0.446848  1
  O  O244  1  0.750673  0.249880  0.446772  1
  O  O245  1  0.750736  0.249982  0.573899  1
  O  O246  1  0.155739  0.197691  0.600695  1
  O  O247  1  0.155677  0.302127  0.419888  1
  O  O248  1  0.342762  0.197341  0.419655  1
  O  O249  1  0.343520  0.302516  0.600944  1
  O  O250  1  0.842966  0.302469  0.419515  1
  O  O251  1  0.843168  0.197348  0.601074  1
  O  O252  1  0.655538  0.302070  0.600848  1
  O  O253  1  0.656010  0.197730  0.419737  1
  O  O254  1  0.093930  0.222554  0.552650  1
  O  O255  1  0.093821  0.277353  0.467976  1
  O  O256  1  0.407876  0.221764  0.467219  1
  O  O257  1  0.407843  0.277897  0.553318  1
  O  O258  1  0.907936  0.278058  0.467129  1
  O  O259  1  0.908034  0.221855  0.553515  1
  O  O260  1  0.593822  0.277282  0.552747  1
  O  O261  1  0.593700  0.222414  0.467777  1
  O  O262  1  0.499620  0.186169  0.392103  1
  O  O263  1  0.500453  0.321280  0.519610  1
  O  O264  1  0.500445  0.178988  0.501328  1
  O  O265  1  0.899706  0.000000  0.479240  1
  O  O266  1  0.750065  0.001222  0.510295  1
  O  O267  1  0.000000  0.107392  0.512857  1
  O  O268  1  0.500608  0.107402  0.507816  1
  O  O269  1  0.000000  0.035443  0.515678  1
  O  O270  1  0.499827  0.035413  0.504918  1
  O  O271  1  0.000000  0.178941  0.519384  1
  O  O272  1  0.000000  0.321233  0.501114  1
  O  O273  1  0.000000  0.313846  0.392046  1
  O  O274  1  0.656135  0.302273  0.656374  1
  O  O275  1  0.342982  0.302521  0.656345  1
  O  O276  1  0.499820  0.313817  0.628742  1
  O  O277  1  0.500068  0.464725  0.515810  1
  O  O278  1  0.000000  0.535415  0.505030  1
  O  O279  1  0.000000  0.464742  0.504828  1
  O  O280  1  0.500178  0.535353  0.515648  1
  O  O281  1  0.751189  0.608797  0.559185  1
  O  O282  1  0.251302  0.391017  0.461416  1
  O  O283  1  0.749114  0.608816  0.461497  1
  O  O284  1  0.249142  0.390975  0.559284  1
  O  O285  1  0.749215  0.390961  0.461419  1
  O  O286  1  0.249234  0.608834  0.559200  1
  O  O287  1  0.751167  0.390981  0.559235  1
  O  O288  1  0.251148  0.608781  0.461459  1
  O  O289  1  0.662943  0.575627  0.600942  1
  O  O290  1  0.162887  0.424679  0.419825  1
  O  O291  1  0.837358  0.575460  0.419755  1
  O  O292  1  0.337360  0.424786  0.600871  1
  O  O293  1  0.837230  0.424698  0.419784  1
  O  O294  1  0.337359  0.575400  0.600936  1
  O  O295  1  0.663058  0.424623  0.600874  1
  O  O296  1  0.162893  0.575599  0.419701  1
  O  O297  1  0.746724  0.535999  0.558658  1
  O  O298  1  0.246195  0.463720  0.462674  1
  O  O299  1  0.753464  0.535999  0.462074  1
  O  O300  1  0.253997  0.463701  0.557975  1
  O  O301  1  0.754051  0.463681  0.462693  1
  O  O302  1  0.253358  0.536019  0.558603  1
  O  O303  1  0.746293  0.463693  0.558018  1
  O  O304  1  0.246634  0.536005  0.462013  1
  O  O305  1  0.593441  0.574502  0.551996  1
  O  O306  1  0.093420  0.425033  0.468782  1
  O  O307  1  0.906770  0.574483  0.468695  1
  O  O308  1  0.406895  0.425078  0.551933  1
  O  O309  1  0.906978  0.425070  0.468699  1
  O  O310  1  0.406808  0.574432  0.551998  1
  O  O311  1  0.593366  0.425101  0.551946  1
  O  O312  1  0.093365  0.574535  0.468656  1
  O  O313  1  0.750038  0.640150  0.510363  1
  O  O314  1  0.250090  0.359833  0.510327  1
  O  O315  1  0.750136  0.359712  0.510345  1
  O  O316  1  0.249966  0.640100  0.510302  1
  O  O317  1  0.599471  0.647402  0.479925  1
  O  O318  1  0.099577  0.352354  0.540800  1
  O  O319  1  0.900630  0.647488  0.540777  1
  O  O320  1  0.400706  0.352309  0.479907  1
  O  O321  1  0.900614  0.352280  0.540806  1
  O  O322  1  0.400608  0.647426  0.479905  1
  O  O323  1  0.599658  0.352348  0.479868  1
  O  O324  1  0.099498  0.647372  0.540781  1
  O  O325  1  0.500188  0.392791  0.512598  1
  O  O326  1  0.873110  0.636107  0.392105  1
  O  O327  1  0.000000  0.607392  0.507752  1
  O  O328  1  0.600460  0.499871  0.479264  1
  O  O329  1  0.100417  0.499871  0.541380  1
  O  O330  1  0.899749  0.499921  0.541386  1
  O  O331  1  0.399739  0.499921  0.479261  1
  O  O332  1  0.750012  0.500985  0.510360  1
  O  O333  1  0.250086  0.501018  0.510321  1
  O  O334  1  0.500000  0.607289  0.512895  1
  O  O335  1  0.000000  0.392772  0.508094  1
  O  O336  1  0.127231  0.364002  0.392152  1
  O  O337  1  0.627215  0.363953  0.628564  1
  O  O338  1  -0.000000  0.415411  0.392009  1
  O  O339  1  -0.000000  0.584788  0.391970  1
  O  O340  1  0.663077  0.424552  0.656438  1
  O  O341  1  0.337457  0.575385  0.656475  1
  O  O342  1  0.337364  0.424758  0.656467  1
  O  O343  1  0.662968  0.575636  0.656436  1
  O  O344  1  0.626993  0.636272  0.628726  1
  O  O345  1  0.372911  0.635976  0.628689  1
  O  O346  1  0.500197  0.584779  0.628688  1
  O  O347  1  0.500258  0.415423  0.628663  1
  O  O348  1  0.372973  0.364207  0.628660  1
  O  O349  1  0.003619  0.750317  0.510041  1
  O  O350  1  0.497088  0.750029  0.510345  1
  O  O351  1  0.751140  0.891081  0.461492  1
  O  O352  1  0.749212  0.891038  0.559121  1
  O  O353  1  0.249045  0.891109  0.461448  1
  O  O354  1  0.251219  0.891135  0.559213  1
  O  O355  1  0.663045  0.924538  0.419855  1
  O  O356  1  0.837188  0.924725  0.600737  1
  O  O357  1  0.337458  0.924567  0.419752  1
  O  O358  1  0.162822  0.924391  0.600930  1
  O  O359  1  0.746083  0.963785  0.462689  1
  O  O360  1  0.753928  0.963777  0.557880  1
  O  O361  1  0.253419  0.963951  0.462060  1
  O  O362  1  0.246765  0.963957  0.558661  1
  O  O363  1  0.593155  0.925127  0.468741  1
  O  O364  1  0.907016  0.925216  0.551869  1
  O  O365  1  0.406593  0.925450  0.468733  1
  O  O366  1  0.093607  0.925463  0.551934  1
  O  O367  1  0.757038  0.681853  0.466030  1
  O  O368  1  0.757065  0.817984  0.554615  1
  O  O369  1  0.742818  0.681792  0.554773  1
  O  O370  1  0.742952  0.818080  0.465841  1
  O  O371  1  0.242575  0.818135  0.554750  1
  O  O372  1  0.242886  0.681766  0.465886  1
  O  O373  1  0.257345  0.818073  0.466039  1
  O  O374  1  0.257084  0.681871  0.554597  1
  O  O375  1  0.749963  0.859680  0.510283  1
  O  O376  1  0.250035  0.859827  0.510355  1
  O  O377  1  0.599449  0.852464  0.540754  1
  O  O378  1  0.900667  0.852427  0.479902  1
  O  O379  1  0.400517  0.852356  0.540799  1
  O  O380  1  0.099592  0.852419  0.479880  1
  O  O381  1  0.750014  0.749906  0.573773  1
  O  O382  1  0.750029  0.749952  0.446890  1
  O  O383  1  0.249992  0.749944  0.446988  1
  O  O384  1  0.250031  0.750001  0.573701  1
  O  O385  1  0.655485  0.697889  0.600870  1
  O  O386  1  0.655591  0.801959  0.419745  1
  O  O387  1  0.844398  0.697752  0.419966  1
  O  O388  1  0.844839  0.802070  0.600606  1
  O  O389  1  0.342941  0.802278  0.419638  1
  O  O390  1  0.342892  0.697593  0.600968  1
  O  O391  1  0.156910  0.802182  0.601172  1
  O  O392  1  0.157550  0.697716  0.419400  1
  O  O393  1  0.593448  0.722402  0.552731  1
  O  O394  1  0.593530  0.777533  0.467917  1
  O  O395  1  0.906562  0.722382  0.467997  1
  O  O396  1  0.906455  0.777343  0.552513  1
  O  O397  1  0.407606  0.777996  0.467255  1
  O  O398  1  0.407490  0.721919  0.553362  1
  O  O399  1  0.092451  0.777984  0.553446  1
  O  O400  1  0.092433  0.721711  0.467075  1
  O  O401  1  0.000000  0.686408  0.392021  1
  O  O402  1  0.500032  0.678837  0.519425  1
  O  O403  1  0.000000  0.964798  0.515723  1
  O  O404  1  -0.000000  0.821331  0.519574  1
  O  O405  1  0.000000  0.678977  0.501346  1
  O  O406  1  0.500024  0.821187  0.501173  1
  O  O407  1  0.249961  0.998926  0.510355  1
  O  O408  1  0.499647  0.892740  0.507956  1
  O  O409  1  -0.000000  0.892851  0.512656  1
  O  O410  1  0.500406  0.964723  0.504919  1
  O  O411  1  0.500381  0.915228  0.392046  1
  O  O412  1  0.627217  0.863778  0.392116  1
  O  O413  1  0.373044  0.864006  0.392033  1
  O  O414  1  0.342864  0.697579  0.656386  1
  O  O415  1  0.655834  0.698046  0.656436  1
  O  O416  1  0.499589  0.686415  0.628714  1
  Si  Si417  1  0.611867  0.320080  0.155238  1
  Si  Si418  1  0.692049  0.072825  0.331380  1
  Si  Si419  1  0.808183  0.072840  0.215941  1
  Si  Si420  1  0.308113  0.072821  0.331415  1
  Si  Si421  1  0.191925  0.072867  0.215841  1
  Si  Si422  1  0.713754  0.144706  0.241909  1
  Si  Si423  1  0.786352  0.144729  0.305449  1
  Si  Si424  1  0.286310  0.144689  0.241871  1
  Si  Si425  1  0.213861  0.144714  0.305422  1
  Si  Si426  1  0.686188  0.213749  0.334242  1
  Si  Si427  1  0.686432  0.286375  0.212991  1
  Si  Si428  1  0.813724  0.213702  0.213080  1
  Si  Si429  1  0.813908  0.286273  0.334159  1
  Si  Si430  1  0.313570  0.286401  0.212963  1
  Si  Si431  1  0.313763  0.213689  0.334285  1
  Si  Si432  1  0.186389  0.286355  0.334387  1
  Si  Si433  1  0.186547  0.213601  0.212858  1
  Si  Si434  1  0.387857  0.320325  0.155302  1
  Si  Si435  1  0.612787  0.092038  0.391847  1
  Si  Si436  1  0.387204  0.091736  0.391947  1
  Si  Si437  1  0.500052  0.072584  0.296618  1
  Si  Si438  1  0.000000  0.072817  0.250708  1
  Si  Si439  1  0.500015  0.146088  0.259928  1
  Si  Si440  1  0.000000  0.146283  0.287485  1
  Si  Si441  1  0.499973  0.218771  0.297315  1
  Si  Si442  1  0.500008  0.281185  0.249863  1
  Si  Si443  1  0.000000  0.218879  0.249868  1
  Si  Si444  1  0.000000  0.281261  0.297347  1
  Si  Si445  1  0.000000  0.000000  0.288272  1
  Si  Si446  1  0.887961  0.320285  0.391864  1
  Si  Si447  1  0.387672  0.179630  0.391961  1
  Si  Si448  1  0.613011  0.407991  0.155270  1
  Si  Si449  1  0.192153  0.572752  0.331506  1
  Si  Si450  1  0.691997  0.427092  0.215804  1
  Si  Si451  1  0.308239  0.572774  0.215799  1
  Si  Si452  1  0.808171  0.427171  0.331456  1
  Si  Si453  1  0.308288  0.427109  0.215833  1
  Si  Si454  1  0.808193  0.572775  0.331533  1
  Si  Si455  1  0.192020  0.427145  0.331532  1
  Si  Si456  1  0.692081  0.572829  0.215754  1
  Si  Si457  1  0.213734  0.644546  0.241914  1
  Si  Si458  1  0.713859  0.355315  0.305415  1
  Si  Si459  1  0.286538  0.644565  0.305404  1
  Si  Si460  1  0.786466  0.355327  0.241886  1
  Si  Si461  1  0.286335  0.355316  0.305473  1
  Si  Si462  1  0.786390  0.644649  0.241873  1
  Si  Si463  1  0.213837  0.355329  0.241931  1
  Si  Si464  1  0.714009  0.644647  0.305426  1
  Si  Si465  1  0.387416  0.408217  0.155288  1
  Si  Si466  1  0.215197  0.499991  0.241576  1
  Si  Si467  1  0.715081  0.500055  0.305719  1
  Si  Si468  1  0.285169  0.499980  0.305769  1
  Si  Si469  1  0.784966  0.500028  0.241514  1
  Si  Si470  1  0.000000  0.572478  0.296676  1
  Si  Si471  1  0.500174  0.427160  0.250640  1
  Si  Si472  1  0.500200  0.572589  0.250627  1
  Si  Si473  1  0.000000  0.427464  0.296689  1
  Si  Si474  1  -0.000000  0.646025  0.259998  1
  Si  Si475  1  0.500075  0.353764  0.287485  1
  Si  Si476  1  0.500306  0.646061  0.287395  1
  Si  Si477  1  0.000000  0.353960  0.260001  1
  Si  Si478  1  -0.000000  0.499968  0.258856  1
  Si  Si479  1  0.500112  0.499892  0.288241  1
  Si  Si480  1  0.112867  0.592124  0.391926  1
  Si  Si481  1  0.612914  0.592237  0.155313  1
  Si  Si482  1  0.387375  0.591974  0.155323  1
  Si  Si483  1  0.191992  0.927206  0.215726  1
  Si  Si484  1  0.308148  0.927228  0.331557  1
  Si  Si485  1  0.808234  0.927168  0.215637  1
  Si  Si486  1  0.692023  0.927172  0.331610  1
  Si  Si487  1  0.213675  0.855479  0.305382  1
  Si  Si488  1  0.286542  0.855484  0.241896  1
  Si  Si489  1  0.786273  0.855384  0.305410  1
  Si  Si490  1  0.713891  0.855412  0.241861  1
  Si  Si491  1  0.186572  0.713781  0.333975  1
  Si  Si492  1  0.186700  0.786303  0.213248  1
  Si  Si493  1  0.313708  0.713538  0.213071  1
  Si  Si494  1  0.313739  0.786483  0.334192  1
  Si  Si495  1  0.813710  0.786526  0.212825  1
  Si  Si496  1  0.813842  0.713600  0.334392  1
  Si  Si497  1  0.686524  0.786282  0.334204  1
  Si  Si498  1  0.686669  0.713755  0.213063  1
  Si  Si499  1  0.611647  0.680140  0.155326  1
  Si  Si500  1  0.785040  0.000000  0.305738  1
  Si  Si501  1  0.387625  0.679863  0.155300  1
  Si  Si502  1  0.215004  0.000000  0.305718  1
  Si  Si503  1  0.715161  0.000000  0.241537  1
  Si  Si504  1  0.285004  0.000000  0.241528  1
  Si  Si505  1  0.000000  0.927437  0.250557  1
  Si  Si506  1  0.500139  0.927482  0.296726  1
  Si  Si507  1  0.000000  0.853973  0.287341  1
  Si  Si508  1  0.500256  0.853998  0.259976  1
  Si  Si509  1  0.000000  0.718812  0.297297  1
  Si  Si510  1  -0.000000  0.781270  0.249886  1
  Si  Si511  1  0.500256  0.718748  0.249931  1
  Si  Si512  1  0.500200  0.781240  0.297320  1
  Si  Si513  1  0.500082  0.000000  0.258893  1
  Si  Si514  1  0.112215  0.680024  0.391746  1
  Si  Si515  1  0.191929  0.072817  0.568128  1
  Si  Si516  1  0.308391  0.072814  0.452521  1
  Si  Si517  1  0.808151  0.072818  0.568333  1
  Si  Si518  1  0.692125  0.072842  0.452314  1
  Si  Si519  1  0.213764  0.144579  0.478592  1
  Si  Si520  1  0.286553  0.144597  0.542092  1
  Si  Si521  1  0.786350  0.144605  0.478537  1
  Si  Si522  1  0.714002  0.144602  0.542091  1
  Si  Si523  1  0.186633  0.213704  0.570798  1
  Si  Si524  1  0.186523  0.286206  0.449823  1
  Si  Si525  1  0.313694  0.213494  0.449669  1
  Si  Si526  1  0.313953  0.286365  0.570975  1
  Si  Si527  1  0.813813  0.286375  0.449548  1
  Si  Si528  1  0.813899  0.213495  0.571072  1
  Si  Si529  1  0.686491  0.286157  0.570917  1
  Si  Si530  1  0.686591  0.213657  0.449699  1
  Si  Si531  1  0.111960  0.320127  0.392127  1
  Si  Si532  1  0.611675  0.179941  0.391979  1
  Si  Si533  1  0.785017  0.000000  0.478196  1
  Si  Si534  1  0.000000  0.072655  0.533389  1
  Si  Si535  1  0.500399  0.072679  0.487267  1
  Si  Si536  1  0.000000  0.146116  0.496609  1
  Si  Si537  1  0.500309  0.146126  0.524066  1
  Si  Si538  1  0.000000  0.218829  0.534042  1
  Si  Si539  1  0.000000  0.281234  0.486588  1
  Si  Si540  1  0.500176  0.218793  0.486557  1
  Si  Si541  1  0.500210  0.281197  0.534017  1
  Si  Si542  1  0.000000  0.000000  0.495603  1
  Si  Si543  1  0.500089  0.000000  0.524994  1
  Si  Si544  1  0.715124  0.000000  0.542396  1
  Si  Si545  1  0.611867  0.320080  0.628615  1
  Si  Si546  1  0.387857  0.320325  0.628679  1
  Si  Si547  1  0.692066  0.572774  0.568252  1
  Si  Si548  1  0.192033  0.427110  0.452556  1
  Si  Si549  1  0.808141  0.572753  0.452450  1
  Si  Si550  1  0.308230  0.427123  0.568131  1
  Si  Si551  1  0.808254  0.427096  0.452532  1
  Si  Si552  1  0.308156  0.572741  0.568238  1
  Si  Si553  1  0.692061  0.427094  0.568131  1
  Si  Si554  1  0.191978  0.572770  0.452394  1
  Si  Si555  1  0.713726  0.644540  0.478602  1
  Si  Si556  1  0.213842  0.355289  0.542096  1
  Si  Si557  1  0.786379  0.644574  0.542120  1
  Si  Si558  1  0.286465  0.355288  0.478571  1
  Si  Si559  1  0.786354  0.355229  0.542120  1
  Si  Si560  1  0.286361  0.644536  0.478549  1
  Si  Si561  1  0.713927  0.355246  0.478568  1
  Si  Si562  1  0.213766  0.644528  0.542074  1
  Si  Si563  1  0.112904  0.408032  0.392048  1
  Si  Si564  1  0.887323  0.592089  0.392002  1
  Si  Si565  1  0.715156  0.500002  0.478250  1
  Si  Si566  1  0.215103  0.500020  0.542418  1
  Si  Si567  1  0.785069  0.500027  0.542451  1
  Si  Si568  1  0.285050  0.500049  0.478221  1
  Si  Si569  1  0.500122  0.572521  0.533397  1
  Si  Si570  1  0.000000  0.427318  0.487356  1
  Si  Si571  1  0.000000  0.572590  0.487285  1
  Si  Si572  1  0.500142  0.427342  0.533328  1
  Si  Si573  1  0.500020  0.646012  0.496648  1
  Si  Si574  1  0.000000  0.353850  0.524093  1
  Si  Si575  1  0.000000  0.646078  0.524047  1
  Si  Si576  1  0.500213  0.353868  0.496600  1
  Si  Si577  1  0.500096  0.499970  0.495624  1
  Si  Si578  1  0.000000  0.499992  0.525013  1
  Si  Si579  1  0.887301  0.408179  0.391977  1
  Si  Si580  1  0.613011  0.407991  0.628646  1
  Si  Si581  1  0.387416  0.408217  0.628665  1
  Si  Si582  1  0.612914  0.592237  0.628690  1
  Si  Si583  1  0.387375  0.591974  0.628699  1
  Si  Si584  1  0.691924  0.927159  0.452595  1
  Si  Si585  1  0.808207  0.927189  0.567992  1
  Si  Si586  1  0.308061  0.927196  0.452434  1
  Si  Si587  1  0.192118  0.927181  0.568252  1
  Si  Si588  1  0.713720  0.855297  0.542052  1
  Si  Si589  1  0.786416  0.855292  0.478535  1
  Si  Si590  1  0.286266  0.855347  0.542125  1
  Si  Si591  1  0.213848  0.855369  0.478579  1
  Si  Si592  1  0.686196  0.713625  0.570869  1
  Si  Si593  1  0.686271  0.786251  0.449760  1
  Si  Si594  1  0.813700  0.713652  0.449909  1
  Si  Si595  1  0.813806  0.786168  0.570695  1
  Si  Si596  1  0.313491  0.786343  0.449687  1
  Si  Si597  1  0.313395  0.713571  0.570939  1
  Si  Si598  1  0.186423  0.786385  0.571080  1
  Si  Si599  1  0.186660  0.713481  0.449539  1
  Si  Si600  1  0.285079  0.000000  0.542438  1
  Si  Si601  1  0.611777  0.819910  0.391980  1
  Si  Si602  1  0.387570  0.908004  0.392002  1
  Si  Si603  1  0.499890  0.927402  0.487339  1
  Si  Si604  1  0.000000  0.927481  0.533306  1
  Si  Si605  1  0.499942  0.853899  0.524059  1
  Si  Si606  1  0.000000  0.853967  0.496610  1
  Si  Si607  1  0.499776  0.718762  0.534025  1
  Si  Si608  1  0.499840  0.781225  0.486611  1
  Si  Si609  1  0.000000  0.718779  0.486577  1
  Si  Si610  1  0.000000  0.781251  0.533976  1
  Si  Si611  1  0.215134  0.000000  0.478243  1
  Si  Si612  1  0.888199  0.679978  0.392147  1
  Si  Si613  1  0.387758  0.820120  0.391978  1
  Si  Si614  1  0.613123  0.907820  0.392098  1
  Si  Si615  1  0.611647  0.680140  0.628703  1
  Si  Si616  1  0.387625  0.679863  0.628677  1
  H  H617  1  0.343520  0.302516  0.108122  1
  H  H618  1  0.655538  0.302070  0.108027  1
  H  H619  1  0.837467  0.075199  0.163770  1
  H  H620  1  0.163157  0.075373  0.163640  1
  H  H621  1  0.844012  0.197706  0.163684  1
  H  H622  1  0.156948  0.197697  0.163359  1
  H  H623  1  0.662943  0.575627  0.108121  1
  H  H624  1  0.337360  0.424786  0.108050  1
  H  H625  1  0.337359  0.575400  0.108115  1
  H  H626  1  0.663058  0.424623  0.108052  1
  H  H627  1  0.655485  0.697889  0.108048  1
  H  H628  1  0.342892  0.697593  0.108146  1
  H  H629  1  0.162514  0.924522  0.163608  1
  H  H630  1  0.837064  0.924388  0.163473  1
  H  H631  1  0.155905  0.802128  0.163839  1
  H  H632  1  0.842646  0.802457  0.163276  1
  H  H633  1  0.162952  0.075254  0.620319  1
  H  H634  1  0.837338  0.075443  0.620479  1
  H  H635  1  0.155739  0.197691  0.620140  1
  H  H636  1  0.843168  0.197348  0.620518  1
  H  H637  1  0.656135  0.302273  0.675819  1
  H  H638  1  0.342982  0.302521  0.675790  1
  H  H639  1  0.663077  0.424552  0.675883  1
  H  H640  1  0.337457  0.575385  0.675920  1
  H  H641  1  0.337364  0.424758  0.675912  1
  H  H642  1  0.662968  0.575636  0.675881  1
  H  H643  1  0.837188  0.924725  0.620181  1
  H  H644  1  0.162822  0.924391  0.620374  1
  H  H645  1  0.844839  0.802070  0.620051  1
  H  H646  1  0.156910  0.802182  0.620617  1
  H  H647  1  0.342864  0.697579  0.675831  1
  H  H648  1  0.655834  0.698046  0.675881  1
