# generated using pymatgen
data_Si9H2O19
_symmetry_space_group_name_H-M   'P 1'
_cell_length_a   7.50249860
_cell_length_b   18.12388572
_cell_length_c   37.44892605
_cell_angle_alpha   90.00000000
_cell_angle_beta   90.00000000
_cell_angle_gamma   90.00000000
_symmetry_Int_Tables_number   1
_chemical_formula_structural   Si9H2O19
_chemical_formula_sum   'Si36 H8 O76'
_cell_volume   5092.09627088
_cell_formula_units_Z   4
loop_
 _symmetry_equiv_pos_site_id
 _symmetry_equiv_pos_as_xyz
  1  'x, y, z'
loop_
 _atom_site_type_symbol
 _atom_site_label
 _atom_site_symmetry_multiplicity
 _atom_site_fract_x
 _atom_site_fract_y
 _atom_site_fract_z
 _atom_site_occupancy
  O  O1  1  0.580780  0.151808  0.340369  1
  O  O2  1  0.919277  0.151807  0.340368  1
  O  O3  1  0.580777  0.348054  0.340359  1
  O  O4  1  0.919297  0.348051  0.340352  1
  O  O5  1  0.250030  0.884875  0.334617  1
  O  O6  1  0.250047  0.615036  0.334583  1
  O  O7  1  0.250077  0.749927  0.358865  1
  O  O8  1  0.419160  0.970381  0.290130  1
  O  O9  1  0.080816  0.970373  0.290134  1
  O  O10  1  0.419234  0.529492  0.290121  1
  O  O11  1  0.080915  0.529472  0.290115  1
  O  O12  1  0.249992  0.860888  0.265973  1
  O  O13  1  0.250025  0.638882  0.265908  1
  O  O14  1  0.420093  0.871472  0.208060  1
  O  O15  1  0.079866  0.871468  0.208061  1
  O  O16  1  0.420173  0.628257  0.207985  1
  O  O17  1  0.079945  0.628239  0.207971  1
  O  O18  1  0.249997  0.749862  0.221774  1
  O  O19  1  0.250026  0.156817  0.316616  1
  O  O20  1  0.250037  0.343042  0.316600  1
  O  O21  1  0.000000  0.105529  0.277657  1
  O  O22  1  0.500261  0.105536  0.277657  1
  O  O23  1  -0.000000  0.394321  0.277642  1
  O  O24  1  0.500321  0.394332  0.277651  1
  O  O25  1  0.018213  0.249922  0.296400  1
  O  O26  1  0.481856  0.249929  0.296402  1
  O  O27  1  0.981063  0.000000  0.226914  1
  O  O28  1  0.518909  0.000000  0.226911  1
  O  O29  1  0.981107  0.500678  0.226891  1
  O  O30  1  0.519014  0.500686  0.226903  1
  O  O31  1  0.749991  0.009995  0.275999  1
  O  O32  1  0.750078  0.489880  0.275990  1
  O  O33  1  0.749977  0.916978  0.197132  1
  O  O34  1  0.750055  0.582700  0.197031  1
  O  O35  1  0.007388  0.960656  0.157575  1
  O  O36  1  0.492550  0.960651  0.157574  1
  O  O37  1  0.007601  0.538805  0.157548  1
  O  O38  1  0.492374  0.538805  0.157570  1
  O  O39  1  0.419339  0.848043  0.392622  1
  O  O40  1  0.080818  0.848039  0.392629  1
  O  O41  1  0.419346  0.651794  0.392614  1
  O  O42  1  0.080847  0.651794  0.392619  1
  O  O43  1  0.750037  0.115037  0.398398  1
  O  O44  1  0.750079  0.384891  0.398364  1
  O  O45  1  0.750046  0.249940  0.374120  1
  O  O46  1  0.580875  0.029471  0.442860  1
  O  O47  1  0.919195  0.029469  0.442861  1
  O  O48  1  0.580966  0.470387  0.442858  1
  O  O49  1  0.919317  0.470365  0.442852  1
  O  O50  1  0.750031  0.138867  0.467071  1
  O  O51  1  0.750094  0.360881  0.467005  1
  O  O52  1  0.579923  0.128237  0.525003  1
  O  O53  1  0.920150  0.128239  0.525001  1
  O  O54  1  0.580070  0.371475  0.524929  1
  O  O55  1  0.920305  0.371425  0.524906  1
  O  O56  1  0.750037  0.249848  0.511202  1
  O  O57  1  0.750077  0.843029  0.416380  1
  O  O58  1  0.750101  0.656805  0.416371  1
  O  O59  1  0.000000  0.894315  0.455335  1
  O  O60  1  0.499791  0.894317  0.455332  1
  O  O61  1  -0.000000  0.605518  0.455331  1
  O  O62  1  0.499862  0.605534  0.455331  1
  O  O63  1  0.981905  0.749913  0.436585  1
  O  O64  1  0.518263  0.749917  0.436579  1
  O  O65  1  0.018990  -0.000000  0.506083  1
  O  O66  1  0.481082  0.000000  0.506082  1
  O  O67  1  0.019072  0.499087  0.506073  1
  O  O68  1  0.481228  0.499118  0.506082  1
  O  O69  1  0.250040  0.989868  0.456990  1
  O  O70  1  0.250144  0.509990  0.456992  1
  O  O71  1  0.250033  0.082693  0.535947  1
  O  O72  1  0.250181  0.416957  0.535854  1
  O  O73  1  0.992415  0.038809  0.575422  1
  O  O74  1  0.507615  0.038797  0.575422  1
  O  O75  1  0.992663  0.460573  0.575401  1
  O  O76  1  0.507559  0.460635  0.575422  1
  Si  Si77  1  0.045265  0.165548  0.307185  1
  Si  Si78  1  0.454787  0.165554  0.307187  1
  Si  Si79  1  0.045280  0.334304  0.307170  1
  Si  Si80  1  0.454800  0.334310  0.307175  1
  Si  Si81  1  0.954688  0.022467  0.267588  1
  Si  Si82  1  0.545298  0.022471  0.267586  1
  Si  Si83  1  0.954757  0.477389  0.267572  1
  Si  Si84  1  0.545386  0.477396  0.267582  1
  Si  Si85  1  0.955065  0.937727  0.196904  1
  Si  Si86  1  0.544891  0.937730  0.196902  1
  Si  Si87  1  0.955147  0.561961  0.196835  1
  Si  Si88  1  0.544954  0.561973  0.196849  1
  Si  Si89  1  0.750031  0.165174  0.364490  1
  Si  Si90  1  0.750049  0.334699  0.364474  1
  Si  Si91  1  0.249998  0.920507  0.296661  1
  Si  Si92  1  0.250054  0.579363  0.296635  1
  Si  Si93  1  0.249983  0.835556  0.225664  1
  Si  Si94  1  0.250029  0.664152  0.225591  1
  Si  Si95  1  0.954834  0.834292  0.425810  1
  Si  Si96  1  0.545314  0.834298  0.425806  1
  Si  Si97  1  0.954859  0.665536  0.425802  1
  Si  Si98  1  0.545337  0.665542  0.425797  1
  Si  Si99  1  0.045355  0.977384  0.465403  1
  Si  Si100  1  0.454726  0.977381  0.465402  1
  Si  Si101  1  0.045444  0.522456  0.465400  1
  Si  Si102  1  0.454833  0.522471  0.465407  1
  Si  Si103  1  0.044938  0.061960  0.536138  1
  Si  Si104  1  0.455127  0.061957  0.536138  1
  Si  Si105  1  0.045082  0.437683  0.536074  1
  Si  Si106  1  0.455257  0.437725  0.536090  1
  Si  Si107  1  0.250068  0.834687  0.368507  1
  Si  Si108  1  0.250085  0.665162  0.368495  1
  Si  Si109  1  0.750036  0.079351  0.436344  1
  Si  Si110  1  0.750117  0.420511  0.436322  1
  Si  Si111  1  0.750033  0.164139  0.507388  1
  Si  Si112  1  0.750123  0.335542  0.507313  1
  H  H113  1  0.007388  0.960656  0.133543  1
  H  H114  1  0.492550  0.960651  0.133541  1
  H  H115  1  0.007601  0.538805  0.133515  1
  H  H116  1  0.492374  0.538805  0.133537  1
  H  H117  1  0.992415  0.038809  0.599454  1
  H  H118  1  0.507615  0.038797  0.599454  1
  H  H119  1  0.992663  0.460573  0.599434  1
  H  H120  1  0.507559  0.460635  0.599454  1
