# generated using pymatgen
data_Si9(HO5)4
_symmetry_space_group_name_H-M   'P 1'
_cell_length_a   12.88379592
_cell_length_b   19.90959990
_cell_length_c   45.98045072
_cell_angle_alpha   130.32211271
_cell_angle_beta   120.00000000
_cell_angle_gamma   71.12273184
_symmetry_Int_Tables_number   1
_chemical_formula_structural   Si9(HO5)4
_chemical_formula_sum   'Si36 H16 O80'
_cell_volume   7787.60180846
_cell_formula_units_Z   4
loop_
 _symmetry_equiv_pos_site_id
 _symmetry_equiv_pos_as_xyz
  1  'x, y, z'
loop_
 _atom_site_type_symbol
 _atom_site_label
 _atom_site_symmetry_multiplicity
 _atom_site_fract_x
 _atom_site_fract_y
 _atom_site_fract_z
 _atom_site_occupancy
  O  O1  1  0.019557  0.083192  0.177246  1
  O  O2  1  0.019862  0.083129  0.282775  1
  O  O3  1  0.301484  0.083306  0.177063  1
  O  O4  1  0.228916  0.139971  0.231203  1
  O  O5  1  0.229147  0.140026  0.319269  1
  O  O6  1  0.062939  0.250181  0.245180  1
  O  O7  1  0.062991  0.250118  0.320665  1
  O  O8  1  0.334094  0.250235  0.245103  1
  O  O9  1  0.088908  0.127973  0.252258  1
  O  O10  1  0.455862  0.127811  0.252061  1
  O  O11  1  0.320850  0.583364  0.311937  1
  O  O12  1  0.320958  0.583298  0.232935  1
  O  O13  1  0.019687  0.417057  0.270886  1
  O  O14  1  0.301561  0.417092  0.175407  1
  O  O15  1  0.301781  0.417227  0.270906  1
  O  O16  1  0.457414  0.640028  0.307464  1
  O  O17  1  0.228985  0.360254  0.293128  1
  O  O18  1  0.088575  0.372390  0.320830  1
  O  O19  1  0.455943  0.372299  0.320779  1
  O  O20  1  0.113402  0.513521  0.176018  1
  O  O21  1  0.113413  0.513455  0.271507  1
  O  O22  1  0.226928  0.486832  0.232203  1
  O  O23  1  0.321061  0.916947  0.326297  1
  O  O24  1  0.396531  0.750163  0.291748  1
  O  O25  1  0.113388  0.986457  0.308282  1
  O  O26  1  0.678628  0.083217  0.282883  1
  O  O27  1  0.542058  0.139734  0.319109  1
  O  O28  1  0.603158  0.250001  0.320650  1
  O  O29  1  0.886304  0.013711  0.284105  1
  O  O30  1  0.697900  0.582938  0.232736  1
  O  O31  1  0.980001  0.583111  0.311852  1
  O  O32  1  0.770701  0.639911  0.307281  1
  O  O33  1  0.543742  0.627865  0.264592  1
  O  O34  1  0.886271  0.486707  0.232193  1
  O  O35  1  0.979827  0.917032  0.230629  1
  O  O36  1  0.698203  0.916857  0.326098  1
  O  O37  1  0.698357  0.917113  0.230885  1
  O  O38  1  0.665585  0.749930  0.291457  1
  O  O39  1  0.543825  0.872355  0.332902  1
  O  O40  1  0.773400  0.986925  0.308619  1
  O  O41  1  0.019557  0.083192  0.457434  1
  O  O42  1  0.301339  0.083052  0.361855  1
  O  O43  1  0.301484  0.083306  0.457251  1
  O  O44  1  0.333857  0.250037  0.396710  1
  O  O45  1  0.456074  0.127773  0.355320  1
  O  O46  1  0.226289  0.013239  0.379439  1
  O  O47  1  0.301561  0.417092  0.455596  1
  O  O48  1  0.019643  0.417013  0.376509  1
  O  O49  1  0.228934  0.360304  0.381093  1
  O  O50  1  0.456022  0.372144  0.423863  1
  O  O51  1  0.113402  0.513521  0.456206  1
  O  O52  1  0.320898  0.917148  0.405301  1
  O  O53  1  0.457630  0.860432  0.369118  1
  O  O54  1  0.396256  0.750289  0.367692  1
  O  O55  1  0.113388  0.986771  0.404053  1
  O  O56  1  0.678797  0.083016  0.361821  1
  O  O57  1  0.603433  0.249875  0.396601  1
  O  O58  1  0.886302  0.013389  0.379697  1
  O  O59  1  0.980040  0.583136  0.417504  1
  O  O60  1  0.697900  0.582938  0.512925  1
  O  O61  1  0.698128  0.583069  0.417564  1
  O  O62  1  0.678729  0.416865  0.376520  1
  O  O63  1  0.678836  0.416800  0.455515  1
  O  O64  1  0.770755  0.639858  0.395233  1
  O  O65  1  0.542276  0.360137  0.381024  1
  O  O66  1  0.911112  0.627775  0.367524  1
  O  O67  1  0.543667  0.628017  0.367740  1
  O  O68  1  0.772763  0.513330  0.456191  1
  O  O69  1  0.886271  0.486707  0.512381  1
  O  O70  1  0.886284  0.486639  0.416857  1
  O  O71  1  0.979827  0.917032  0.510817  1
  O  O72  1  0.980135  0.916973  0.405340  1
  O  O73  1  0.698357  0.917113  0.511074  1
  O  O74  1  0.770548  0.860127  0.456785  1
  O  O75  1  0.770771  0.860193  0.368818  1
  O  O76  1  0.936705  0.750038  0.443047  1
  O  O77  1  0.936747  0.749984  0.367540  1
  O  O78  1  0.665835  0.750125  0.443244  1
  O  O79  1  0.910785  0.872183  0.435824  1
  O  O80  1  0.543623  0.872389  0.436123  1
  Si  Si81  1  0.094669  0.149073  0.225421  1
  Si  Si82  1  0.094813  0.149062  0.292551  1
  Si  Si83  1  0.333140  0.149070  0.225297  1
  Si  Si84  1  0.427130  0.649166  0.339214  1
  Si  Si85  1  0.427227  0.649073  0.272332  1
  Si  Si86  1  0.094637  0.351252  0.282199  1
  Si  Si87  1  0.333211  0.351261  0.282146  1
  Si  Si88  1  0.239875  0.500173  0.204119  1
  Si  Si89  1  0.239907  0.500206  0.271402  1
  Si  Si90  1  0.427430  0.851274  0.328882  1
  Si  Si91  1  0.239674  0.000000  0.343954  1
  Si  Si92  1  0.572261  0.148890  0.292467  1
  Si  Si93  1  0.760019  -0.000000  0.276852  1
  Si  Si94  1  0.000000  -0.000000  0.276666  1
  Si  Si95  1  0.760016  -0.000000  0.344048  1
  Si  Si96  1  0.666469  0.648904  0.272135  1
  Si  Si97  1  0.905051  0.648913  0.339040  1
  Si  Si98  1  -0.000000  0.500083  0.271381  1
  Si  Si99  1  0.666544  0.851096  0.328610  1
  Si  Si100  1  0.333148  0.148970  0.359475  1
  Si  Si101  1  0.239672  0.000000  0.411284  1
  Si  Si102  1  0.333067  0.351166  0.416207  1
  Si  Si103  1  0.094596  0.351255  0.349309  1
  Si  Si104  1  0.427184  0.851353  0.395740  1
  Si  Si105  1  0.572507  0.148810  0.359349  1
  Si  Si106  1  0.000000  0.000000  0.411417  1
  Si  Si107  1  0.905090  0.648903  0.406157  1
  Si  Si108  1  0.666627  0.648996  0.406292  1
  Si  Si109  1  0.572461  0.351090  0.349281  1
  Si  Si110  1  0.572558  0.350997  0.416139  1
  Si  Si111  1  0.759776  0.499959  0.484259  1
  Si  Si112  1  0.759816  0.499988  0.417004  1
  Si  Si113  1  -0.000000  0.500077  0.416994  1
  Si  Si114  1  0.904881  0.851094  0.462645  1
  Si  Si115  1  0.905021  0.851092  0.395550  1
  Si  Si116  1  0.666550  0.851191  0.462843  1
  H  H117  1  0.019557  0.083192  0.157672  1
  H  H118  1  0.301484  0.083306  0.157489  1
  H  H119  1  0.301561  0.417092  0.155834  1
  H  H120  1  0.113402  0.513521  0.156444  1
  H  H121  1  0.697900  0.582938  0.213163  1
  H  H122  1  0.886271  0.486707  0.212619  1
  H  H123  1  0.979827  0.917032  0.211055  1
  H  H124  1  0.698357  0.917113  0.211312  1
  H  H125  1  0.019557  0.083192  0.477008  1
  H  H126  1  0.301484  0.083306  0.476825  1
  H  H127  1  0.301561  0.417092  0.475169  1
  H  H128  1  0.113402  0.513521  0.475780  1
  H  H129  1  0.697900  0.582938  0.532498  1
  H  H130  1  0.886271  0.486707  0.531955  1
  H  H131  1  0.979827  0.917032  0.530390  1
  H  H132  1  0.698357  0.917113  0.530647  1
