# generated using pymatgen
data_Si45H2O91
_symmetry_space_group_name_H-M   'P 1'
_cell_length_a   7.50249860
_cell_length_b   18.12388572
_cell_length_c   100.93432961
_cell_angle_alpha   90.00000000
_cell_angle_beta   90.00000000
_cell_angle_gamma   90.00000000
_symmetry_Int_Tables_number   1
_chemical_formula_structural   Si45H2O91
_chemical_formula_sum   'Si180 H8 O364'
_cell_volume   13724.4876575
_cell_formula_units_Z   4
loop_
 _symmetry_equiv_pos_site_id
 _symmetry_equiv_pos_as_xyz
  1  'x, y, z'
loop_
 _atom_site_type_symbol
 _atom_site_label
 _atom_site_symmetry_multiplicity
 _atom_site_fract_x
 _atom_site_fract_y
 _atom_site_fract_z
 _atom_site_occupancy
  O  O1  1  0.250030  0.884875  0.058466  1
  O  O2  1  0.250047  0.615036  0.058454  1
  O  O3  1  0.250077  0.749927  0.067463  1
  O  O4  1  0.580780  0.151808  0.314048  1
  O  O5  1  0.919277  0.151807  0.314047  1
  O  O6  1  0.580777  0.348054  0.314044  1
  O  O7  1  0.919297  0.348051  0.314041  1
  O  O8  1  0.419339  0.848043  0.079988  1
  O  O9  1  0.080818  0.848039  0.079990  1
  O  O10  1  0.419346  0.651794  0.079984  1
  O  O11  1  0.080847  0.651794  0.079986  1
  O  O12  1  0.750037  0.115037  0.082131  1
  O  O13  1  0.750079  0.384891  0.082118  1
  O  O14  1  0.250030  0.884875  0.311913  1
  O  O15  1  0.250047  0.615036  0.311901  1
  O  O16  1  0.250077  0.749927  0.320910  1
  O  O17  1  0.580875  0.029471  0.098627  1
  O  O18  1  0.919195  0.029469  0.098627  1
  O  O19  1  0.580966  0.470387  0.098626  1
  O  O20  1  0.919317  0.470365  0.098624  1
  O  O21  1  0.419160  0.970381  0.295408  1
  O  O22  1  0.080816  0.970373  0.295409  1
  O  O23  1  0.419234  0.529492  0.295404  1
  O  O24  1  0.080915  0.529472  0.295402  1
  O  O25  1  0.750031  0.138867  0.107610  1
  O  O26  1  0.750094  0.360881  0.107585  1
  O  O27  1  0.249992  0.860888  0.286445  1
  O  O28  1  0.250025  0.638882  0.286421  1
  O  O29  1  0.579923  0.128237  0.129104  1
  O  O30  1  0.920150  0.128239  0.129103  1
  O  O31  1  0.580070  0.371475  0.129077  1
  O  O32  1  0.920305  0.371425  0.129068  1
  O  O33  1  0.420093  0.871472  0.264958  1
  O  O34  1  0.079866  0.871468  0.264958  1
  O  O35  1  0.420173  0.628257  0.264930  1
  O  O36  1  0.079945  0.628239  0.264925  1
  O  O37  1  0.750037  0.249848  0.123983  1
  O  O38  1  0.249997  0.749862  0.270046  1
  O  O39  1  0.250026  0.156817  0.305235  1
  O  O40  1  0.250037  0.343042  0.305229  1
  O  O41  1  0.750077  0.843029  0.088802  1
  O  O42  1  0.750101  0.656805  0.088799  1
  O  O43  1  0.000000  0.105529  0.290780  1
  O  O44  1  0.500261  0.105536  0.290780  1
  O  O45  1  0.000000  0.394321  0.290775  1
  O  O46  1  0.500321  0.394332  0.290778  1
  O  O47  1  0.000000  0.894315  0.103256  1
  O  O48  1  0.499791  0.894317  0.103254  1
  O  O49  1  0.000000  0.605518  0.103254  1
  O  O50  1  0.499862  0.605534  0.103254  1
  O  O51  1  0.018213  0.249922  0.297734  1
  O  O52  1  0.481856  0.249929  0.297735  1
  O  O53  1  0.981905  0.749913  0.096299  1
  O  O54  1  0.518263  0.749917  0.096297  1
  O  O55  1  0.018990  0.000000  0.122084  1
  O  O56  1  0.481082  0.000000  0.122084  1
  O  O57  1  0.019072  0.499087  0.122080  1
  O  O58  1  0.481228  0.499118  0.122084  1
  O  O59  1  0.981063  -0.000000  0.271953  1
  O  O60  1  0.518909  0.000000  0.271952  1
  O  O61  1  0.981107  0.500678  0.271945  1
  O  O62  1  0.519014  0.500686  0.271949  1
  O  O63  1  0.250040  0.989868  0.103870  1
  O  O64  1  0.250144  0.509990  0.103870  1
  O  O65  1  0.749991  0.009995  0.290165  1
  O  O66  1  0.750078  0.489880  0.290161  1
  O  O67  1  0.250033  0.082693  0.133164  1
  O  O68  1  0.250181  0.416957  0.133130  1
  O  O69  1  0.749977  0.916978  0.260903  1
  O  O70  1  0.750055  0.582700  0.260866  1
  O  O71  1  0.992415  0.038809  0.147810  1
  O  O72  1  0.507615  0.038797  0.147810  1
  O  O73  1  0.992663  0.460573  0.147803  1
  O  O74  1  0.507559  0.460635  0.147810  1
  O  O75  1  0.007388  0.960656  0.246227  1
  O  O76  1  0.492550  0.960651  0.246226  1
  O  O77  1  0.007601  0.538805  0.246217  1
  O  O78  1  0.492374  0.538805  0.246225  1
  O  O79  1  0.078518  0.123913  0.166765  1
  O  O80  1  0.421497  0.123887  0.166767  1
  O  O81  1  0.078761  0.375189  0.166719  1
  O  O82  1  0.421471  0.375237  0.166724  1
  O  O83  1  0.921301  0.875275  0.227312  1
  O  O84  1  0.578608  0.875269  0.227310  1
  O  O85  1  0.921491  0.623935  0.227267  1
  O  O86  1  0.578501  0.623929  0.227280  1
  O  O87  1  0.250127  0.249491  0.168525  1
  O  O88  1  0.749971  0.749536  0.225515  1
  O  O89  1  0.249988  0.157396  0.187312  1
  O  O90  1  0.250093  0.342154  0.187243  1
  O  O91  1  0.749986  0.842178  0.206793  1
  O  O92  1  0.749770  0.657420  0.206731  1
  O  O93  1  0.080178  0.122216  0.207630  1
  O  O94  1  0.419704  0.122219  0.207633  1
  O  O95  1  0.079512  0.378183  0.207448  1
  O  O96  1  0.420463  0.378164  0.207458  1
  O  O97  1  0.920402  0.878158  0.186577  1
  O  O98  1  0.579456  0.878159  0.186582  1
  O  O99  1  0.919890  0.622313  0.186427  1
  O  O100  1  0.580321  0.622176  0.186400  1
  O  O101  1  0.249944  0.250207  0.205991  1
  O  O102  1  0.749881  0.750201  0.188049  1
  O  O103  1  0.006004  0.990482  0.172141  1
  O  O104  1  0.493969  0.990463  0.172142  1
  O  O105  1  0.003325  0.508485  0.172151  1
  O  O106  1  0.497061  0.508545  0.172166  1
  O  O107  1  0.996939  0.008578  0.221870  1
  O  O108  1  0.502970  0.008572  0.221870  1
  O  O109  1  0.993982  0.490519  0.221881  1
  O  O110  1  0.506065  0.490494  0.221892  1
  O  O111  1  0.750000  0.073382  0.164633  1
  O  O112  1  0.750111  0.425080  0.164536  1
  O  O113  1  0.249955  0.925107  0.229501  1
  O  O114  1  0.249999  0.573395  0.229399  1
  O  O115  1  0.249940  0.930946  0.186378  1
  O  O116  1  0.250002  0.571227  0.185524  1
  O  O117  1  0.749946  0.071211  0.208503  1
  O  O118  1  0.749996  0.430977  0.207649  1
  O  O119  1  0.995152  0.001185  0.196928  1
  O  O120  1  0.504704  0.001200  0.196928  1
  O  O121  1  0.004781  0.501197  0.197091  1
  O  O122  1  0.495140  0.501188  0.197106  1
  O  O123  1  0.580780  0.151808  0.567495  1
  O  O124  1  0.919277  0.151807  0.567494  1
  O  O125  1  0.580777  0.348054  0.567491  1
  O  O126  1  0.919297  0.348051  0.567488  1
  O  O127  1  0.419339  0.848043  0.333435  1
  O  O128  1  0.080818  0.848039  0.333437  1
  O  O129  1  0.419346  0.651794  0.333432  1
  O  O130  1  0.080847  0.651794  0.333434  1
  O  O131  1  0.750037  0.115037  0.335578  1
  O  O132  1  0.750079  0.384891  0.335565  1
  O  O133  1  0.250030  0.884875  0.565360  1
  O  O134  1  0.250047  0.615036  0.565348  1
  O  O135  1  0.750046  0.249940  0.326570  1
  O  O136  1  0.250077  0.749927  0.574357  1
  O  O137  1  0.580875  0.029471  0.352074  1
  O  O138  1  0.919195  0.029469  0.352074  1
  O  O139  1  0.580966  0.470387  0.352073  1
  O  O140  1  0.919317  0.470365  0.352071  1
  O  O141  1  0.419160  0.970381  0.548855  1
  O  O142  1  0.080816  0.970373  0.548856  1
  O  O143  1  0.419234  0.529492  0.548851  1
  O  O144  1  0.080915  0.529472  0.548849  1
  O  O145  1  0.750031  0.138867  0.361057  1
  O  O146  1  0.750094  0.360881  0.361032  1
  O  O147  1  0.249992  0.860888  0.539892  1
  O  O148  1  0.250025  0.638882  0.539868  1
  O  O149  1  0.579923  0.128237  0.382551  1
  O  O150  1  0.920150  0.128239  0.382550  1
  O  O151  1  0.580070  0.371475  0.382524  1
  O  O152  1  0.920305  0.371425  0.382515  1
  O  O153  1  0.420093  0.871472  0.518405  1
  O  O154  1  0.079866  0.871468  0.518405  1
  O  O155  1  0.420173  0.628257  0.518377  1
  O  O156  1  0.079945  0.628239  0.518372  1
  O  O157  1  0.750037  0.249848  0.377430  1
  O  O158  1  0.249997  0.749862  0.523493  1
  O  O159  1  0.250026  0.156817  0.558682  1
  O  O160  1  0.250037  0.343042  0.558676  1
  O  O161  1  0.750077  0.843029  0.342249  1
  O  O162  1  0.750101  0.656805  0.342246  1
  O  O163  1  0.000000  0.105529  0.544227  1
  O  O164  1  0.500261  0.105536  0.544227  1
  O  O165  1  0.000000  0.394321  0.544222  1
  O  O166  1  0.500321  0.394332  0.544225  1
  O  O167  1  0.000000  0.894315  0.356703  1
  O  O168  1  0.499791  0.894317  0.356701  1
  O  O169  1  0.000000  0.605518  0.356701  1
  O  O170  1  0.499862  0.605534  0.356701  1
  O  O171  1  0.018213  0.249922  0.551181  1
  O  O172  1  0.481856  0.249929  0.551182  1
  O  O173  1  0.981905  0.749913  0.349746  1
  O  O174  1  0.518263  0.749917  0.349744  1
  O  O175  1  0.018990  0.000000  0.375531  1
  O  O176  1  0.481082  0.000000  0.375531  1
  O  O177  1  0.019072  0.499087  0.375528  1
  O  O178  1  0.481228  0.499118  0.375531  1
  O  O179  1  0.981063  -0.000000  0.525400  1
  O  O180  1  0.518909  0.000000  0.525399  1
  O  O181  1  0.981107  0.500678  0.525392  1
  O  O182  1  0.519014  0.500686  0.525396  1
  O  O183  1  0.250040  0.989868  0.357317  1
  O  O184  1  0.250144  0.509990  0.357317  1
  O  O185  1  0.749991  0.009995  0.543612  1
  O  O186  1  0.750078  0.489880  0.543609  1
  O  O187  1  0.250033  0.082693  0.386612  1
  O  O188  1  0.250181  0.416957  0.386577  1
  O  O189  1  0.749977  0.916978  0.514350  1
  O  O190  1  0.750055  0.582700  0.514313  1
  O  O191  1  0.992415  0.038809  0.401257  1
  O  O192  1  0.507615  0.038797  0.401257  1
  O  O193  1  0.992663  0.460573  0.401250  1
  O  O194  1  0.507559  0.460635  0.401257  1
  O  O195  1  0.007388  0.960656  0.499674  1
  O  O196  1  0.492550  0.960651  0.499674  1
  O  O197  1  0.007601  0.538805  0.499664  1
  O  O198  1  0.492374  0.538805  0.499672  1
  O  O199  1  0.078518  0.123913  0.420212  1
  O  O200  1  0.421497  0.123887  0.420214  1
  O  O201  1  0.078761  0.375189  0.420166  1
  O  O202  1  0.421471  0.375237  0.420171  1
  O  O203  1  0.921301  0.875275  0.480759  1
  O  O204  1  0.578608  0.875269  0.480757  1
  O  O205  1  0.921491  0.623935  0.480714  1
  O  O206  1  0.578501  0.623929  0.480727  1
  O  O207  1  0.250127  0.249491  0.421972  1
  O  O208  1  0.749971  0.749536  0.478962  1
  O  O209  1  0.249988  0.157396  0.440759  1
  O  O210  1  0.250093  0.342154  0.440690  1
  O  O211  1  0.749986  0.842178  0.460240  1
  O  O212  1  0.749770  0.657420  0.460178  1
  O  O213  1  0.080178  0.122216  0.461077  1
  O  O214  1  0.419704  0.122219  0.461080  1
  O  O215  1  0.079512  0.378183  0.460895  1
  O  O216  1  0.420463  0.378164  0.460905  1
  O  O217  1  0.920402  0.878158  0.440024  1
  O  O218  1  0.579456  0.878159  0.440030  1
  O  O219  1  0.919890  0.622313  0.439874  1
  O  O220  1  0.580321  0.622176  0.439847  1
  O  O221  1  0.249944  0.250207  0.459438  1
  O  O222  1  0.749881  0.750201  0.441496  1
  O  O223  1  0.006004  0.990482  0.425588  1
  O  O224  1  0.493969  0.990463  0.425589  1
  O  O225  1  0.003325  0.508485  0.425599  1
  O  O226  1  0.497061  0.508545  0.425613  1
  O  O227  1  0.996939  0.008578  0.475317  1
  O  O228  1  0.502970  0.008572  0.475317  1
  O  O229  1  0.993982  0.490519  0.475328  1
  O  O230  1  0.506065  0.490494  0.475340  1
  O  O231  1  0.750000  0.073382  0.418080  1
  O  O232  1  0.750111  0.425080  0.417983  1
  O  O233  1  0.249955  0.925107  0.482949  1
  O  O234  1  0.249999  0.573395  0.482846  1
  O  O235  1  0.249940  0.930946  0.439825  1
  O  O236  1  0.250002  0.571227  0.438971  1
  O  O237  1  0.749946  0.071211  0.461950  1
  O  O238  1  0.749996  0.430977  0.461096  1
  O  O239  1  0.995152  0.001185  0.450375  1
  O  O240  1  0.504704  0.001200  0.450375  1
  O  O241  1  0.004781  0.501197  0.450538  1
  O  O242  1  0.495140  0.501188  0.450553  1
  O  O243  1  0.580780  0.151808  0.820942  1
  O  O244  1  0.919277  0.151807  0.820942  1
  O  O245  1  0.580777  0.348054  0.820938  1
  O  O246  1  0.919297  0.348051  0.820935  1
  O  O247  1  0.419339  0.848043  0.586882  1
  O  O248  1  0.080818  0.848039  0.586884  1
  O  O249  1  0.419346  0.651794  0.586879  1
  O  O250  1  0.080847  0.651794  0.586881  1
  O  O251  1  0.750037  0.115037  0.589025  1
  O  O252  1  0.750079  0.384891  0.589012  1
  O  O253  1  0.250030  0.884875  0.818807  1
  O  O254  1  0.250047  0.615036  0.818795  1
  O  O255  1  0.750046  0.249940  0.580017  1
  O  O256  1  0.580875  0.029471  0.605521  1
  O  O257  1  0.919195  0.029469  0.605521  1
  O  O258  1  0.580966  0.470387  0.605520  1
  O  O259  1  0.919317  0.470365  0.605518  1
  O  O260  1  0.419160  0.970381  0.802302  1
  O  O261  1  0.080816  0.970373  0.802303  1
  O  O262  1  0.419234  0.529492  0.802298  1
  O  O263  1  0.080915  0.529472  0.802296  1
  O  O264  1  0.750031  0.138867  0.614504  1
  O  O265  1  0.750094  0.360881  0.614479  1
  O  O266  1  0.249992  0.860888  0.793339  1
  O  O267  1  0.250025  0.638882  0.793315  1
  O  O268  1  0.579923  0.128237  0.635998  1
  O  O269  1  0.920150  0.128239  0.635997  1
  O  O270  1  0.580070  0.371475  0.635971  1
  O  O271  1  0.920305  0.371425  0.635962  1
  O  O272  1  0.420093  0.871472  0.771852  1
  O  O273  1  0.079866  0.871468  0.771852  1
  O  O274  1  0.420173  0.628257  0.771824  1
  O  O275  1  0.079945  0.628239  0.771819  1
  O  O276  1  0.750037  0.249848  0.630877  1
  O  O277  1  0.249997  0.749862  0.776940  1
  O  O278  1  0.250026  0.156817  0.812129  1
  O  O279  1  0.250037  0.343042  0.812123  1
  O  O280  1  0.750077  0.843029  0.595697  1
  O  O281  1  0.750101  0.656805  0.595693  1
  O  O282  1  0.000000  0.105529  0.797674  1
  O  O283  1  0.500261  0.105536  0.797674  1
  O  O284  1  -0.000000  0.394321  0.797669  1
  O  O285  1  0.500321  0.394332  0.797672  1
  O  O286  1  0.000000  0.894315  0.610150  1
  O  O287  1  0.499791  0.894317  0.610149  1
  O  O288  1  0.000000  0.605518  0.610148  1
  O  O289  1  0.499862  0.605534  0.610148  1
  O  O290  1  0.018213  0.249922  0.804628  1
  O  O291  1  0.481856  0.249929  0.804629  1
  O  O292  1  0.981905  0.749913  0.603193  1
  O  O293  1  0.518263  0.749917  0.603191  1
  O  O294  1  0.018990  -0.000000  0.628978  1
  O  O295  1  0.481082  0.000000  0.628978  1
  O  O296  1  0.019072  0.499087  0.628975  1
  O  O297  1  0.481228  0.499118  0.628978  1
  O  O298  1  0.981063  0.000000  0.778847  1
  O  O299  1  0.518909  0.000000  0.778846  1
  O  O300  1  0.981107  0.500678  0.778839  1
  O  O301  1  0.519014  0.500686  0.778843  1
  O  O302  1  0.250040  0.989868  0.610764  1
  O  O303  1  0.250144  0.509990  0.610764  1
  O  O304  1  0.749991  0.009995  0.797059  1
  O  O305  1  0.750078  0.489880  0.797056  1
  O  O306  1  0.250033  0.082693  0.640059  1
  O  O307  1  0.250181  0.416957  0.640024  1
  O  O308  1  0.749977  0.916978  0.767797  1
  O  O309  1  0.750055  0.582700  0.767760  1
  O  O310  1  0.992415  0.038809  0.654705  1
  O  O311  1  0.507615  0.038797  0.654705  1
  O  O312  1  0.992663  0.460573  0.654697  1
  O  O313  1  0.507559  0.460635  0.654705  1
  O  O314  1  0.007388  0.960656  0.753121  1
  O  O315  1  0.492550  0.960651  0.753121  1
  O  O316  1  0.007601  0.538805  0.753111  1
  O  O317  1  0.492374  0.538805  0.753119  1
  O  O318  1  0.078518  0.123913  0.673659  1
  O  O319  1  0.421497  0.123887  0.673661  1
  O  O320  1  0.078761  0.375189  0.673613  1
  O  O321  1  0.421471  0.375237  0.673618  1
  O  O322  1  0.921301  0.875275  0.734206  1
  O  O323  1  0.578608  0.875269  0.734205  1
  O  O324  1  0.921491  0.623935  0.734161  1
  O  O325  1  0.578501  0.623929  0.734174  1
  O  O326  1  0.250127  0.249491  0.675419  1
  O  O327  1  0.749971  0.749536  0.732409  1
  O  O328  1  0.249988  0.157396  0.694206  1
  O  O329  1  0.250093  0.342154  0.694137  1
  O  O330  1  0.749986  0.842178  0.713687  1
  O  O331  1  0.749770  0.657420  0.713625  1
  O  O332  1  0.080178  0.122216  0.714524  1
  O  O333  1  0.419704  0.122219  0.714527  1
  O  O334  1  0.079512  0.378183  0.714342  1
  O  O335  1  0.420463  0.378164  0.714353  1
  O  O336  1  0.920402  0.878158  0.693471  1
  O  O337  1  0.579456  0.878159  0.693477  1
  O  O338  1  0.919890  0.622313  0.693321  1
  O  O339  1  0.580321  0.622176  0.693294  1
  O  O340  1  0.249944  0.250207  0.712885  1
  O  O341  1  0.749881  0.750201  0.694943  1
  O  O342  1  0.006004  0.990482  0.679035  1
  O  O343  1  0.493969  0.990463  0.679036  1
  O  O344  1  0.003325  0.508485  0.679046  1
  O  O345  1  0.497061  0.508545  0.679060  1
  O  O346  1  0.996939  0.008578  0.728764  1
  O  O347  1  0.502970  0.008572  0.728764  1
  O  O348  1  0.993982  0.490519  0.728775  1
  O  O349  1  0.506065  0.490494  0.728787  1
  O  O350  1  0.750000  0.073382  0.671527  1
  O  O351  1  0.750111  0.425080  0.671431  1
  O  O352  1  0.249955  0.925107  0.736396  1
  O  O353  1  0.249999  0.573395  0.736293  1
  O  O354  1  0.249940  0.930946  0.693272  1
  O  O355  1  0.250002  0.571227  0.692418  1
  O  O356  1  0.749946  0.071211  0.715398  1
  O  O357  1  0.749996  0.430977  0.714543  1
  O  O358  1  0.995152  0.001185  0.703822  1
  O  O359  1  0.504704  0.001200  0.703822  1
  O  O360  1  0.004781  0.501197  0.703985  1
  O  O361  1  0.495140  0.501188  0.704000  1
  O  O362  1  0.750037  0.115037  0.842472  1
  O  O363  1  0.750079  0.384891  0.842459  1
  O  O364  1  0.750046  0.249940  0.833464  1
  Si  Si365  1  0.045265  0.165548  0.301736  1
  Si  Si366  1  0.454787  0.165554  0.301736  1
  Si  Si367  1  0.045280  0.334304  0.301730  1
  Si  Si368  1  0.454800  0.334310  0.301732  1
  Si  Si369  1  0.954834  0.834292  0.092301  1
  Si  Si370  1  0.545314  0.834298  0.092300  1
  Si  Si371  1  0.954859  0.665536  0.092298  1
  Si  Si372  1  0.545337  0.665542  0.092296  1
  Si  Si373  1  0.045355  0.977384  0.106991  1
  Si  Si374  1  0.454726  0.977381  0.106991  1
  Si  Si375  1  0.045444  0.522456  0.106990  1
  Si  Si376  1  0.454833  0.522471  0.106993  1
  Si  Si377  1  0.954688  0.022467  0.287044  1
  Si  Si378  1  0.545298  0.022471  0.287043  1
  Si  Si379  1  0.954757  0.477389  0.287038  1
  Si  Si380  1  0.545386  0.477396  0.287042  1
  Si  Si381  1  0.044938  0.061960  0.133235  1
  Si  Si382  1  0.455127  0.061957  0.133235  1
  Si  Si383  1  0.045082  0.437683  0.133212  1
  Si  Si384  1  0.455257  0.437725  0.133217  1
  Si  Si385  1  0.955065  0.937727  0.260819  1
  Si  Si386  1  0.544891  0.937730  0.260818  1
  Si  Si387  1  0.955147  0.561961  0.260793  1
  Si  Si388  1  0.544954  0.561973  0.260798  1
  Si  Si389  1  0.955289  0.056931  0.162890  1
  Si  Si390  1  0.544719  0.056909  0.162891  1
  Si  Si391  1  0.955187  0.442036  0.162863  1
  Si  Si392  1  0.545047  0.442089  0.162870  1
  Si  Si393  1  0.044891  0.942121  0.231167  1
  Si  Si394  1  0.455022  0.942114  0.231167  1
  Si  Si395  1  0.044708  0.556941  0.231137  1
  Si  Si396  1  0.455276  0.556929  0.231145  1
  Si  Si397  1  0.044713  0.947826  0.185363  1
  Si  Si398  1  0.455168  0.947828  0.185364  1
  Si  Si399  1  0.044961  0.552972  0.185104  1
  Si  Si400  1  0.455016  0.552935  0.185114  1
  Si  Si401  1  0.954964  0.052948  0.208918  1
  Si  Si402  1  0.544927  0.052951  0.208919  1
  Si  Si403  1  0.955232  0.447865  0.208659  1
  Si  Si404  1  0.544762  0.447839  0.208671  1
  Si  Si405  1  0.750031  0.165174  0.322997  1
  Si  Si406  1  0.750049  0.334699  0.322991  1
  Si  Si407  1  0.250068  0.834687  0.071040  1
  Si  Si408  1  0.250085  0.665162  0.071036  1
  Si  Si409  1  0.750036  0.079351  0.096209  1
  Si  Si410  1  0.750117  0.420511  0.096201  1
  Si  Si411  1  0.249998  0.920507  0.297831  1
  Si  Si412  1  0.250054  0.579363  0.297821  1
  Si  Si413  1  0.750033  0.164139  0.122568  1
  Si  Si414  1  0.750123  0.335542  0.122540  1
  Si  Si415  1  0.249983  0.835556  0.271489  1
  Si  Si416  1  0.250029  0.664152  0.271462  1
  Si  Si417  1  0.250025  0.164630  0.171946  1
  Si  Si418  1  0.250135  0.334414  0.171892  1
  Si  Si419  1  0.749963  0.834456  0.222144  1
  Si  Si420  1  0.749954  0.664669  0.222097  1
  Si  Si421  1  0.249948  0.165324  0.202694  1
  Si  Si422  1  0.249999  0.335021  0.202631  1
  Si  Si423  1  0.749938  0.835018  0.191405  1
  Si  Si424  1  0.749951  0.665325  0.191350  1
  Si  Si425  1  0.045265  0.165548  0.555183  1
  Si  Si426  1  0.454787  0.165554  0.555183  1
  Si  Si427  1  0.045280  0.334304  0.555177  1
  Si  Si428  1  0.454800  0.334310  0.555179  1
  Si  Si429  1  0.954834  0.834292  0.345748  1
  Si  Si430  1  0.545314  0.834298  0.345747  1
  Si  Si431  1  0.954859  0.665536  0.345745  1
  Si  Si432  1  0.545337  0.665542  0.345743  1
  Si  Si433  1  0.045355  0.977384  0.360438  1
  Si  Si434  1  0.454726  0.977381  0.360438  1
  Si  Si435  1  0.045444  0.522456  0.360437  1
  Si  Si436  1  0.454833  0.522471  0.360440  1
  Si  Si437  1  0.954688  0.022467  0.540491  1
  Si  Si438  1  0.545298  0.022471  0.540490  1
  Si  Si439  1  0.954757  0.477389  0.540485  1
  Si  Si440  1  0.545386  0.477396  0.540489  1
  Si  Si441  1  0.044938  0.061960  0.386683  1
  Si  Si442  1  0.455127  0.061957  0.386682  1
  Si  Si443  1  0.045082  0.437683  0.386659  1
  Si  Si444  1  0.455257  0.437725  0.386665  1
  Si  Si445  1  0.955065  0.937727  0.514266  1
  Si  Si446  1  0.544891  0.937730  0.514265  1
  Si  Si447  1  0.955147  0.561961  0.514240  1
  Si  Si448  1  0.544954  0.561973  0.514245  1
  Si  Si449  1  0.955289  0.056931  0.416337  1
  Si  Si450  1  0.544719  0.056909  0.416338  1
  Si  Si451  1  0.955187  0.442036  0.416310  1
  Si  Si452  1  0.545047  0.442089  0.416317  1
  Si  Si453  1  0.044891  0.942121  0.484614  1
  Si  Si454  1  0.455022  0.942114  0.484614  1
  Si  Si455  1  0.044708  0.556941  0.484585  1
  Si  Si456  1  0.455276  0.556929  0.484592  1
  Si  Si457  1  0.044713  0.947826  0.438810  1
  Si  Si458  1  0.455168  0.947828  0.438811  1
  Si  Si459  1  0.044961  0.552972  0.438551  1
  Si  Si460  1  0.455016  0.552935  0.438561  1
  Si  Si461  1  0.954964  0.052948  0.462365  1
  Si  Si462  1  0.544927  0.052951  0.462366  1
  Si  Si463  1  0.955232  0.447865  0.462106  1
  Si  Si464  1  0.544762  0.447839  0.462118  1
  Si  Si465  1  0.750031  0.165174  0.576444  1
  Si  Si466  1  0.750049  0.334699  0.576438  1
  Si  Si467  1  0.250068  0.834687  0.324487  1
  Si  Si468  1  0.250085  0.665162  0.324483  1
  Si  Si469  1  0.750036  0.079351  0.349656  1
  Si  Si470  1  0.750117  0.420511  0.349648  1
  Si  Si471  1  0.249998  0.920507  0.551278  1
  Si  Si472  1  0.250054  0.579363  0.551268  1
  Si  Si473  1  0.750033  0.164139  0.376015  1
  Si  Si474  1  0.750123  0.335542  0.375988  1
  Si  Si475  1  0.249983  0.835556  0.524936  1
  Si  Si476  1  0.250029  0.664152  0.524909  1
  Si  Si477  1  0.250025  0.164630  0.425393  1
  Si  Si478  1  0.250135  0.334414  0.425339  1
  Si  Si479  1  0.749963  0.834456  0.475591  1
  Si  Si480  1  0.749954  0.664669  0.475544  1
  Si  Si481  1  0.249948  0.165324  0.456141  1
  Si  Si482  1  0.249999  0.335021  0.456078  1
  Si  Si483  1  0.749938  0.835018  0.444852  1
  Si  Si484  1  0.749951  0.665325  0.444797  1
  Si  Si485  1  0.045265  0.165548  0.808630  1
  Si  Si486  1  0.454787  0.165554  0.808630  1
  Si  Si487  1  0.045280  0.334304  0.808624  1
  Si  Si488  1  0.454800  0.334310  0.808626  1
  Si  Si489  1  0.954834  0.834292  0.599195  1
  Si  Si490  1  0.545314  0.834298  0.599194  1
  Si  Si491  1  0.954859  0.665536  0.599192  1
  Si  Si492  1  0.545337  0.665542  0.599190  1
  Si  Si493  1  0.045355  0.977384  0.613885  1
  Si  Si494  1  0.454726  0.977381  0.613885  1
  Si  Si495  1  0.045444  0.522456  0.613884  1
  Si  Si496  1  0.454833  0.522471  0.613887  1
  Si  Si497  1  0.954688  0.022467  0.793938  1
  Si  Si498  1  0.545298  0.022471  0.793937  1
  Si  Si499  1  0.954757  0.477389  0.793932  1
  Si  Si500  1  0.545386  0.477396  0.793936  1
  Si  Si501  1  0.044938  0.061960  0.640130  1
  Si  Si502  1  0.455127  0.061957  0.640129  1
  Si  Si503  1  0.045082  0.437683  0.640106  1
  Si  Si504  1  0.455257  0.437725  0.640112  1
  Si  Si505  1  0.955065  0.937727  0.767713  1
  Si  Si506  1  0.544891  0.937730  0.767712  1
  Si  Si507  1  0.955147  0.561961  0.767687  1
  Si  Si508  1  0.544954  0.561973  0.767693  1
  Si  Si509  1  0.955289  0.056931  0.669784  1
  Si  Si510  1  0.544719  0.056909  0.669785  1
  Si  Si511  1  0.955187  0.442036  0.669757  1
  Si  Si512  1  0.545047  0.442089  0.669764  1
  Si  Si513  1  0.044891  0.942121  0.738061  1
  Si  Si514  1  0.455022  0.942114  0.738061  1
  Si  Si515  1  0.044708  0.556941  0.738032  1
  Si  Si516  1  0.455276  0.556929  0.738039  1
  Si  Si517  1  0.044713  0.947826  0.692257  1
  Si  Si518  1  0.455168  0.947828  0.692258  1
  Si  Si519  1  0.044961  0.552972  0.691998  1
  Si  Si520  1  0.455016  0.552935  0.692008  1
  Si  Si521  1  0.954964  0.052948  0.715812  1
  Si  Si522  1  0.544927  0.052951  0.715813  1
  Si  Si523  1  0.955232  0.447865  0.715553  1
  Si  Si524  1  0.544762  0.447839  0.715565  1
  Si  Si525  1  0.750031  0.165174  0.829891  1
  Si  Si526  1  0.750049  0.334699  0.829885  1
  Si  Si527  1  0.250068  0.834687  0.577934  1
  Si  Si528  1  0.250085  0.665162  0.577930  1
  Si  Si529  1  0.750036  0.079351  0.603103  1
  Si  Si530  1  0.750117  0.420511  0.603095  1
  Si  Si531  1  0.249998  0.920507  0.804725  1
  Si  Si532  1  0.250054  0.579363  0.804715  1
  Si  Si533  1  0.750033  0.164139  0.629462  1
  Si  Si534  1  0.750123  0.335542  0.629435  1
  Si  Si535  1  0.249983  0.835556  0.778383  1
  Si  Si536  1  0.250029  0.664152  0.778356  1
  Si  Si537  1  0.250025  0.164630  0.678840  1
  Si  Si538  1  0.250135  0.334414  0.678786  1
  Si  Si539  1  0.749963  0.834456  0.729038  1
  Si  Si540  1  0.749954  0.664669  0.728991  1
  Si  Si541  1  0.249948  0.165324  0.709588  1
  Si  Si542  1  0.249999  0.335021  0.709525  1
  Si  Si543  1  0.749938  0.835018  0.698299  1
  Si  Si544  1  0.749951  0.665325  0.698244  1
  H  H545  1  0.250030  0.884875  0.049550  1
  H  H546  1  0.250047  0.615036  0.049537  1
  H  H547  1  0.750037  0.115037  0.073214  1
  H  H548  1  0.750079  0.384891  0.073201  1
  H  H549  1  0.250030  0.884875  0.827724  1
  H  H550  1  0.250047  0.615036  0.827712  1
  H  H551  1  0.750037  0.115037  0.851389  1
  H  H552  1  0.750079  0.384891  0.851376  1
