# generated using pymatgen
data_Si48H2O97
_symmetry_space_group_name_H-M   'P 1'
_cell_length_a   15.90377525
_cell_length_b   18.27783093
_cell_length_c   60.38655089
_cell_angle_alpha   90.00000000
_cell_angle_beta   90.00000000
_cell_angle_gamma   90.00000000
_symmetry_Int_Tables_number   1
_chemical_formula_structural   Si48H2O97
_chemical_formula_sum   'Si192 H8 O388'
_cell_volume   17553.5560417
_cell_formula_units_Z   4
loop_
 _symmetry_equiv_pos_site_id
 _symmetry_equiv_pos_as_xyz
  1  'x, y, z'
loop_
 _atom_site_type_symbol
 _atom_site_label
 _atom_site_symmetry_multiplicity
 _atom_site_fract_x
 _atom_site_fract_y
 _atom_site_fract_z
 _atom_site_occupancy
  O  O1  1  0.174075  0.053311  0.097704  1
  O  O2  1  0.172342  0.356260  0.224196  1
  O  O3  1  0.827388  0.643783  0.224383  1
  O  O4  1  0.327538  0.856214  0.224187  1
  O  O5  1  0.672362  0.143773  0.224349  1
  O  O6  1  0.827361  0.643869  0.290544  1
  O  O7  1  0.172794  0.356132  0.290592  1
  O  O8  1  0.672523  0.143911  0.290599  1
  O  O9  1  0.327086  0.855993  0.290567  1
  O  O10  1  0.672490  0.356175  0.383948  1
  O  O11  1  0.327670  0.643829  0.384001  1
  O  O12  1  0.827415  0.856209  0.384003  1
  O  O13  1  0.172219  0.143688  0.383973  1
  O  O14  1  0.327208  0.643958  0.130791  1
  O  O15  1  0.672514  0.356092  0.130978  1
  O  O16  1  0.172674  0.143908  0.130776  1
  O  O17  1  0.827207  0.856119  0.130925  1
  O  O18  1  0.234513  0.479957  0.218768  1
  O  O19  1  0.766165  0.519942  0.218636  1
  O  O20  1  0.265779  0.980033  0.218694  1
  O  O21  1  0.734538  0.020165  0.218849  1
  O  O22  1  0.766257  0.519904  0.296303  1
  O  O23  1  0.234841  0.479825  0.296093  1
  O  O24  1  0.733281  0.019847  0.296423  1
  O  O25  1  0.265064  0.979696  0.296099  1
  O  O26  1  0.734872  0.479795  0.378563  1
  O  O27  1  0.266215  0.519951  0.378356  1
  O  O28  1  0.764694  0.979711  0.378693  1
  O  O29  1  0.233670  0.019817  0.378352  1
  O  O30  1  0.265906  0.520068  0.136512  1
  O  O31  1  0.734733  0.479836  0.136373  1
  O  O32  1  0.234390  0.020143  0.136437  1
  O  O33  1  0.765919  0.980084  0.136594  1
  O  O34  1  0.073560  0.466404  0.224536  1
  O  O35  1  0.926677  0.533917  0.224528  1
  O  O36  1  0.426582  0.966250  0.224560  1
  O  O37  1  0.573541  0.033640  0.224585  1
  O  O38  1  0.926910  0.534061  0.290389  1
  O  O39  1  0.073830  0.466404  0.290414  1
  O  O40  1  0.572857  0.034184  0.290366  1
  O  O41  1  0.426006  0.966293  0.290379  1
  O  O42  1  0.573816  0.466476  0.384251  1
  O  O43  1  0.426913  0.533976  0.384277  1
  O  O44  1  0.925874  0.966643  0.384236  1
  O  O45  1  0.072901  0.033879  0.384241  1
  O  O46  1  0.426664  0.534011  0.130674  1
  O  O47  1  0.573626  0.466343  0.130667  1
  O  O48  1  0.073500  0.033838  0.130694  1
  O  O49  1  0.926650  0.966069  0.130722  1
  O  O50  1  0.174319  0.446316  0.257442  1
  O  O51  1  0.825745  0.553167  0.257479  1
  O  O52  1  0.325474  0.946267  0.257419  1
  O  O53  1  0.674295  0.053403  0.257544  1
  O  O54  1  0.674325  0.446105  0.097765  1
  O  O55  1  0.325731  0.553371  0.097732  1
  O  O56  1  0.825676  0.946161  0.097847  1
  O  O57  1  0.174075  0.053311  0.417129  1
  O  O58  1  0.959884  0.440950  0.195017  1
  O  O59  1  0.040530  0.559196  0.195002  1
  O  O60  1  0.540171  0.941028  0.195010  1
  O  O61  1  0.459611  0.059299  0.195094  1
  O  O62  1  0.040424  0.559095  0.320008  1
  O  O63  1  0.959928  0.440991  0.319875  1
  O  O64  1  0.459391  0.058985  0.319994  1
  O  O65  1  0.540129  0.940983  0.319802  1
  O  O66  1  0.459848  0.440914  0.354816  1
  O  O67  1  0.540495  0.559154  0.354685  1
  O  O68  1  0.039929  0.940821  0.354806  1
  O  O69  1  0.959547  0.059166  0.354614  1
  O  O70  1  0.540485  0.559105  0.160210  1
  O  O71  1  0.459938  0.441032  0.160188  1
  O  O72  1  0.959591  0.059207  0.160195  1
  O  O73  1  0.040195  0.941132  0.160285  1
  O  O74  1  0.129986  0.558539  0.159713  1
  O  O75  1  0.870239  0.441903  0.159801  1
  O  O76  1  0.369763  0.058424  0.159863  1
  O  O77  1  0.630164  0.941689  0.159829  1
  O  O78  1  0.870875  0.442108  0.355226  1
  O  O79  1  0.129165  0.558082  0.355463  1
  O  O80  1  0.629445  0.942066  0.355088  1
  O  O81  1  0.370631  0.058059  0.355433  1
  O  O82  1  0.630184  0.558462  0.319424  1
  O  O83  1  0.369838  0.441718  0.319660  1
  O  O84  1  0.870119  0.058431  0.319283  1
  O  O85  1  0.129938  0.941701  0.319634  1
  O  O86  1  0.370681  0.442182  0.195515  1
  O  O87  1  0.629553  0.558263  0.195611  1
  O  O88  1  0.129081  0.942060  0.195665  1
  O  O89  1  0.870858  0.058055  0.195627  1
  O  O90  1  0.987080  0.628387  0.161734  1
  O  O91  1  0.012346  0.371234  0.161674  1
  O  O92  1  0.512338  0.128656  0.161753  1
  O  O93  1  0.487614  0.871401  0.161672  1
  O  O94  1  0.013171  0.371639  0.353161  1
  O  O95  1  0.986673  0.628401  0.353234  1
  O  O96  1  0.486899  0.871815  0.353109  1
  O  O97  1  0.513088  0.128418  0.353224  1
  O  O98  1  0.487502  0.628624  0.321391  1
  O  O99  1  0.512337  0.371444  0.321455  1
  O  O100  1  0.012559  0.128796  0.321338  1
  O  O101  1  0.987408  0.871456  0.321452  1
  O  O102  1  0.512752  0.371403  0.193510  1
  O  O103  1  0.486680  0.628214  0.193454  1
  O  O104  1  0.986666  0.871675  0.193520  1
  O  O105  1  0.013282  0.128385  0.193442  1
  O  O106  1  0.114605  0.679327  0.182178  1
  O  O107  1  0.885081  0.320971  0.182322  1
  O  O108  1  0.385080  0.179322  0.182257  1
  O  O109  1  0.614690  0.820946  0.182334  1
  O  O110  1  0.885557  0.321121  0.332664  1
  O  O111  1  0.114434  0.678979  0.332838  1
  O  O112  1  0.614411  0.821074  0.332619  1
  O  O113  1  0.385463  0.178955  0.332806  1
  O  O114  1  0.614792  0.679236  0.341918  1
  O  O115  1  0.385216  0.320841  0.342083  1
  O  O116  1  0.885168  0.179205  0.341866  1
  O  O117  1  0.114675  0.820838  0.342060  1
  O  O118  1  0.385378  0.321208  0.172926  1
  O  O119  1  0.614314  0.679082  0.173073  1
  O  O120  1  0.114306  0.821186  0.173007  1
  O  O121  1  0.885456  0.179088  0.173083  1
  O  O122  1  0.269822  0.225943  0.157991  1
  O  O123  1  0.729965  0.774192  0.158161  1
  O  O124  1  0.230031  0.726038  0.157997  1
  O  O125  1  0.769696  0.274184  0.158188  1
  O  O126  1  0.730124  0.774751  0.356711  1
  O  O127  1  0.269614  0.225374  0.356806  1
  O  O128  1  0.769768  0.274658  0.356698  1
  O  O129  1  0.230360  0.725465  0.356811  1
  O  O130  1  0.769732  0.226014  0.317746  1
  O  O131  1  0.229989  0.774127  0.317849  1
  O  O132  1  0.730164  0.725905  0.317743  1
  O  O133  1  0.269980  0.274203  0.317847  1
  O  O134  1  0.230205  0.774692  0.196954  1
  O  O135  1  0.769584  0.225447  0.197129  1
  O  O136  1  0.269639  0.274789  0.196953  1
  O  O137  1  0.730091  0.725427  0.197144  1
  O  O138  1  0.160031  0.422484  0.152053  1
  O  O139  1  0.838456  0.577858  0.152560  1
  O  O140  1  0.339816  0.922467  0.152108  1
  O  O141  1  0.660205  0.077768  0.152197  1
  O  O142  1  0.838014  0.578035  0.362336  1
  O  O143  1  0.161685  0.422020  0.362483  1
  O  O144  1  0.661477  0.077959  0.362455  1
  O  O145  1  0.338227  0.921997  0.362416  1
  O  O146  1  0.660205  0.422385  0.311834  1
  O  O147  1  0.339525  0.577664  0.311977  1
  O  O148  1  0.839280  0.922313  0.311946  1
  O  O149  1  0.160389  0.077644  0.311914  1
  O  O150  1  0.337853  0.578129  0.202553  1
  O  O151  1  0.660646  0.422199  0.203066  1
  O  O152  1  0.161986  0.078107  0.202604  1
  O  O153  1  0.838040  0.922116  0.202690  1
  O  O154  1  0.249376  0.498208  0.177576  1
  O  O155  1  0.748610  0.499015  0.177481  1
  O  O156  1  0.249645  0.998121  0.177489  1
  O  O157  1  0.749688  0.001978  0.177661  1
  O  O158  1  0.749269  0.498221  0.337394  1
  O  O159  1  0.248869  0.501377  0.337148  1
  O  O160  1  0.751584  -0.000000  0.337596  1
  O  O161  1  0.250762  0.001458  0.337150  1
  O  O162  1  0.130336  0.278522  0.147939  1
  O  O163  1  0.869312  0.721445  0.148156  1
  O  O164  1  0.369597  0.778565  0.147954  1
  O  O165  1  0.630158  0.221732  0.148169  1
  O  O166  1  0.869175  0.721706  0.366728  1
  O  O167  1  0.130445  0.278276  0.366744  1
  O  O168  1  0.630590  0.221745  0.366722  1
  O  O169  1  0.369626  0.778368  0.366722  1
  O  O170  1  0.630132  0.278477  0.307754  1
  O  O171  1  0.369459  0.721503  0.307773  1
  O  O172  1  0.869613  0.778523  0.307749  1
  O  O173  1  0.130598  0.221598  0.307749  1
  O  O174  1  0.369353  0.721747  0.206918  1
  O  O175  1  0.630291  0.278211  0.207138  1
  O  O176  1  0.130576  0.221787  0.206925  1
  O  O177  1  0.869178  0.778504  0.207135  1
  O  O178  1  0.138117  0.338432  0.184531  1
  O  O179  1  0.861815  0.661859  0.184817  1
  O  O180  1  0.361832  0.838399  0.184547  1
  O  O181  1  0.638017  0.161652  0.184708  1
  O  O182  1  0.861596  0.662009  0.330092  1
  O  O183  1  0.138506  0.338092  0.330150  1
  O  O184  1  0.638349  0.161952  0.330143  1
  O  O185  1  0.361542  0.838065  0.330112  1
  O  O186  1  0.638134  0.338379  0.344317  1
  O  O187  1  0.361923  0.661708  0.344378  1
  O  O188  1  0.861774  0.838333  0.344367  1
  O  O189  1  0.138109  0.161688  0.344338  1
  O  O190  1  0.361578  0.662065  0.170308  1
  O  O191  1  0.638370  0.338229  0.170594  1
  O  O192  1  0.138386  0.162028  0.170316  1
  O  O193  1  0.861449  0.838029  0.170467  1
  O  O194  1  0.172342  0.356260  0.543620  1
  O  O195  1  0.827388  0.643783  0.543808  1
  O  O196  1  0.327538  0.856214  0.543611  1
  O  O197  1  0.672362  0.143773  0.543773  1
  O  O198  1  0.827361  0.643869  0.609969  1
  O  O199  1  0.172794  0.356132  0.610017  1
  O  O200  1  0.672523  0.143911  0.610024  1
  O  O201  1  0.327086  0.855993  0.609992  1
  O  O202  1  0.672490  0.356175  0.703372  1
  O  O203  1  0.327670  0.643829  0.703426  1
  O  O204  1  0.827415  0.856209  0.703427  1
  O  O205  1  0.172219  0.143688  0.703398  1
  O  O206  1  0.327208  0.643958  0.450216  1
  O  O207  1  0.672514  0.356092  0.450402  1
  O  O208  1  0.172674  0.143908  0.450201  1
  O  O209  1  0.827207  0.856119  0.450349  1
  O  O210  1  0.234513  0.479957  0.538192  1
  O  O211  1  0.766165  0.519942  0.538061  1
  O  O212  1  0.265779  0.980033  0.538118  1
  O  O213  1  0.734538  0.020165  0.538273  1
  O  O214  1  0.766257  0.519904  0.615727  1
  O  O215  1  0.234841  0.479825  0.615518  1
  O  O216  1  0.733281  0.019847  0.615847  1
  O  O217  1  0.265064  0.979696  0.615524  1
  O  O218  1  0.734872  0.479795  0.697988  1
  O  O219  1  0.266215  0.519951  0.697780  1
  O  O220  1  0.764694  0.979711  0.698117  1
  O  O221  1  0.233670  0.019817  0.697776  1
  O  O222  1  0.265906  0.520068  0.455937  1
  O  O223  1  0.734733  0.479836  0.455798  1
  O  O224  1  0.234390  0.020143  0.455862  1
  O  O225  1  0.765919  0.980084  0.456019  1
  O  O226  1  0.073560  0.466404  0.543961  1
  O  O227  1  0.926677  0.533917  0.543953  1
  O  O228  1  0.426582  0.966250  0.543985  1
  O  O229  1  0.573541  0.033640  0.544010  1
  O  O230  1  0.926910  0.534061  0.609814  1
  O  O231  1  0.073830  0.466404  0.609838  1
  O  O232  1  0.572857  0.034184  0.609791  1
  O  O233  1  0.426006  0.966293  0.609803  1
  O  O234  1  0.573816  0.466476  0.703676  1
  O  O235  1  0.426913  0.533976  0.703701  1
  O  O236  1  0.925874  0.966643  0.703660  1
  O  O237  1  0.072901  0.033879  0.703666  1
  O  O238  1  0.426664  0.534011  0.450099  1
  O  O239  1  0.573626  0.466343  0.450091  1
  O  O240  1  0.073500  0.033838  0.450119  1
  O  O241  1  0.926650  0.966069  0.450147  1
  O  O242  1  0.174319  0.446316  0.576867  1
  O  O243  1  0.825745  0.553167  0.576904  1
  O  O244  1  0.325474  0.946267  0.576844  1
  O  O245  1  0.674295  0.053403  0.576969  1
  O  O246  1  0.674325  0.446105  0.417189  1
  O  O247  1  0.325731  0.553371  0.417157  1
  O  O248  1  0.825676  0.946161  0.417272  1
  O  O249  1  0.174075  0.053311  0.736553  1
  O  O250  1  0.959884  0.440950  0.514441  1
  O  O251  1  0.040530  0.559196  0.514426  1
  O  O252  1  0.540171  0.941028  0.514434  1
  O  O253  1  0.459611  0.059299  0.514519  1
  O  O254  1  0.040424  0.559095  0.639432  1
  O  O255  1  0.959928  0.440991  0.639300  1
  O  O256  1  0.459391  0.058985  0.639418  1
  O  O257  1  0.540129  0.940983  0.639227  1
  O  O258  1  0.459848  0.440914  0.674241  1
  O  O259  1  0.540495  0.559154  0.674109  1
  O  O260  1  0.039929  0.940821  0.674231  1
  O  O261  1  0.959547  0.059166  0.674038  1
  O  O262  1  0.540485  0.559105  0.479635  1
  O  O263  1  0.459938  0.441032  0.479613  1
  O  O264  1  0.959591  0.059207  0.479620  1
  O  O265  1  0.040195  0.941132  0.479710  1
  O  O266  1  0.129986  0.558539  0.479138  1
  O  O267  1  0.870239  0.441903  0.479226  1
  O  O268  1  0.369763  0.058424  0.479288  1
  O  O269  1  0.630164  0.941689  0.479253  1
  O  O270  1  0.870875  0.442108  0.674651  1
  O  O271  1  0.129165  0.558082  0.674887  1
  O  O272  1  0.629445  0.942066  0.674513  1
  O  O273  1  0.370631  0.058059  0.674857  1
  O  O274  1  0.630184  0.558462  0.638848  1
  O  O275  1  0.369838  0.441718  0.639084  1
  O  O276  1  0.870119  0.058431  0.638708  1
  O  O277  1  0.129938  0.941701  0.639059  1
  O  O278  1  0.370681  0.442182  0.514940  1
  O  O279  1  0.629553  0.558263  0.515036  1
  O  O280  1  0.129081  0.942060  0.515089  1
  O  O281  1  0.870858  0.058055  0.515051  1
  O  O282  1  0.987080  0.628387  0.481158  1
  O  O283  1  0.012346  0.371234  0.481098  1
  O  O284  1  0.512338  0.128656  0.481178  1
  O  O285  1  0.487614  0.871401  0.481096  1
  O  O286  1  0.013171  0.371639  0.672585  1
  O  O287  1  0.986673  0.628401  0.672659  1
  O  O288  1  0.486899  0.871815  0.672534  1
  O  O289  1  0.513088  0.128418  0.672649  1
  O  O290  1  0.487502  0.628624  0.640815  1
  O  O291  1  0.512337  0.371444  0.640880  1
  O  O292  1  0.012559  0.128796  0.640762  1
  O  O293  1  0.987408  0.871456  0.640877  1
  O  O294  1  0.512752  0.371403  0.512935  1
  O  O295  1  0.486680  0.628214  0.512879  1
  O  O296  1  0.986666  0.871675  0.512945  1
  O  O297  1  0.013282  0.128385  0.512867  1
  O  O298  1  0.114605  0.679327  0.501602  1
  O  O299  1  0.885081  0.320971  0.501747  1
  O  O300  1  0.385080  0.179322  0.501681  1
  O  O301  1  0.614690  0.820946  0.501759  1
  O  O302  1  0.885557  0.321121  0.652088  1
  O  O303  1  0.114434  0.678979  0.652262  1
  O  O304  1  0.614411  0.821074  0.652043  1
  O  O305  1  0.385463  0.178955  0.652230  1
  O  O306  1  0.614792  0.679236  0.661342  1
  O  O307  1  0.385216  0.320841  0.661507  1
  O  O308  1  0.885168  0.179205  0.661291  1
  O  O309  1  0.114675  0.820838  0.661485  1
  O  O310  1  0.385378  0.321208  0.492351  1
  O  O311  1  0.614314  0.679082  0.492497  1
  O  O312  1  0.114306  0.821186  0.492432  1
  O  O313  1  0.885456  0.179088  0.492508  1
  O  O314  1  0.269822  0.225943  0.477416  1
  O  O315  1  0.729965  0.774192  0.477585  1
  O  O316  1  0.230031  0.726038  0.477421  1
  O  O317  1  0.769696  0.274184  0.477613  1
  O  O318  1  0.730124  0.774751  0.676136  1
  O  O319  1  0.269614  0.225374  0.676230  1
  O  O320  1  0.769768  0.274658  0.676123  1
  O  O321  1  0.230360  0.725465  0.676236  1
  O  O322  1  0.769732  0.226014  0.637171  1
  O  O323  1  0.229989  0.774127  0.637274  1
  O  O324  1  0.730164  0.725905  0.637168  1
  O  O325  1  0.269980  0.274203  0.637271  1
  O  O326  1  0.230205  0.774692  0.516378  1
  O  O327  1  0.769584  0.225447  0.516554  1
  O  O328  1  0.269639  0.274789  0.516378  1
  O  O329  1  0.730091  0.725427  0.516568  1
  O  O330  1  0.160031  0.422484  0.471478  1
  O  O331  1  0.838456  0.577858  0.471985  1
  O  O332  1  0.339816  0.922467  0.471533  1
  O  O333  1  0.660205  0.077768  0.471621  1
  O  O334  1  0.838014  0.578035  0.681761  1
  O  O335  1  0.161685  0.422020  0.681908  1
  O  O336  1  0.661477  0.077959  0.681880  1
  O  O337  1  0.338227  0.921997  0.681840  1
  O  O338  1  0.660205  0.422385  0.631259  1
  O  O339  1  0.339525  0.577664  0.631402  1
  O  O340  1  0.839280  0.922313  0.631370  1
  O  O341  1  0.160389  0.077644  0.631339  1
  O  O342  1  0.337853  0.578129  0.521978  1
  O  O343  1  0.660646  0.422199  0.522490  1
  O  O344  1  0.161986  0.078107  0.522029  1
  O  O345  1  0.838040  0.922116  0.522115  1
  O  O346  1  0.249376  0.498208  0.497001  1
  O  O347  1  0.748610  0.499015  0.496906  1
  O  O348  1  0.249645  0.998121  0.496913  1
  O  O349  1  0.749688  0.001978  0.497086  1
  O  O350  1  0.749269  0.498221  0.656818  1
  O  O351  1  0.248869  0.501377  0.656573  1
  O  O352  1  0.751584  -0.000000  0.657021  1
  O  O353  1  0.250762  0.001458  0.656575  1
  O  O354  1  0.130336  0.278522  0.467364  1
  O  O355  1  0.869312  0.721445  0.467581  1
  O  O356  1  0.369597  0.778565  0.467378  1
  O  O357  1  0.630158  0.221732  0.467593  1
  O  O358  1  0.869175  0.721706  0.686153  1
  O  O359  1  0.130445  0.278276  0.686169  1
  O  O360  1  0.630590  0.221745  0.686147  1
  O  O361  1  0.369626  0.778368  0.686146  1
  O  O362  1  0.630132  0.278477  0.627179  1
  O  O363  1  0.369459  0.721503  0.627198  1
  O  O364  1  0.869613  0.778523  0.627174  1
  O  O365  1  0.130598  0.221598  0.627174  1
  O  O366  1  0.369353  0.721747  0.526342  1
  O  O367  1  0.630291  0.278211  0.526563  1
  O  O368  1  0.130576  0.221787  0.526350  1
  O  O369  1  0.869178  0.778504  0.526559  1
  O  O370  1  0.138117  0.338432  0.503956  1
  O  O371  1  0.861815  0.661859  0.504242  1
  O  O372  1  0.361832  0.838399  0.503972  1
  O  O373  1  0.638017  0.161652  0.504132  1
  O  O374  1  0.861596  0.662009  0.649517  1
  O  O375  1  0.138506  0.338092  0.649574  1
  O  O376  1  0.638349  0.161952  0.649568  1
  O  O377  1  0.361542  0.838065  0.649536  1
  O  O378  1  0.638134  0.338379  0.663742  1
  O  O379  1  0.361923  0.661708  0.663803  1
  O  O380  1  0.861774  0.838333  0.663792  1
  O  O381  1  0.138109  0.161688  0.663763  1
  O  O382  1  0.361578  0.662065  0.489732  1
  O  O383  1  0.638370  0.338229  0.490019  1
  O  O384  1  0.138386  0.162028  0.489740  1
  O  O385  1  0.861449  0.838029  0.489892  1
  O  O386  1  0.674325  0.446105  0.736614  1
  O  O387  1  0.325731  0.553371  0.736581  1
  O  O388  1  0.825676  0.946161  0.736696  1
  Si  Si389  1  0.163109  0.438834  0.231848  1
  Si  Si390  1  0.837029  0.561069  0.231883  1
  Si  Si391  1  0.336929  0.938788  0.231828  1
  Si  Si392  1  0.663075  0.061134  0.231946  1
  Si  Si393  1  0.837134  0.561134  0.283071  1
  Si  Si394  1  0.163306  0.438796  0.283041  1
  Si  Si395  1  0.662715  0.061198  0.283127  1
  Si  Si396  1  0.336519  0.938674  0.283019  1
  Si  Si397  1  0.663267  0.438756  0.391592  1
  Si  Si398  1  0.337169  0.561172  0.391566  1
  Si  Si399  1  0.836569  0.938793  0.391660  1
  Si  Si400  1  0.162648  0.061047  0.391538  1
  Si  Si401  1  0.336974  0.561215  0.123328  1
  Si  Si402  1  0.663164  0.438690  0.123358  1
  Si  Si403  1  0.163074  0.061162  0.123303  1
  Si  Si404  1  0.836943  0.938791  0.123432  1
  Si  Si405  1  0.069210  0.606206  0.174607  1
  Si  Si406  1  0.930719  0.393905  0.174679  1
  Si  Si407  1  0.430527  0.106196  0.174715  1
  Si  Si408  1  0.569296  0.893973  0.174676  1
  Si  Si409  1  0.931180  0.394084  0.340284  1
  Si  Si410  1  0.068877  0.605989  0.340451  1
  Si  Si411  1  0.568915  0.894121  0.340213  1
  Si  Si412  1  0.430960  0.105939  0.340425  1
  Si  Si413  1  0.569399  0.606155  0.334313  1
  Si  Si414  1  0.430655  0.393910  0.334476  1
  Si  Si415  1  0.930684  0.106200  0.334240  1
  Si  Si416  1  0.069160  0.893871  0.334457  1
  Si  Si417  1  0.431000  0.394132  0.180580  1
  Si  Si418  1  0.568937  0.605974  0.180657  1
  Si  Si419  1  0.068750  0.894114  0.180686  1
  Si  Si420  1  0.931078  0.106062  0.180643  1
  Si  Si421  1  0.201041  0.500220  0.155188  1
  Si  Si422  1  0.798530  0.499663  0.155331  1
  Si  Si423  1  0.298781  -0.000000  0.155224  1
  Si  Si424  1  0.701192  -0.000000  0.155298  1
  Si  Si425  1  0.798718  0.499580  0.359618  1
  Si  Si426  1  0.201318  0.500355  0.359662  1
  Si  Si427  1  0.701200  -0.000000  0.359674  1
  Si  Si428  1  0.298511  0.000000  0.359634  1
  Si  Si429  1  0.701271  0.500112  0.314953  1
  Si  Si430  1  0.298763  0.499823  0.314997  1
  Si  Si431  1  0.798628  0.000000  0.315005  1
  Si  Si432  1  0.201056  -0.000000  0.314971  1
  Si  Si433  1  0.298494  0.499686  0.199851  1
  Si  Si434  1  0.701091  0.500191  0.199999  1
  Si  Si435  1  0.201331  -0.000000  0.199887  1
  Si  Si436  1  0.798660  -0.000000  0.199959  1
  Si  Si437  1  0.108764  0.353619  0.159967  1
  Si  Si438  1  0.890681  0.646393  0.160242  1
  Si  Si439  1  0.391209  0.853644  0.159991  1
  Si  Si440  1  0.608738  0.146501  0.160136  1
  Si  Si441  1  0.890321  0.646549  0.354678  1
  Si  Si442  1  0.109504  0.353523  0.354719  1
  Si  Si443  1  0.609420  0.146526  0.354717  1
  Si  Si444  1  0.390576  0.853577  0.354669  1
  Si  Si445  1  0.608727  0.353647  0.319762  1
  Si  Si446  1  0.391086  0.646431  0.319809  1
  Si  Si447  1  0.890995  0.853631  0.319803  1
  Si  Si448  1  0.108985  0.146486  0.319758  1
  Si  Si449  1  0.390353  0.646527  0.194883  1
  Si  Si450  1  0.609101  0.353475  0.195159  1
  Si  Si451  1  0.109624  0.146550  0.194899  1
  Si  Si452  1  0.890317  0.853586  0.195035  1
  Si  Si453  1  0.178673  0.297785  0.205039  1
  Si  Si454  1  0.821030  0.702510  0.205286  1
  Si  Si455  1  0.321183  0.797719  0.205034  1
  Si  Si456  1  0.678619  0.202327  0.205205  1
  Si  Si457  1  0.821045  0.702726  0.309607  1
  Si  Si458  1  0.179144  0.297376  0.309672  1
  Si  Si459  1  0.678823  0.202757  0.309654  1
  Si  Si460  1  0.320833  0.797263  0.309663  1
  Si  Si461  1  0.678811  0.297677  0.364799  1
  Si  Si462  1  0.321363  0.702427  0.364870  1
  Si  Si463  1  0.821058  0.797704  0.364849  1
  Si  Si464  1  0.178620  0.202312  0.364857  1
  Si  Si465  1  0.320904  0.702834  0.149847  1
  Si  Si466  1  0.678799  0.297467  0.150093  1
  Si  Si467  1  0.178961  0.202769  0.149835  1
  Si  Si468  1  0.820829  0.797281  0.149995  1
  Si  Si469  1  0.330737  0.250302  0.177507  1
  Si  Si470  1  0.669045  0.749907  0.177681  1
  Si  Si471  1  0.169052  0.750296  0.177509  1
  Si  Si472  1  0.830721  0.249919  0.177686  1
  Si  Si473  1  0.669148  0.750246  0.337236  1
  Si  Si474  1  0.330817  0.249852  0.337381  1
  Si  Si475  1  0.830828  0.250255  0.337231  1
  Si  Si476  1  0.169122  0.749863  0.337386  1
  Si  Si477  1  0.000000  0.500134  0.210470  1
  Si  Si478  1  0.500011  -0.000000  0.210515  1
  Si  Si479  1  -0.000000  0.500168  0.304445  1
  Si  Si480  1  0.499496  0.000000  0.304405  1
  Si  Si481  1  0.500300  0.500159  0.370210  1
  Si  Si482  1  0.000000  0.000000  0.370175  1
  Si  Si483  1  0.500141  0.500138  0.144703  1
  Si  Si484  1  -0.000000  0.000000  0.144748  1
  Si  Si485  1  0.163109  0.438834  0.551273  1
  Si  Si486  1  0.837029  0.561069  0.551308  1
  Si  Si487  1  0.336929  0.938788  0.551253  1
  Si  Si488  1  0.663075  0.061134  0.551371  1
  Si  Si489  1  0.837134  0.561134  0.602496  1
  Si  Si490  1  0.163306  0.438796  0.602466  1
  Si  Si491  1  0.662715  0.061198  0.602551  1
  Si  Si492  1  0.336519  0.938674  0.602443  1
  Si  Si493  1  0.663267  0.438756  0.711017  1
  Si  Si494  1  0.337169  0.561172  0.710991  1
  Si  Si495  1  0.836569  0.938793  0.711084  1
  Si  Si496  1  0.162648  0.061047  0.710963  1
  Si  Si497  1  0.336974  0.561215  0.442752  1
  Si  Si498  1  0.663164  0.438690  0.442783  1
  Si  Si499  1  0.163074  0.061162  0.442728  1
  Si  Si500  1  0.836943  0.938791  0.442856  1
  Si  Si501  1  0.069210  0.606206  0.494032  1
  Si  Si502  1  0.930719  0.393905  0.494104  1
  Si  Si503  1  0.430527  0.106196  0.494140  1
  Si  Si504  1  0.569296  0.893973  0.494100  1
  Si  Si505  1  0.931180  0.394084  0.659709  1
  Si  Si506  1  0.068877  0.605989  0.659876  1
  Si  Si507  1  0.568915  0.894121  0.659637  1
  Si  Si508  1  0.430960  0.105939  0.659850  1
  Si  Si509  1  0.569399  0.606155  0.653738  1
  Si  Si510  1  0.430655  0.393910  0.653901  1
  Si  Si511  1  0.930684  0.106200  0.653664  1
  Si  Si512  1  0.069160  0.893871  0.653881  1
  Si  Si513  1  0.431000  0.394132  0.500004  1
  Si  Si514  1  0.568937  0.605974  0.500082  1
  Si  Si515  1  0.068750  0.894114  0.500111  1
  Si  Si516  1  0.931078  0.106062  0.500068  1
  Si  Si517  1  0.201041  0.500220  0.474613  1
  Si  Si518  1  0.798530  0.499663  0.474756  1
  Si  Si519  1  0.298781  -0.000000  0.474649  1
  Si  Si520  1  0.701192  -0.000000  0.474723  1
  Si  Si521  1  0.798718  0.499580  0.679043  1
  Si  Si522  1  0.201318  0.500355  0.679087  1
  Si  Si523  1  0.701200  -0.000000  0.679099  1
  Si  Si524  1  0.298511  -0.000000  0.679058  1
  Si  Si525  1  0.701271  0.500112  0.634378  1
  Si  Si526  1  0.298763  0.499823  0.634422  1
  Si  Si527  1  0.798628  0.000000  0.634430  1
  Si  Si528  1  0.201056  0.000000  0.634396  1
  Si  Si529  1  0.298494  0.499686  0.519276  1
  Si  Si530  1  0.701091  0.500191  0.519424  1
  Si  Si531  1  0.201331  -0.000000  0.519312  1
  Si  Si532  1  0.798660  -0.000000  0.519384  1
  Si  Si533  1  0.108764  0.353619  0.479391  1
  Si  Si534  1  0.890681  0.646393  0.479667  1
  Si  Si535  1  0.391209  0.853644  0.479416  1
  Si  Si536  1  0.608738  0.146501  0.479560  1
  Si  Si537  1  0.890321  0.646549  0.674102  1
  Si  Si538  1  0.109504  0.353523  0.674143  1
  Si  Si539  1  0.609420  0.146526  0.674142  1
  Si  Si540  1  0.390576  0.853577  0.674094  1
  Si  Si541  1  0.608727  0.353647  0.639186  1
  Si  Si542  1  0.391086  0.646431  0.639233  1
  Si  Si543  1  0.890995  0.853631  0.639228  1
  Si  Si544  1  0.108985  0.146486  0.639183  1
  Si  Si545  1  0.390353  0.646527  0.514308  1
  Si  Si546  1  0.609101  0.353475  0.514584  1
  Si  Si547  1  0.109624  0.146550  0.514324  1
  Si  Si548  1  0.890317  0.853586  0.514460  1
  Si  Si549  1  0.178673  0.297785  0.524463  1
  Si  Si550  1  0.821030  0.702510  0.524710  1
  Si  Si551  1  0.321183  0.797719  0.524458  1
  Si  Si552  1  0.678619  0.202327  0.524629  1
  Si  Si553  1  0.821045  0.702726  0.629032  1
  Si  Si554  1  0.179144  0.297376  0.629097  1
  Si  Si555  1  0.678823  0.202757  0.629079  1
  Si  Si556  1  0.320833  0.797263  0.629088  1
  Si  Si557  1  0.678811  0.297677  0.684224  1
  Si  Si558  1  0.321363  0.702427  0.684294  1
  Si  Si559  1  0.821058  0.797704  0.684274  1
  Si  Si560  1  0.178620  0.202312  0.684281  1
  Si  Si561  1  0.320904  0.702834  0.469272  1
  Si  Si562  1  0.678799  0.297467  0.469518  1
  Si  Si563  1  0.178961  0.202769  0.469260  1
  Si  Si564  1  0.820829  0.797281  0.469420  1
  Si  Si565  1  0.330737  0.250302  0.496931  1
  Si  Si566  1  0.669045  0.749907  0.497105  1
  Si  Si567  1  0.169052  0.750296  0.496934  1
  Si  Si568  1  0.830721  0.249919  0.497111  1
  Si  Si569  1  0.669148  0.750246  0.656660  1
  Si  Si570  1  0.330817  0.249852  0.656806  1
  Si  Si571  1  0.830828  0.250255  0.656656  1
  Si  Si572  1  0.169122  0.749863  0.656811  1
  Si  Si573  1  -0.000000  0.500134  0.529895  1
  Si  Si574  1  0.500011  0.000000  0.529940  1
  Si  Si575  1  -0.000000  0.500168  0.623869  1
  Si  Si576  1  0.499496  -0.000000  0.623830  1
  Si  Si577  1  0.500300  0.500159  0.689635  1
  Si  Si578  1  -0.000000  -0.000000  0.689600  1
  Si  Si579  1  0.500141  0.500138  0.464128  1
  Si  Si580  1  -0.000000  -0.000000  0.464173  1
  H  H581  1  0.174075  0.053311  0.082800  1
  H  H582  1  0.674325  0.446105  0.082861  1
  H  H583  1  0.325731  0.553371  0.082828  1
  H  H584  1  0.825676  0.946161  0.082943  1
  H  H585  1  0.174075  0.053311  0.751457  1
  H  H586  1  0.674325  0.446105  0.751518  1
  H  H587  1  0.325731  0.553371  0.751485  1
  H  H588  1  0.825676  0.946161  0.751600  1
