# generated using pymatgen
data_Si21H2O43
_symmetry_space_group_name_H-M   'P 1'
_cell_length_a   13.80613488
_cell_length_b   20.14838188
_cell_length_c   57.79654326
_cell_angle_alpha   90.00000000
_cell_angle_beta   90.00000000
_cell_angle_gamma   90.00000000
_symmetry_Int_Tables_number   1
_chemical_formula_structural   Si21H2O43
_chemical_formula_sum   'Si168 H16 O344'
_cell_volume   16077.3382943
_cell_formula_units_Z   8
loop_
 _symmetry_equiv_pos_site_id
 _symmetry_equiv_pos_as_xyz
  1  'x, y, z'
loop_
 _atom_site_type_symbol
 _atom_site_label
 _atom_site_symmetry_multiplicity
 _atom_site_fract_x
 _atom_site_fract_y
 _atom_site_fract_z
 _atom_site_occupancy
  O  O1  1  0.759298  0.627433  0.372119  1
  O  O2  1  0.240481  0.627458  0.372094  1
  O  O3  1  0.599935  0.574632  0.388695  1
  O  O4  1  0.399960  0.574819  0.388680  1
  O  O5  1  0.249558  0.000000  0.363007  1
  O  O6  1  0.843775  0.913027  0.294699  1
  O  O7  1  0.155483  0.913392  0.294558  1
  O  O8  1  0.843780  0.913303  0.339930  1
  O  O9  1  0.156296  0.913154  0.339816  1
  O  O10  1  0.906983  0.951865  0.378993  1
  O  O11  1  0.092237  0.951408  0.378824  1
  O  O12  1  0.757590  0.880867  0.377089  1
  O  O13  1  0.242222  0.880895  0.377065  1
  O  O14  1  0.598916  0.823224  0.389531  1
  O  O15  1  0.400950  0.823243  0.389522  1
  O  O16  1  0.745619  0.754387  0.374609  1
  O  O17  1  0.254291  0.754403  0.374579  1
  O  O18  1  0.836562  0.703425  0.295118  1
  O  O19  1  0.163363  0.703387  0.295093  1
  O  O20  1  0.836460  0.703367  0.339575  1
  O  O21  1  0.163481  0.703549  0.339546  1
  O  O22  1  0.907266  0.699447  0.378738  1
  O  O23  1  0.092577  0.699532  0.378712  1
  O  O24  1  -0.000000  0.751239  0.411434  1
  O  O25  1  0.000000  0.625252  0.406509  1
  O  O26  1  -0.000000  0.876736  0.405910  1
  O  O27  1  0.875227  0.807735  0.317371  1
  O  O28  1  0.124676  0.807805  0.317229  1
  O  O29  1  -0.000000  0.896438  0.317320  1
  O  O30  1  -0.000000  0.717546  0.317351  1
  O  O31  1  0.749422  0.000000  0.363014  1
  O  O32  1  -0.000000  0.501087  0.412819  1
  O  O33  1  0.249910  0.499890  0.382380  1
  O  O34  1  0.740184  0.372379  0.372061  1
  O  O35  1  0.259642  0.372393  0.372092  1
  O  O36  1  0.899976  0.423985  0.388679  1
  O  O37  1  0.099936  0.424111  0.388685  1
  O  O38  1  0.499950  0.250100  0.411668  1
  O  O39  1  0.656733  0.086754  0.339745  1
  O  O40  1  0.344424  0.086550  0.340118  1
  O  O41  1  0.655353  0.086502  0.294500  1
  O  O42  1  0.343349  0.086781  0.294870  1
  O  O43  1  0.592018  0.048768  0.378678  1
  O  O44  1  0.406603  0.047575  0.379307  1
  O  O45  1  0.742477  0.118887  0.377045  1
  O  O46  1  0.257369  0.118836  0.377152  1
  O  O47  1  0.901024  0.176810  0.389583  1
  O  O48  1  0.098814  0.176806  0.389606  1
  O  O49  1  0.749814  0.188374  0.413533  1
  O  O50  1  0.754355  0.245389  0.374546  1
  O  O51  1  0.245541  0.245356  0.374541  1
  O  O52  1  0.663519  0.296268  0.339487  1
  O  O53  1  0.336488  0.296539  0.339515  1
  O  O54  1  0.663366  0.296536  0.295048  1
  O  O55  1  0.336484  0.296292  0.295075  1
  O  O56  1  0.592584  0.300217  0.378648  1
  O  O57  1  0.407258  0.300249  0.378683  1
  O  O58  1  0.500020  0.376298  0.405952  1
  O  O59  1  0.499848  0.124563  0.405521  1
  O  O60  1  -0.000000  0.001665  0.413062  1
  O  O61  1  0.624663  0.192064  0.317167  1
  O  O62  1  0.375275  0.192084  0.317418  1
  O  O63  1  0.499966  0.103378  0.317337  1
  O  O64  1  0.499967  0.282329  0.317294  1
  O  O65  1  0.750106  0.499860  0.382381  1
  O  O66  1  0.749945  0.413090  0.413534  1
  O  O67  1  0.759724  0.627494  0.262542  1
  O  O68  1  0.240267  0.627517  0.262521  1
  O  O69  1  0.259281  0.627529  0.179589  1
  O  O70  1  0.740769  0.627540  0.179621  1
  O  O71  1  0.600006  0.575846  0.245936  1
  O  O72  1  0.399978  0.575843  0.245933  1
  O  O73  1  0.099939  0.574822  0.196239  1
  O  O74  1  0.900091  0.574799  0.196246  1
  O  O75  1  0.750052  0.586759  0.221085  1
  O  O76  1  0.249978  0.586772  0.221068  1
  O  O77  1  0.749987  0.500010  0.189916  1
  O  O78  1  0.750571  0.000000  0.170539  1
  O  O79  1  0.907749  0.951663  0.255752  1
  O  O80  1  0.093295  0.952537  0.255389  1
  O  O81  1  0.407918  0.951228  0.186205  1
  O  O82  1  0.593314  0.952426  0.186830  1
  O  O83  1  0.757620  0.881013  0.257472  1
  O  O84  1  0.242370  0.881024  0.257494  1
  O  O85  1  0.257656  0.880970  0.184577  1
  O  O86  1  0.742317  0.881010  0.184679  1
  O  O87  1  0.598888  0.823057  0.245050  1
  O  O88  1  0.401074  0.823118  0.245047  1
  O  O89  1  0.098992  0.823253  0.197027  1
  O  O90  1  0.901062  0.823317  0.197052  1
  O  O91  1  0.750034  0.811312  0.221075  1
  O  O92  1  0.250011  0.811493  0.221056  1
  O  O93  1  0.745655  0.754500  0.260098  1
  O  O94  1  0.254305  0.754531  0.260068  1
  O  O95  1  0.245702  0.754472  0.182064  1
  O  O96  1  0.754368  0.754523  0.182039  1
  O  O97  1  0.907356  0.699592  0.255929  1
  O  O98  1  0.092630  0.699608  0.255910  1
  O  O99  1  0.407335  0.699387  0.186158  1
  O  O100  1  0.592764  0.699446  0.186211  1
  O  O101  1  0.000000  0.750502  0.223048  1
  O  O102  1  0.499898  0.749689  0.219160  1
  O  O103  1  -0.000000  0.624666  0.228276  1
  O  O104  1  0.499989  0.623506  0.213499  1
  O  O105  1  0.000000  0.500635  0.221657  1
  O  O106  1  0.000000  0.875785  0.229055  1
  O  O107  1  0.500080  0.875194  0.212978  1
  O  O108  1  0.249998  0.500005  0.189916  1
  O  O109  1  0.496845  0.000000  0.221227  1
  O  O110  1  0.249980  0.500008  0.252240  1
  O  O111  1  0.250579  0.000000  0.271640  1
  O  O112  1  0.997818  -0.000000  0.220872  1
  O  O113  1  0.750400  0.000000  0.271615  1
  O  O114  1  0.499992  0.499103  0.221719  1
  O  O115  1  0.240687  0.372455  0.179628  1
  O  O116  1  0.759280  0.372466  0.179605  1
  O  O117  1  0.740250  0.372458  0.262499  1
  O  O118  1  0.259798  0.372482  0.262531  1
  O  O119  1  0.400060  0.425172  0.196233  1
  O  O120  1  0.599922  0.425172  0.196230  1
  O  O121  1  0.899990  0.424137  0.245942  1
  O  O122  1  0.100032  0.424112  0.245948  1
  O  O123  1  0.250046  0.413254  0.221084  1
  O  O124  1  0.749979  0.413256  0.221067  1
  O  O125  1  0.093172  0.047890  0.186639  1
  O  O126  1  0.907901  0.048789  0.186269  1
  O  O127  1  0.593292  0.047478  0.255316  1
  O  O128  1  0.407916  0.048707  0.255936  1
  O  O129  1  0.242375  0.118979  0.184553  1
  O  O130  1  0.757598  0.118971  0.184571  1
  O  O131  1  0.742420  0.118893  0.257477  1
  O  O132  1  0.257527  0.118958  0.257581  1
  O  O133  1  0.400993  0.176614  0.196997  1
  O  O134  1  0.598944  0.176659  0.196990  1
  O  O135  1  0.901091  0.176785  0.245063  1
  O  O136  1  0.098927  0.176863  0.245091  1
  O  O137  1  0.250018  0.188268  0.221067  1
  O  O138  1  0.749997  0.188423  0.221045  1
  O  O139  1  0.254305  0.245478  0.182102  1
  O  O140  1  0.745632  0.245496  0.182073  1
  O  O141  1  0.754340  0.245418  0.260041  1
  O  O142  1  0.245687  0.245487  0.260021  1
  O  O143  1  0.092685  0.300499  0.186216  1
  O  O144  1  0.907276  0.300514  0.186195  1
  O  O145  1  0.592656  0.300286  0.255867  1
  O  O146  1  0.407406  0.300335  0.255910  1
  O  O147  1  -0.000000  0.249881  0.219107  1
  O  O148  1  0.499910  0.249058  0.223091  1
  O  O149  1  -0.000000  0.376164  0.213570  1
  O  O150  1  0.499986  0.374993  0.228195  1
  O  O151  1  0.000000  0.124231  0.213159  1
  O  O152  1  0.500069  0.123633  0.228855  1
  O  O153  1  0.250455  0.000000  0.170507  1
  O  O154  1  0.749989  0.499993  0.252241  1
  O  O155  1  0.343274  0.913056  0.147267  1
  O  O156  1  0.655443  0.913338  0.147638  1
  O  O157  1  0.336395  0.703509  0.147009  1
  O  O158  1  0.663445  0.703245  0.147034  1
  O  O159  1  0.155835  0.086443  0.147456  1
  O  O160  1  0.843403  0.086788  0.147311  1
  O  O161  1  0.155857  0.086764  0.102198  1
  O  O162  1  0.844216  0.086610  0.102082  1
  O  O163  1  0.163505  0.296523  0.147070  1
  O  O164  1  0.836388  0.296459  0.147043  1
  O  O165  1  0.163402  0.296419  0.102641  1
  O  O166  1  0.836515  0.296573  0.102610  1
  O  O167  1  0.124668  0.192094  0.124893  1
  O  O168  1  0.875206  0.192168  0.124753  1
  O  O169  1  -0.000000  0.103458  0.124830  1
  O  O170  1  -0.000000  0.282378  0.124860  1
  O  O171  1  0.843775  0.913027  0.679665  1
  O  O172  1  0.155483  0.913392  0.679525  1
  O  O173  1  0.843780  0.913303  0.724897  1
  O  O174  1  0.156296  0.913154  0.724783  1
  O  O175  1  0.836562  0.703425  0.680085  1
  O  O176  1  0.163363  0.703387  0.680060  1
  O  O177  1  0.836460  0.703367  0.724542  1
  O  O178  1  0.163481  0.703549  0.724512  1
  O  O179  1  0.875227  0.807735  0.702338  1
  O  O180  1  0.124676  0.807805  0.702196  1
  O  O181  1  -0.000000  0.896438  0.702286  1
  O  O182  1  -0.000000  0.717546  0.702317  1
  O  O183  1  0.655353  0.086502  0.679466  1
  O  O184  1  0.343349  0.086781  0.679836  1
  O  O185  1  0.663366  0.296536  0.680015  1
  O  O186  1  0.336484  0.296292  0.680041  1
  O  O187  1  0.759724  0.627494  0.647508  1
  O  O188  1  0.240267  0.627517  0.647487  1
  O  O189  1  0.259281  0.627529  0.564556  1
  O  O190  1  0.740769  0.627540  0.564587  1
  O  O191  1  0.600006  0.575846  0.630902  1
  O  O192  1  0.399978  0.575843  0.630899  1
  O  O193  1  0.099939  0.574822  0.581206  1
  O  O194  1  0.900091  0.574799  0.581212  1
  O  O195  1  0.750052  0.586759  0.606052  1
  O  O196  1  0.249978  0.586772  0.606034  1
  O  O197  1  0.749987  0.500010  0.574882  1
  O  O198  1  0.750571  -0.000000  0.555505  1
  O  O199  1  0.907749  0.951663  0.640718  1
  O  O200  1  0.093295  0.952537  0.640356  1
  O  O201  1  0.407918  0.951228  0.571172  1
  O  O202  1  0.593314  0.952426  0.571796  1
  O  O203  1  0.757620  0.881013  0.642439  1
  O  O204  1  0.242370  0.881024  0.642461  1
  O  O205  1  0.257656  0.880970  0.569544  1
  O  O206  1  0.742317  0.881010  0.569646  1
  O  O207  1  0.598888  0.823057  0.630016  1
  O  O208  1  0.401074  0.823118  0.630013  1
  O  O209  1  0.098992  0.823253  0.581993  1
  O  O210  1  0.901062  0.823317  0.582019  1
  O  O211  1  0.750034  0.811312  0.606041  1
  O  O212  1  0.250011  0.811493  0.606023  1
  O  O213  1  0.745655  0.754500  0.645064  1
  O  O214  1  0.254305  0.754531  0.645035  1
  O  O215  1  0.245702  0.754472  0.567031  1
  O  O216  1  0.754368  0.754523  0.567005  1
  O  O217  1  0.907356  0.699592  0.640895  1
  O  O218  1  0.092630  0.699608  0.640877  1
  O  O219  1  0.407335  0.699387  0.571125  1
  O  O220  1  0.592764  0.699446  0.571177  1
  O  O221  1  0.000000  0.750502  0.608015  1
  O  O222  1  0.499898  0.749689  0.604127  1
  O  O223  1  -0.000000  0.624666  0.613242  1
  O  O224  1  0.499989  0.623506  0.598466  1
  O  O225  1  0.000000  0.500635  0.606623  1
  O  O226  1  -0.000000  0.875785  0.614021  1
  O  O227  1  0.500080  0.875194  0.597945  1
  O  O228  1  0.249998  0.500005  0.574883  1
  O  O229  1  0.496845  0.000000  0.606194  1
  O  O230  1  0.249980  0.500008  0.637207  1
  O  O231  1  0.250579  0.000000  0.656606  1
  O  O232  1  0.997818  0.000000  0.605839  1
  O  O233  1  0.750400  0.000000  0.656582  1
  O  O234  1  0.499992  0.499103  0.606686  1
  O  O235  1  0.240687  0.372455  0.564594  1
  O  O236  1  0.759280  0.372466  0.564572  1
  O  O237  1  0.740250  0.372458  0.647466  1
  O  O238  1  0.259798  0.372482  0.647498  1
  O  O239  1  0.400060  0.425172  0.581199  1
  O  O240  1  0.599922  0.425172  0.581196  1
  O  O241  1  0.899990  0.424137  0.630909  1
  O  O242  1  0.100032  0.424112  0.630914  1
  O  O243  1  0.250046  0.413254  0.606050  1
  O  O244  1  0.749979  0.413256  0.606034  1
  O  O245  1  0.093172  0.047890  0.571605  1
  O  O246  1  0.907901  0.048789  0.571235  1
  O  O247  1  0.593292  0.047478  0.640283  1
  O  O248  1  0.407916  0.048707  0.640903  1
  O  O249  1  0.242375  0.118979  0.569520  1
  O  O250  1  0.757598  0.118971  0.569537  1
  O  O251  1  0.742420  0.118893  0.642443  1
  O  O252  1  0.257527  0.118958  0.642548  1
  O  O253  1  0.400993  0.176614  0.581963  1
  O  O254  1  0.598944  0.176659  0.581956  1
  O  O255  1  0.901091  0.176785  0.630029  1
  O  O256  1  0.098927  0.176863  0.630058  1
  O  O257  1  0.250018  0.188268  0.606034  1
  O  O258  1  0.749997  0.188423  0.606012  1
  O  O259  1  0.254305  0.245478  0.567069  1
  O  O260  1  0.745632  0.245496  0.567039  1
  O  O261  1  0.754340  0.245418  0.645008  1
  O  O262  1  0.245687  0.245487  0.644988  1
  O  O263  1  0.092685  0.300499  0.571182  1
  O  O264  1  0.907276  0.300514  0.571161  1
  O  O265  1  0.592656  0.300286  0.640833  1
  O  O266  1  0.407406  0.300335  0.640877  1
  O  O267  1  -0.000000  0.249881  0.604074  1
  O  O268  1  0.499910  0.249058  0.608058  1
  O  O269  1  0.000000  0.376164  0.598537  1
  O  O270  1  0.499986  0.374993  0.613161  1
  O  O271  1  0.000000  0.124231  0.598125  1
  O  O272  1  0.500069  0.123633  0.613821  1
  O  O273  1  0.250455  -0.000000  0.555473  1
  O  O274  1  0.749989  0.499993  0.637208  1
  O  O275  1  0.499677  0.500755  0.414139  1
  O  O276  1  0.749960  0.811522  0.413585  1
  O  O277  1  0.259197  0.627436  0.454977  1
  O  O278  1  0.740627  0.627434  0.455007  1
  O  O279  1  0.099925  0.574626  0.438389  1
  O  O280  1  0.899998  0.574756  0.438395  1
  O  O281  1  0.749934  0.586594  0.413556  1
  O  O282  1  0.249458  0.000000  0.464127  1
  O  O283  1  0.344683  0.913357  0.486993  1
  O  O284  1  0.656495  0.913137  0.487364  1
  O  O285  1  0.343274  0.913056  0.532234  1
  O  O286  1  0.655443  0.913338  0.532604  1
  O  O287  1  0.406620  0.952531  0.447796  1
  O  O288  1  0.591988  0.951344  0.448428  1
  O  O289  1  0.257696  0.880954  0.449970  1
  O  O290  1  0.742123  0.880896  0.450067  1
  O  O291  1  0.098887  0.823277  0.437636  1
  O  O292  1  0.900913  0.823245  0.437662  1
  O  O293  1  0.245668  0.754436  0.452539  1
  O  O294  1  0.754134  0.754412  0.452572  1
  O  O295  1  0.336558  0.703212  0.487532  1
  O  O296  1  0.663541  0.703583  0.487547  1
  O  O297  1  0.336395  0.703509  0.531976  1
  O  O298  1  0.663445  0.703245  0.532001  1
  O  O299  1  0.407214  0.699326  0.448357  1
  O  O300  1  0.592572  0.699334  0.448396  1
  O  O301  1  0.499955  0.750733  0.415609  1
  O  O302  1  0.500015  0.624810  0.420657  1
  O  O303  1  0.499864  0.876126  0.421416  1
  O  O304  1  0.375209  0.807707  0.509645  1
  O  O305  1  0.624719  0.807728  0.509909  1
  O  O306  1  0.499969  0.896365  0.509830  1
  O  O307  1  0.499981  0.717495  0.509776  1
  O  O308  1  0.749568  0.000000  0.464118  1
  O  O309  1  0.249812  0.811461  0.413545  1
  O  O310  1  0.249935  0.586597  0.413538  1
  O  O311  1  0.240271  0.372371  0.455027  1
  O  O312  1  0.759508  0.372388  0.455002  1
  O  O313  1  0.399993  0.423933  0.438391  1
  O  O314  1  0.599899  0.424118  0.438379  1
  O  O315  1  0.749885  0.499877  0.444706  1
  O  O316  1  0.249920  0.413091  0.413552  1
  O  O317  1  0.155835  0.086443  0.532422  1
  O  O318  1  0.843403  0.086788  0.532278  1
  O  O319  1  0.155857  0.086764  0.487165  1
  O  O320  1  0.844216  0.086610  0.487049  1
  O  O321  1  0.092406  0.048101  0.448102  1
  O  O322  1  0.906827  0.047682  0.447929  1
  O  O323  1  0.242347  0.118817  0.449989  1
  O  O324  1  0.757428  0.118831  0.449970  1
  O  O325  1  0.401021  0.176758  0.437569  1
  O  O326  1  0.598828  0.176774  0.437558  1
  O  O327  1  0.249970  0.188491  0.413568  1
  O  O328  1  0.254263  0.245347  0.452585  1
  O  O329  1  0.745637  0.245357  0.452549  1
  O  O330  1  0.163505  0.296523  0.532036  1
  O  O331  1  0.836388  0.296459  0.532010  1
  O  O332  1  0.163402  0.296419  0.487608  1
  O  O333  1  0.836515  0.296573  0.487577  1
  O  O334  1  0.092599  0.300367  0.448434  1
  O  O335  1  0.907242  0.300442  0.448407  1
  O  O336  1  0.000000  0.250576  0.415372  1
  O  O337  1  0.000000  0.376717  0.421180  1
  O  O338  1  0.000000  0.125145  0.421782  1
  O  O339  1  0.124668  0.192094  0.509859  1
  O  O340  1  0.875206  0.192168  0.509719  1
  O  O341  1  -0.000000  0.103458  0.509797  1
  O  O342  1  0.000000  0.282378  0.509826  1
  O  O343  1  0.250145  0.499856  0.444708  1
  O  O344  1  0.503129  -0.000000  0.413621  1
  Si  Si345  1  0.499921  0.819266  0.402999  1
  Si  Si346  1  0.112376  0.730945  0.317317  1
  Si  Si347  1  0.887544  0.730877  0.317357  1
  Si  Si348  1  0.111559  0.884430  0.317213  1
  Si  Si349  1  0.888260  0.884359  0.317335  1
  Si  Si350  1  0.000000  0.946444  0.394236  1
  Si  Si351  1  0.714644  0.572287  0.388140  1
  Si  Si352  1  0.285246  0.572358  0.388121  1
  Si  Si353  1  0.814132  0.937017  0.364544  1
  Si  Si354  1  0.185408  0.936847  0.364472  1
  Si  Si355  1  0.712785  0.817657  0.388169  1
  Si  Si356  1  0.287084  0.817679  0.388141  1
  Si  Si357  1  0.808848  0.695111  0.365693  1
  Si  Si358  1  0.190997  0.695161  0.365664  1
  Si  Si359  1  0.000000  0.693189  0.393735  1
  Si  Si360  1  0.499928  0.569323  0.401757  1
  Si  Si361  1  0.387556  0.268940  0.317310  1
  Si  Si362  1  0.785263  0.427291  0.388110  1
  Si  Si363  1  0.214649  0.427355  0.388128  1
  Si  Si364  1  0.685555  0.063032  0.364420  1
  Si  Si365  1  0.314237  0.062693  0.364676  1
  Si  Si366  1  0.787162  0.182154  0.388134  1
  Si  Si367  1  0.212673  0.182189  0.388167  1
  Si  Si368  1  0.691033  0.304594  0.365605  1
  Si  Si369  1  0.308829  0.304633  0.365635  1
  Si  Si370  1  0.499970  0.307461  0.393639  1
  Si  Si371  1  -0.000000  0.430729  0.401702  1
  Si  Si372  1  0.500174  0.054156  0.394272  1
  Si  Si373  1  0.000000  0.181435  0.403092  1
  Si  Si374  1  0.611617  0.115435  0.317175  1
  Si  Si375  1  0.388319  0.115456  0.317455  1
  Si  Si376  1  0.612374  0.268922  0.317258  1
  Si  Si377  1  0.499984  0.818645  0.231548  1
  Si  Si378  1  -0.000000  0.819183  0.210521  1
  Si  Si379  1  0.499760  0.945703  0.201797  1
  Si  Si380  1  0.714722  0.572532  0.246504  1
  Si  Si381  1  0.285260  0.572537  0.246491  1
  Si  Si382  1  0.214638  0.572471  0.195653  1
  Si  Si383  1  0.785392  0.572455  0.195670  1
  Si  Si384  1  0.814529  0.936913  0.270079  1
  Si  Si385  1  0.185673  0.937208  0.269993  1
  Si  Si386  1  0.314443  0.936845  0.171933  1
  Si  Si387  1  0.685646  0.937211  0.172193  1
  Si  Si388  1  0.712765  0.817663  0.246477  1
  Si  Si389  1  0.287195  0.817730  0.246467  1
  Si  Si390  1  0.212862  0.817712  0.195641  1
  Si  Si391  1  0.787205  0.817691  0.195665  1
  Si  Si392  1  0.808976  0.695238  0.268997  1
  Si  Si393  1  0.191016  0.695260  0.268973  1
  Si  Si394  1  0.308848  0.695181  0.173128  1
  Si  Si395  1  0.691185  0.695170  0.173153  1
  Si  Si396  1  -0.000000  0.692841  0.240921  1
  Si  Si397  1  0.499981  0.692284  0.201147  1
  Si  Si398  1  0.000000  0.569280  0.209329  1
  Si  Si399  1  0.499997  0.569350  0.232917  1
  Si  Si400  1  -0.000000  0.946183  0.240303  1
  Si  Si401  1  0.499748  0.053598  0.240328  1
  Si  Si402  1  0.499975  0.180548  0.210465  1
  Si  Si403  1  -0.000000  0.181083  0.231587  1
  Si  Si404  1  0.285358  0.427550  0.195667  1
  Si  Si405  1  0.714621  0.427548  0.195654  1
  Si  Si406  1  0.785272  0.427468  0.246490  1
  Si  Si407  1  0.214749  0.427461  0.246506  1
  Si  Si408  1  0.185722  0.062783  0.172062  1
  Si  Si409  1  0.814489  0.063066  0.171974  1
  Si  Si410  1  0.685613  0.062707  0.269942  1
  Si  Si411  1  0.314451  0.063090  0.270199  1
  Si  Si412  1  0.287127  0.182181  0.195646  1
  Si  Si413  1  0.712808  0.182228  0.195632  1
  Si  Si414  1  0.787217  0.182198  0.246454  1
  Si  Si415  1  0.212812  0.182197  0.246482  1
  Si  Si416  1  0.191152  0.304787  0.173183  1
  Si  Si417  1  0.808812  0.304795  0.173157  1
  Si  Si418  1  0.691029  0.304693  0.268932  1
  Si  Si419  1  0.308990  0.304692  0.268959  1
  Si  Si420  1  -0.000000  0.307470  0.201176  1
  Si  Si421  1  0.499973  0.306900  0.240882  1
  Si  Si422  1  -0.000000  0.430483  0.232924  1
  Si  Si423  1  0.499995  0.430561  0.209320  1
  Si  Si424  1  0.000000  0.054067  0.201762  1
  Si  Si425  1  0.112367  0.268961  0.124868  1
  Si  Si426  1  0.887535  0.269023  0.124827  1
  Si  Si427  1  0.111547  0.115470  0.124850  1
  Si  Si428  1  0.888254  0.115539  0.124727  1
  Si  Si429  1  0.112376  0.730945  0.702283  1
  Si  Si430  1  0.887544  0.730877  0.702323  1
  Si  Si431  1  0.111559  0.884430  0.702180  1
  Si  Si432  1  0.888260  0.884359  0.702301  1
  Si  Si433  1  0.499984  0.818645  0.616514  1
  Si  Si434  1  -0.000000  0.819183  0.595488  1
  Si  Si435  1  0.499760  0.945703  0.586763  1
  Si  Si436  1  0.714722  0.572532  0.631471  1
  Si  Si437  1  0.285260  0.572537  0.631458  1
  Si  Si438  1  0.214638  0.572471  0.580620  1
  Si  Si439  1  0.785392  0.572455  0.580637  1
  Si  Si440  1  0.814529  0.936913  0.655046  1
  Si  Si441  1  0.185673  0.937208  0.654959  1
  Si  Si442  1  0.314443  0.936845  0.556900  1
  Si  Si443  1  0.685646  0.937211  0.557160  1
  Si  Si444  1  0.712765  0.817663  0.631443  1
  Si  Si445  1  0.287195  0.817730  0.631434  1
  Si  Si446  1  0.212862  0.817712  0.580608  1
  Si  Si447  1  0.787205  0.817691  0.580632  1
  Si  Si448  1  0.808976  0.695238  0.653964  1
  Si  Si449  1  0.191016  0.695260  0.653940  1
  Si  Si450  1  0.308848  0.695181  0.558094  1
  Si  Si451  1  0.691185  0.695170  0.558120  1
  Si  Si452  1  -0.000000  0.692841  0.625888  1
  Si  Si453  1  0.499981  0.692284  0.586114  1
  Si  Si454  1  -0.000000  0.569280  0.594296  1
  Si  Si455  1  0.499997  0.569350  0.617884  1
  Si  Si456  1  -0.000000  0.946183  0.625270  1
  Si  Si457  1  0.499748  0.053598  0.625295  1
  Si  Si458  1  0.499975  0.180548  0.595431  1
  Si  Si459  1  -0.000000  0.181083  0.616554  1
  Si  Si460  1  0.285358  0.427550  0.580634  1
  Si  Si461  1  0.714621  0.427548  0.580620  1
  Si  Si462  1  0.785272  0.427468  0.631456  1
  Si  Si463  1  0.214749  0.427461  0.631473  1
  Si  Si464  1  0.185722  0.062783  0.557029  1
  Si  Si465  1  0.814489  0.063066  0.556940  1
  Si  Si466  1  0.685613  0.062707  0.654908  1
  Si  Si467  1  0.314451  0.063090  0.655166  1
  Si  Si468  1  0.287127  0.182181  0.580612  1
  Si  Si469  1  0.712808  0.182228  0.580599  1
  Si  Si470  1  0.787217  0.182198  0.631420  1
  Si  Si471  1  0.212812  0.182197  0.631448  1
  Si  Si472  1  0.191152  0.304787  0.558150  1
  Si  Si473  1  0.808812  0.304795  0.558124  1
  Si  Si474  1  0.691029  0.304693  0.653899  1
  Si  Si475  1  0.308990  0.304692  0.653926  1
  Si  Si476  1  -0.000000  0.307470  0.586142  1
  Si  Si477  1  0.499973  0.306900  0.625849  1
  Si  Si478  1  0.000000  0.430483  0.617891  1
  Si  Si479  1  0.499995  0.430561  0.594287  1
  Si  Si480  1  -0.000000  0.054067  0.586728  1
  Si  Si481  1  0.214632  0.572274  0.438951  1
  Si  Si482  1  0.785293  0.572327  0.438968  1
  Si  Si483  1  0.314382  0.937180  0.462440  1
  Si  Si484  1  0.685413  0.936833  0.462695  1
  Si  Si485  1  0.212768  0.817672  0.438968  1
  Si  Si486  1  0.787030  0.817673  0.439009  1
  Si  Si487  1  0.308820  0.695072  0.461418  1
  Si  Si488  1  0.691001  0.695080  0.461444  1
  Si  Si489  1  0.499942  0.692842  0.433381  1
  Si  Si490  1  -0.000000  0.569502  0.425305  1
  Si  Si491  1  0.500176  0.946284  0.432813  1
  Si  Si492  1  0.000000  0.819548  0.424174  1
  Si  Si493  1  0.388327  0.884332  0.509663  1
  Si  Si494  1  0.611618  0.884354  0.509944  1
  Si  Si495  1  0.387552  0.730849  0.509743  1
  Si  Si496  1  0.612406  0.730871  0.509792  1
  Si  Si497  1  0.112367  0.268961  0.509835  1
  Si  Si498  1  0.887535  0.269023  0.509794  1
  Si  Si499  1  0.285287  0.427287  0.438973  1
  Si  Si500  1  0.714603  0.427353  0.438954  1
  Si  Si501  1  0.185327  0.062896  0.462556  1
  Si  Si502  1  0.814217  0.062719  0.462481  1
  Si  Si503  1  0.287145  0.182161  0.438978  1
  Si  Si504  1  0.712704  0.182167  0.438952  1
  Si  Si505  1  0.191021  0.304635  0.461493  1
  Si  Si506  1  0.808814  0.304673  0.461462  1
  Si  Si507  1  -0.000000  0.307810  0.433460  1
  Si  Si508  1  0.499927  0.430522  0.425348  1
  Si  Si509  1  -0.000000  0.054333  0.432772  1
  Si  Si510  1  0.499911  0.181156  0.424066  1
  Si  Si511  1  0.111547  0.115470  0.509816  1
  Si  Si512  1  0.888254  0.115539  0.509693  1
  H  H513  1  0.343274  0.913056  0.131695  1
  H  H514  1  0.655443  0.913338  0.132066  1
  H  H515  1  0.336395  0.703509  0.131437  1
  H  H516  1  0.663445  0.703245  0.131463  1
  H  H517  1  0.155857  0.086764  0.086626  1
  H  H518  1  0.844216  0.086610  0.086510  1
  H  H519  1  0.163402  0.296419  0.087069  1
  H  H520  1  0.836515  0.296573  0.087039  1
  H  H521  1  0.843780  0.913303  0.740469  1
  H  H522  1  0.156296  0.913154  0.740355  1
  H  H523  1  0.836460  0.703367  0.740114  1
  H  H524  1  0.163481  0.703549  0.740084  1
  H  H525  1  0.655353  0.086502  0.695038  1
  H  H526  1  0.343349  0.086781  0.695408  1
  H  H527  1  0.663366  0.296536  0.695586  1
  H  H528  1  0.336484  0.296292  0.695613  1
