# generated using pymatgen
data_Si9H2O19
_symmetry_space_group_name_H-M   'P 1'
_cell_length_a   12.88379592
_cell_length_b   19.90959990
_cell_length_c   58.86363576
_cell_angle_alpha   130.32211271
_cell_angle_beta   120.00000000
_cell_angle_gamma   71.12273184
_symmetry_Int_Tables_number   1
_chemical_formula_structural   Si9H2O19
_chemical_formula_sum   'Si72 H16 O152'
_cell_volume   9969.59684209
_cell_formula_units_Z   8
loop_
 _symmetry_equiv_pos_site_id
 _symmetry_equiv_pos_as_xyz
  1  'x, y, z'
loop_
 _atom_site_type_symbol
 _atom_site_label
 _atom_site_symmetry_multiplicity
 _atom_site_fract_x
 _atom_site_fract_y
 _atom_site_fract_z
 _atom_site_occupancy
  O  O1  1  0.019557  0.083192  0.138453  1
  O  O2  1  0.019862  0.083129  0.220885  1
  O  O3  1  0.301484  0.083306  0.138310  1
  O  O4  1  0.228916  0.139971  0.180601  1
  O  O5  1  0.229147  0.140026  0.249392  1
  O  O6  1  0.062939  0.250181  0.191519  1
  O  O7  1  0.062991  0.250118  0.250483  1
  O  O8  1  0.334094  0.250235  0.191458  1
  O  O9  1  0.088908  0.127973  0.197048  1
  O  O10  1  0.455862  0.127811  0.196893  1
  O  O11  1  0.320850  0.583364  0.243665  1
  O  O12  1  0.320958  0.583298  0.181954  1
  O  O13  1  0.019687  0.417057  0.211599  1
  O  O14  1  0.301561  0.417092  0.137017  1
  O  O15  1  0.301781  0.417227  0.211614  1
  O  O16  1  0.457414  0.640028  0.240171  1
  O  O17  1  0.228985  0.360254  0.228973  1
  O  O18  1  0.088575  0.372390  0.250612  1
  O  O19  1  0.455943  0.372299  0.250572  1
  O  O20  1  0.113402  0.513521  0.137494  1
  O  O21  1  0.113413  0.513455  0.212084  1
  O  O22  1  0.226928  0.486832  0.181382  1
  O  O23  1  0.321061  0.916947  0.254882  1
  O  O24  1  0.396531  0.750163  0.227895  1
  O  O25  1  0.113388  0.986457  0.240810  1
  O  O26  1  0.678628  0.083217  0.220970  1
  O  O27  1  0.542058  0.139734  0.249267  1
  O  O28  1  0.603158  0.250001  0.250471  1
  O  O29  1  0.886304  0.013711  0.221925  1
  O  O30  1  0.697900  0.582938  0.181799  1
  O  O31  1  0.980001  0.583111  0.243598  1
  O  O32  1  0.770701  0.639911  0.240028  1
  O  O33  1  0.543742  0.627865  0.206682  1
  O  O34  1  0.886271  0.486707  0.181374  1
  O  O35  1  0.979827  0.917032  0.180152  1
  O  O36  1  0.698203  0.916857  0.254726  1
  O  O37  1  0.698357  0.917113  0.180353  1
  O  O38  1  0.665585  0.749930  0.227667  1
  O  O39  1  0.543825  0.872355  0.260041  1
  O  O40  1  0.773400  0.986925  0.241073  1
  O  O41  1  0.019557  0.083192  0.357318  1
  O  O42  1  0.301339  0.083052  0.282658  1
  O  O43  1  0.019862  0.083129  0.439750  1
  O  O44  1  0.301484  0.083306  0.357175  1
  O  O45  1  0.228916  0.139971  0.399466  1
  O  O46  1  0.229147  0.140026  0.468257  1
  O  O47  1  0.062939  0.250181  0.410384  1
  O  O48  1  0.333857  0.250037  0.309884  1
  O  O49  1  0.062991  0.250118  0.469348  1
  O  O50  1  0.334094  0.250235  0.410323  1
  O  O51  1  0.088908  0.127973  0.415913  1
  O  O52  1  0.456074  0.127773  0.277553  1
  O  O53  1  0.455862  0.127811  0.415758  1
  O  O54  1  0.226289  0.013239  0.296393  1
  O  O55  1  0.320850  0.583364  0.462530  1
  O  O56  1  0.320958  0.583298  0.400819  1
  O  O57  1  0.019687  0.417057  0.430464  1
  O  O58  1  0.301561  0.417092  0.355882  1
  O  O59  1  0.019643  0.417013  0.294104  1
  O  O60  1  0.301781  0.417227  0.430479  1
  O  O61  1  0.457414  0.640028  0.459036  1
  O  O62  1  0.228985  0.360254  0.447837  1
  O  O63  1  0.228934  0.360304  0.297685  1
  O  O64  1  0.088575  0.372390  0.469477  1
  O  O65  1  0.456022  0.372144  0.331094  1
  O  O66  1  0.455943  0.372299  0.469437  1
  O  O67  1  0.113402  0.513521  0.356359  1
  O  O68  1  0.113413  0.513455  0.430949  1
  O  O69  1  0.226928  0.486832  0.400247  1
  O  O70  1  0.320898  0.917148  0.316595  1
  O  O71  1  0.321061  0.916947  0.473747  1
  O  O72  1  0.457630  0.860432  0.288331  1
  O  O73  1  0.396256  0.750289  0.287217  1
  O  O74  1  0.396531  0.750163  0.446760  1
  O  O75  1  0.113388  0.986457  0.459675  1
  O  O76  1  0.113388  0.986771  0.315620  1
  O  O77  1  0.678628  0.083217  0.439835  1
  O  O78  1  0.678797  0.083016  0.282631  1
  O  O79  1  0.542058  0.139734  0.468132  1
  O  O80  1  0.603158  0.250001  0.469336  1
  O  O81  1  0.603433  0.249875  0.309799  1
  O  O82  1  0.886302  0.013389  0.296595  1
  O  O83  1  0.886304  0.013711  0.440790  1
  O  O84  1  0.980040  0.583136  0.326127  1
  O  O85  1  0.697900  0.582938  0.400664  1
  O  O86  1  0.980001  0.583111  0.462463  1
  O  O87  1  0.698128  0.583069  0.326174  1
  O  O88  1  0.678729  0.416865  0.294113  1
  O  O89  1  0.678836  0.416800  0.355819  1
  O  O90  1  0.770755  0.639858  0.308730  1
  O  O91  1  0.770701  0.639911  0.458893  1
  O  O92  1  0.542276  0.360137  0.297631  1
  O  O93  1  0.911112  0.627775  0.287086  1
  O  O94  1  0.543742  0.627865  0.425547  1
  O  O95  1  0.543667  0.628017  0.287255  1
  O  O96  1  0.772763  0.513330  0.356347  1
  O  O97  1  0.886271  0.486707  0.400239  1
  O  O98  1  0.886284  0.486639  0.325622  1
  O  O99  1  0.979827  0.917032  0.399017  1
  O  O100  1  0.698203  0.916857  0.473591  1
  O  O101  1  0.980135  0.916973  0.316625  1
  O  O102  1  0.698357  0.917113  0.399218  1
  O  O103  1  0.770548  0.860127  0.356811  1
  O  O104  1  0.770771  0.860193  0.288097  1
  O  O105  1  0.936705  0.750038  0.346079  1
  O  O106  1  0.665585  0.749930  0.446532  1
  O  O107  1  0.936747  0.749984  0.287098  1
  O  O108  1  0.665835  0.750125  0.346233  1
  O  O109  1  0.910785  0.872183  0.340437  1
  O  O110  1  0.543825  0.872355  0.478906  1
  O  O111  1  0.543623  0.872389  0.340671  1
  O  O112  1  0.773400  0.986925  0.459938  1
  O  O113  1  0.019557  0.083192  0.576183  1
  O  O114  1  0.301339  0.083052  0.501523  1
  O  O115  1  0.301484  0.083306  0.576040  1
  O  O116  1  0.333857  0.250037  0.528749  1
  O  O117  1  0.456074  0.127773  0.496418  1
  O  O118  1  0.226289  0.013239  0.515258  1
  O  O119  1  0.301561  0.417092  0.574747  1
  O  O120  1  0.019643  0.417013  0.512969  1
  O  O121  1  0.228934  0.360304  0.516550  1
  O  O122  1  0.456022  0.372144  0.549959  1
  O  O123  1  0.113402  0.513521  0.575223  1
  O  O124  1  0.320898  0.917148  0.535460  1
  O  O125  1  0.457630  0.860432  0.507196  1
  O  O126  1  0.396256  0.750289  0.506082  1
  O  O127  1  0.113388  0.986771  0.534485  1
  O  O128  1  0.678797  0.083016  0.501496  1
  O  O129  1  0.603433  0.249875  0.528664  1
  O  O130  1  0.886302  0.013389  0.515460  1
  O  O131  1  0.980040  0.583136  0.544992  1
  O  O132  1  0.697900  0.582938  0.619528  1
  O  O133  1  0.698128  0.583069  0.545039  1
  O  O134  1  0.678729  0.416865  0.512978  1
  O  O135  1  0.678836  0.416800  0.574684  1
  O  O136  1  0.770755  0.639858  0.527595  1
  O  O137  1  0.542276  0.360137  0.516496  1
  O  O138  1  0.911112  0.627775  0.505951  1
  O  O139  1  0.543667  0.628017  0.506120  1
  O  O140  1  0.772763  0.513330  0.575212  1
  O  O141  1  0.886271  0.486707  0.619104  1
  O  O142  1  0.886284  0.486639  0.544486  1
  O  O143  1  0.979827  0.917032  0.617882  1
  O  O144  1  0.980135  0.916973  0.535490  1
  O  O145  1  0.698357  0.917113  0.618082  1
  O  O146  1  0.770548  0.860127  0.575676  1
  O  O147  1  0.770771  0.860193  0.506961  1
  O  O148  1  0.936705  0.750038  0.564944  1
  O  O149  1  0.936747  0.749984  0.505963  1
  O  O150  1  0.665835  0.750125  0.565098  1
  O  O151  1  0.910785  0.872183  0.559302  1
  O  O152  1  0.543623  0.872389  0.559536  1
  Si  Si153  1  0.094669  0.149073  0.176084  1
  Si  Si154  1  0.094813  0.149062  0.228522  1
  Si  Si155  1  0.333140  0.149070  0.175988  1
  Si  Si156  1  0.427130  0.649166  0.264972  1
  Si  Si157  1  0.427227  0.649073  0.212728  1
  Si  Si158  1  0.094637  0.351252  0.220436  1
  Si  Si159  1  0.333211  0.351261  0.220394  1
  Si  Si160  1  0.239875  0.500173  0.159445  1
  Si  Si161  1  0.239907  0.500206  0.212001  1
  Si  Si162  1  0.427430  0.851274  0.256901  1
  Si  Si163  1  0.239674  -0.000000  0.268674  1
  Si  Si164  1  0.572261  0.148890  0.228456  1
  Si  Si165  1  0.760019  0.000000  0.216259  1
  Si  Si166  1  0.000000  -0.000000  0.216114  1
  Si  Si167  1  0.760016  -0.000000  0.268748  1
  Si  Si168  1  0.666469  0.648904  0.212574  1
  Si  Si169  1  0.905051  0.648913  0.264836  1
  Si  Si170  1  -0.000000  0.500083  0.211985  1
  Si  Si171  1  0.666544  0.851096  0.256689  1
  Si  Si172  1  0.094669  0.149073  0.394949  1
  Si  Si173  1  0.333148  0.148970  0.280799  1
  Si  Si174  1  0.094813  0.149062  0.447387  1
  Si  Si175  1  0.333140  0.149070  0.394852  1
  Si  Si176  1  0.239672  0.000000  0.321268  1
  Si  Si177  1  0.427130  0.649166  0.483837  1
  Si  Si178  1  0.427227  0.649073  0.431593  1
  Si  Si179  1  0.094637  0.351252  0.439301  1
  Si  Si180  1  0.333067  0.351166  0.325114  1
  Si  Si181  1  0.094596  0.351255  0.272858  1
  Si  Si182  1  0.333211  0.351261  0.439259  1
  Si  Si183  1  0.239875  0.500173  0.378310  1
  Si  Si184  1  0.239907  0.500206  0.430866  1
  Si  Si185  1  0.427184  0.851353  0.309127  1
  Si  Si186  1  0.427430  0.851274  0.475766  1
  Si  Si187  1  0.239674  0.000000  0.487539  1
  Si  Si188  1  0.572261  0.148890  0.447321  1
  Si  Si189  1  0.572507  0.148810  0.280700  1
  Si  Si190  1  0.760019  0.000000  0.435124  1
  Si  Si191  1  -0.000000  -0.000000  0.434979  1
  Si  Si192  1  0.760016  -0.000000  0.487613  1
  Si  Si193  1  0.000000  0.000000  0.321372  1
  Si  Si194  1  0.905090  0.648903  0.317264  1
  Si  Si195  1  0.666469  0.648904  0.431439  1
  Si  Si196  1  0.905051  0.648913  0.483701  1
  Si  Si197  1  0.666627  0.648996  0.317369  1
  Si  Si198  1  0.572461  0.351090  0.272835  1
  Si  Si199  1  0.572558  0.350997  0.325060  1
  Si  Si200  1  0.759776  0.499959  0.378271  1
  Si  Si201  1  -0.000000  0.500083  0.430850  1
  Si  Si202  1  0.759816  0.499988  0.325736  1
  Si  Si203  1  -0.000000  0.500077  0.325728  1
  Si  Si204  1  0.904881  0.851094  0.361388  1
  Si  Si205  1  0.666544  0.851096  0.475554  1
  Si  Si206  1  0.905021  0.851092  0.308978  1
  Si  Si207  1  0.666550  0.851191  0.361543  1
  Si  Si208  1  0.333148  0.148970  0.499664  1
  Si  Si209  1  0.239672  0.000000  0.540133  1
  Si  Si210  1  0.333067  0.351166  0.543979  1
  Si  Si211  1  0.094596  0.351255  0.491723  1
  Si  Si212  1  0.427184  0.851353  0.527991  1
  Si  Si213  1  0.572507  0.148810  0.499565  1
  Si  Si214  1  -0.000000  -0.000000  0.540237  1
  Si  Si215  1  0.905090  0.648903  0.536129  1
  Si  Si216  1  0.666627  0.648996  0.536234  1
  Si  Si217  1  0.572461  0.351090  0.491700  1
  Si  Si218  1  0.572558  0.350997  0.543925  1
  Si  Si219  1  0.759776  0.499959  0.597136  1
  Si  Si220  1  0.759816  0.499988  0.544601  1
  Si  Si221  1  -0.000000  0.500077  0.544593  1
  Si  Si222  1  0.904881  0.851094  0.580253  1
  Si  Si223  1  0.905021  0.851092  0.527843  1
  Si  Si224  1  0.666550  0.851191  0.580407  1
  H  H225  1  0.019557  0.083192  0.123163  1
  H  H226  1  0.301484  0.083306  0.123020  1
  H  H227  1  0.301561  0.417092  0.121727  1
  H  H228  1  0.113402  0.513521  0.122204  1
  H  H229  1  0.697900  0.582938  0.166509  1
  H  H230  1  0.886271  0.486707  0.166084  1
  H  H231  1  0.979827  0.917032  0.164863  1
  H  H232  1  0.698357  0.917113  0.165063  1
  H  H233  1  0.019557  0.083192  0.591472  1
  H  H234  1  0.301484  0.083306  0.591329  1
  H  H235  1  0.301561  0.417092  0.590036  1
  H  H236  1  0.113402  0.513521  0.590513  1
  H  H237  1  0.697900  0.582938  0.634818  1
  H  H238  1  0.886271  0.486707  0.634393  1
  H  H239  1  0.979827  0.917032  0.633172  1
  H  H240  1  0.698357  0.917113  0.633372  1
