# generated using pymatgen
data_Si18H2O37
_symmetry_space_group_name_H-M   'P 1'
_cell_length_a   12.56904554
_cell_length_b   24.35339409
_cell_length_c   55.29070047
_cell_angle_alpha   114.80776686
_cell_angle_beta   90.00000000
_cell_angle_gamma   90.00000000
_symmetry_Int_Tables_number   1
_chemical_formula_structural   Si18H2O37
_chemical_formula_sum   'Si144 H16 O296'
_cell_volume   15362.6481796
_cell_formula_units_Z   8
loop_
 _symmetry_equiv_pos_site_id
 _symmetry_equiv_pos_as_xyz
  1  'x, y, z'
loop_
 _atom_site_type_symbol
 _atom_site_label
 _atom_site_symmetry_multiplicity
 _atom_site_fract_x
 _atom_site_fract_y
 _atom_site_fract_z
 _atom_site_occupancy
  O  O1  1  0.396274  0.335710  0.115903  1
  O  O2  1  0.103521  0.335711  0.115902  1
  O  O3  1  0.603517  0.835709  0.115902  1
  O  O4  1  0.896272  0.835711  0.115902  1
  O  O5  1  0.440798  0.054425  0.173487  1
  O  O6  1  0.440800  0.054426  0.277750  1
  O  O7  1  0.058986  0.054428  0.173487  1
  O  O8  1  0.058989  0.054426  0.277751  1
  O  O9  1  0.389368  0.140762  0.218083  1
  O  O10  1  0.389367  0.140762  0.265065  1
  O  O11  1  0.110421  0.140761  0.218083  1
  O  O12  1  0.110421  0.140760  0.265066  1
  O  O13  1  0.396272  0.164379  0.176642  1
  O  O14  1  0.396272  0.164381  0.130429  1
  O  O15  1  0.103520  0.164384  0.176644  1
  O  O16  1  0.103521  0.164381  0.130429  1
  O  O17  1  0.249893  0.099135  0.182126  1
  O  O18  1  0.249895  0.099134  0.285636  1
  O  O19  1  0.061689  0.234787  0.258951  1
  O  O20  1  0.438107  0.234788  0.258951  1
  O  O21  1  0.438113  0.265302  0.172187  1
  O  O22  1  0.061686  0.265306  0.172187  1
  O  O23  1  0.249898  0.281799  0.267639  1
  O  O24  1  0.249898  0.218295  0.163499  1
  O  O25  1  0.058994  0.445666  0.257652  1
  O  O26  1  0.058995  0.445667  0.153387  1
  O  O27  1  0.440800  0.445664  0.257650  1
  O  O28  1  0.440802  0.445663  0.153387  1
  O  O29  1  0.110420  0.359331  0.213055  1
  O  O30  1  0.110420  0.359332  0.166073  1
  O  O31  1  0.389377  0.359328  0.213055  1
  O  O32  1  0.389377  0.359328  0.166073  1
  O  O33  1  0.249897  0.400955  0.249010  1
  O  O34  1  0.249898  0.400956  0.145503  1
  O  O35  1  0.440725  0.630362  0.239652  1
  O  O36  1  0.059068  0.630365  0.239653  1
  O  O37  1  0.086266  0.530828  0.199019  1
  O  O38  1  0.086267  0.530828  0.243496  1
  O  O39  1  0.413531  0.530825  0.199019  1
  O  O40  1  0.413530  0.530825  0.243496  1
  O  O41  1  0.249898  0.577633  0.229907  1
  O  O42  1  0.396274  0.335710  0.300709  1
  O  O43  1  0.103521  0.335710  0.254495  1
  O  O44  1  0.103521  0.335711  0.300709  1
  O  O45  1  0.396274  0.335711  0.254495  1
  O  O46  1  0.059066  0.869730  0.191485  1
  O  O47  1  0.440721  0.869728  0.191485  1
  O  O48  1  0.413528  0.969265  0.232119  1
  O  O49  1  0.413529  0.969266  0.187643  1
  O  O50  1  0.086259  0.969267  0.232119  1
  O  O51  1  0.086259  0.969268  0.187643  1
  O  O52  1  0.249893  0.922462  0.201231  1
  O  O53  1  0.940720  0.130365  0.239653  1
  O  O54  1  0.559068  0.130364  0.239652  1
  O  O55  1  0.586260  0.030826  0.199019  1
  O  O56  1  0.586260  0.030826  0.243495  1
  O  O57  1  0.913526  0.030827  0.199020  1
  O  O58  1  0.913527  0.030827  0.243496  1
  O  O59  1  0.749894  0.077632  0.229908  1
  O  O60  1  0.940805  0.554429  0.173487  1
  O  O61  1  0.940805  0.554428  0.277752  1
  O  O62  1  0.558991  0.554424  0.173486  1
  O  O63  1  0.558990  0.554425  0.277751  1
  O  O64  1  0.889366  0.640760  0.218083  1
  O  O65  1  0.889367  0.640760  0.265066  1
  O  O66  1  0.610425  0.640757  0.218082  1
  O  O67  1  0.610425  0.640757  0.265065  1
  O  O68  1  0.749896  0.599134  0.182125  1
  O  O69  1  0.749896  0.599133  0.285638  1
  O  O70  1  0.559080  0.369727  0.191485  1
  O  O71  1  0.940722  0.369731  0.191486  1
  O  O72  1  0.913537  0.469270  0.232120  1
  O  O73  1  0.913536  0.469270  0.187643  1
  O  O74  1  0.586264  0.469266  0.232119  1
  O  O75  1  0.586264  0.469266  0.187643  1
  O  O76  1  0.749902  0.422468  0.201232  1
  O  O77  1  0.603517  0.664381  0.130429  1
  O  O78  1  0.603517  0.664381  0.176643  1
  O  O79  1  0.896270  0.664385  0.176644  1
  O  O80  1  0.896270  0.664383  0.130430  1
  O  O81  1  0.558989  0.945665  0.257651  1
  O  O82  1  0.558987  0.945665  0.153387  1
  O  O83  1  0.940799  0.945666  0.257652  1
  O  O84  1  0.940797  0.945668  0.153387  1
  O  O85  1  0.610423  0.859332  0.213055  1
  O  O86  1  0.610422  0.859331  0.166073  1
  O  O87  1  0.889365  0.859334  0.213056  1
  O  O88  1  0.889364  0.859334  0.166073  1
  O  O89  1  0.603518  0.835709  0.254495  1
  O  O90  1  0.603517  0.835709  0.300708  1
  O  O91  1  0.896272  0.835709  0.254495  1
  O  O92  1  0.896272  0.835711  0.300709  1
  O  O93  1  0.749894  0.900957  0.249013  1
  O  O94  1  0.749892  0.900957  0.145500  1
  O  O95  1  0.561690  0.734784  0.258950  1
  O  O96  1  0.938104  0.734786  0.258951  1
  O  O97  1  0.938100  0.765308  0.172188  1
  O  O98  1  0.561684  0.765305  0.172188  1
  O  O99  1  0.749896  0.781797  0.267638  1
  O  O100  1  0.749892  0.718295  0.163500  1
  O  O101  1  0.440798  0.054425  0.358293  1
  O  O102  1  0.440800  0.054426  0.462557  1
  O  O103  1  0.058986  0.054428  0.358294  1
  O  O104  1  0.058989  0.054426  0.462558  1
  O  O105  1  0.389368  0.140762  0.402889  1
  O  O106  1  0.389367  0.140762  0.449872  1
  O  O107  1  0.110421  0.140761  0.402890  1
  O  O108  1  0.110421  0.140760  0.449872  1
  O  O109  1  0.396272  0.164379  0.361448  1
  O  O110  1  0.396272  0.164381  0.315235  1
  O  O111  1  0.103520  0.164384  0.361450  1
  O  O112  1  0.103521  0.164381  0.315236  1
  O  O113  1  0.249893  0.099135  0.366933  1
  O  O114  1  0.249895  0.099134  0.470443  1
  O  O115  1  0.061689  0.234787  0.443758  1
  O  O116  1  0.438107  0.234788  0.443757  1
  O  O117  1  0.438113  0.265302  0.356993  1
  O  O118  1  0.061686  0.265306  0.356994  1
  O  O119  1  0.249898  0.281799  0.452445  1
  O  O120  1  0.249898  0.218295  0.348306  1
  O  O121  1  0.058994  0.445666  0.442458  1
  O  O122  1  0.058995  0.445667  0.338193  1
  O  O123  1  0.440800  0.445664  0.442457  1
  O  O124  1  0.440802  0.445663  0.338194  1
  O  O125  1  0.110420  0.359331  0.397862  1
  O  O126  1  0.110420  0.359332  0.350879  1
  O  O127  1  0.389377  0.359328  0.397861  1
  O  O128  1  0.389377  0.359328  0.350879  1
  O  O129  1  0.249897  0.400955  0.433817  1
  O  O130  1  0.249898  0.400956  0.330309  1
  O  O131  1  0.440725  0.630362  0.424459  1
  O  O132  1  0.059068  0.630365  0.424459  1
  O  O133  1  0.086266  0.530828  0.383826  1
  O  O134  1  0.086267  0.530828  0.428303  1
  O  O135  1  0.413531  0.530825  0.383825  1
  O  O136  1  0.413530  0.530825  0.428302  1
  O  O137  1  0.249898  0.577633  0.414714  1
  O  O138  1  0.396274  0.335710  0.485516  1
  O  O139  1  0.103521  0.335710  0.439301  1
  O  O140  1  0.103521  0.335711  0.485515  1
  O  O141  1  0.396274  0.335711  0.439302  1
  O  O142  1  0.059066  0.869730  0.376292  1
  O  O143  1  0.440721  0.869728  0.376292  1
  O  O144  1  0.413528  0.969265  0.416925  1
  O  O145  1  0.413529  0.969266  0.372449  1
  O  O146  1  0.086259  0.969267  0.416925  1
  O  O147  1  0.086259  0.969268  0.372449  1
  O  O148  1  0.249893  0.922462  0.386037  1
  O  O149  1  0.940720  0.130365  0.424460  1
  O  O150  1  0.559068  0.130364  0.424459  1
  O  O151  1  0.586260  0.030826  0.383825  1
  O  O152  1  0.586260  0.030826  0.428302  1
  O  O153  1  0.913526  0.030827  0.383826  1
  O  O154  1  0.913527  0.030827  0.428303  1
  O  O155  1  0.749894  0.077632  0.414714  1
  O  O156  1  0.940805  0.554429  0.358293  1
  O  O157  1  0.940805  0.554428  0.462558  1
  O  O158  1  0.558991  0.554424  0.358292  1
  O  O159  1  0.558990  0.554425  0.462558  1
  O  O160  1  0.889366  0.640760  0.402889  1
  O  O161  1  0.889367  0.640760  0.449872  1
  O  O162  1  0.610425  0.640757  0.402889  1
  O  O163  1  0.610425  0.640757  0.449871  1
  O  O164  1  0.749896  0.599134  0.366931  1
  O  O165  1  0.749896  0.599133  0.470444  1
  O  O166  1  0.559080  0.369727  0.376292  1
  O  O167  1  0.940722  0.369731  0.376292  1
  O  O168  1  0.913537  0.469270  0.416926  1
  O  O169  1  0.913536  0.469270  0.372449  1
  O  O170  1  0.586264  0.469266  0.416926  1
  O  O171  1  0.586264  0.469266  0.372449  1
  O  O172  1  0.749902  0.422468  0.386039  1
  O  O173  1  0.603517  0.664381  0.315236  1
  O  O174  1  0.603517  0.664381  0.361449  1
  O  O175  1  0.896270  0.664385  0.361450  1
  O  O176  1  0.896270  0.664383  0.315236  1
  O  O177  1  0.558989  0.945665  0.442458  1
  O  O178  1  0.558987  0.945665  0.338193  1
  O  O179  1  0.940799  0.945666  0.442458  1
  O  O180  1  0.940797  0.945668  0.338194  1
  O  O181  1  0.610423  0.859332  0.397862  1
  O  O182  1  0.610422  0.859331  0.350879  1
  O  O183  1  0.889365  0.859334  0.397862  1
  O  O184  1  0.889364  0.859334  0.350879  1
  O  O185  1  0.603518  0.835709  0.439301  1
  O  O186  1  0.603517  0.835709  0.485515  1
  O  O187  1  0.896272  0.835709  0.439301  1
  O  O188  1  0.896272  0.835711  0.485515  1
  O  O189  1  0.749894  0.900957  0.433819  1
  O  O190  1  0.749892  0.900957  0.330307  1
  O  O191  1  0.561690  0.734784  0.443756  1
  O  O192  1  0.938104  0.734786  0.443757  1
  O  O193  1  0.938100  0.765308  0.356994  1
  O  O194  1  0.561684  0.765305  0.356994  1
  O  O195  1  0.749896  0.781797  0.452445  1
  O  O196  1  0.749892  0.718295  0.348306  1
  O  O197  1  0.440798  0.054425  0.543100  1
  O  O198  1  0.440800  0.054426  0.647363  1
  O  O199  1  0.058986  0.054428  0.543100  1
  O  O200  1  0.058989  0.054426  0.647364  1
  O  O201  1  0.389368  0.140762  0.587696  1
  O  O202  1  0.389367  0.140762  0.634678  1
  O  O203  1  0.110421  0.140761  0.587696  1
  O  O204  1  0.110421  0.140760  0.634678  1
  O  O205  1  0.396272  0.164379  0.546255  1
  O  O206  1  0.396272  0.164381  0.500042  1
  O  O207  1  0.103520  0.164384  0.546257  1
  O  O208  1  0.103521  0.164381  0.500042  1
  O  O209  1  0.249893  0.099135  0.551739  1
  O  O210  1  0.249895  0.099134  0.655249  1
  O  O211  1  0.061689  0.234787  0.628564  1
  O  O212  1  0.438107  0.234788  0.628564  1
  O  O213  1  0.438113  0.265302  0.541800  1
  O  O214  1  0.061686  0.265306  0.541800  1
  O  O215  1  0.249898  0.281799  0.637252  1
  O  O216  1  0.249898  0.218295  0.533112  1
  O  O217  1  0.058994  0.445666  0.627264  1
  O  O218  1  0.058995  0.445667  0.523000  1
  O  O219  1  0.440800  0.445664  0.627263  1
  O  O220  1  0.440802  0.445663  0.523000  1
  O  O221  1  0.110420  0.359331  0.582668  1
  O  O222  1  0.110420  0.359332  0.535686  1
  O  O223  1  0.389377  0.359328  0.582667  1
  O  O224  1  0.389377  0.359328  0.535686  1
  O  O225  1  0.249897  0.400955  0.618623  1
  O  O226  1  0.249898  0.400956  0.515116  1
  O  O227  1  0.440725  0.630362  0.609265  1
  O  O228  1  0.059068  0.630365  0.609266  1
  O  O229  1  0.086266  0.530828  0.568632  1
  O  O230  1  0.086267  0.530828  0.613109  1
  O  O231  1  0.413531  0.530825  0.568632  1
  O  O232  1  0.413530  0.530825  0.613108  1
  O  O233  1  0.249898  0.577633  0.599520  1
  O  O234  1  0.396274  0.335710  0.670322  1
  O  O235  1  0.103521  0.335710  0.624108  1
  O  O236  1  0.103521  0.335711  0.670322  1
  O  O237  1  0.396274  0.335711  0.624108  1
  O  O238  1  0.059066  0.869730  0.561098  1
  O  O239  1  0.440721  0.869728  0.561098  1
  O  O240  1  0.413528  0.969265  0.601732  1
  O  O241  1  0.413529  0.969266  0.557255  1
  O  O242  1  0.086259  0.969267  0.601732  1
  O  O243  1  0.086259  0.969268  0.557255  1
  O  O244  1  0.249893  0.922462  0.570844  1
  O  O245  1  0.940720  0.130365  0.609266  1
  O  O246  1  0.559068  0.130364  0.609265  1
  O  O247  1  0.586260  0.030826  0.568632  1
  O  O248  1  0.586260  0.030826  0.613108  1
  O  O249  1  0.913526  0.030827  0.568633  1
  O  O250  1  0.913527  0.030827  0.613109  1
  O  O251  1  0.749894  0.077632  0.599521  1
  O  O252  1  0.940805  0.554429  0.543100  1
  O  O253  1  0.940805  0.554428  0.647365  1
  O  O254  1  0.558991  0.554424  0.543099  1
  O  O255  1  0.558990  0.554425  0.647364  1
  O  O256  1  0.889366  0.640760  0.587696  1
  O  O257  1  0.889367  0.640760  0.634678  1
  O  O258  1  0.610425  0.640757  0.587695  1
  O  O259  1  0.610425  0.640757  0.634678  1
  O  O260  1  0.749896  0.599134  0.551738  1
  O  O261  1  0.749896  0.599133  0.655251  1
  O  O262  1  0.559080  0.369727  0.561098  1
  O  O263  1  0.940722  0.369731  0.561099  1
  O  O264  1  0.913537  0.469270  0.601733  1
  O  O265  1  0.913536  0.469270  0.557256  1
  O  O266  1  0.586264  0.469266  0.601732  1
  O  O267  1  0.586264  0.469266  0.557255  1
  O  O268  1  0.749902  0.422468  0.570845  1
  O  O269  1  0.603517  0.664381  0.500042  1
  O  O270  1  0.603517  0.664381  0.546256  1
  O  O271  1  0.896270  0.664385  0.546257  1
  O  O272  1  0.896270  0.664383  0.500043  1
  O  O273  1  0.558989  0.945665  0.627264  1
  O  O274  1  0.558987  0.945665  0.523000  1
  O  O275  1  0.940799  0.945666  0.627264  1
  O  O276  1  0.940797  0.945668  0.523000  1
  O  O277  1  0.610423  0.859332  0.582668  1
  O  O278  1  0.610422  0.859331  0.535685  1
  O  O279  1  0.889365  0.859334  0.582669  1
  O  O280  1  0.889364  0.859334  0.535686  1
  O  O281  1  0.603518  0.835709  0.624108  1
  O  O282  1  0.603517  0.835709  0.670321  1
  O  O283  1  0.896272  0.835709  0.624108  1
  O  O284  1  0.896272  0.835711  0.670322  1
  O  O285  1  0.749894  0.900957  0.618626  1
  O  O286  1  0.749892  0.900957  0.515113  1
  O  O287  1  0.561690  0.734784  0.628563  1
  O  O288  1  0.938104  0.734786  0.628564  1
  O  O289  1  0.938100  0.765308  0.541800  1
  O  O290  1  0.561684  0.765305  0.541800  1
  O  O291  1  0.749896  0.781797  0.637251  1
  O  O292  1  0.749892  0.718295  0.533113  1
  O  O293  1  0.396272  0.164381  0.684848  1
  O  O294  1  0.103521  0.164381  0.684849  1
  O  O295  1  0.603517  0.664381  0.684848  1
  O  O296  1  0.896270  0.664383  0.684849  1
  Si  Si297  1  0.499895  0.000000  0.254569  1
  Si  Si298  1  0.373011  0.203911  0.160841  1
  Si  Si299  1  0.126785  0.203913  0.160842  1
  Si  Si300  1  0.126785  0.296180  0.270297  1
  Si  Si301  1  0.371879  0.114642  0.187065  1
  Si  Si302  1  0.371880  0.114643  0.286428  1
  Si  Si303  1  0.127908  0.114644  0.187066  1
  Si  Si304  1  0.127910  0.114643  0.286429  1
  Si  Si305  1  0.052637  0.163572  0.245790  1
  Si  Si306  1  0.447153  0.163573  0.245790  1
  Si  Si307  1  0.373011  0.296181  0.270297  1
  Si  Si308  1  0.499894  -0.000000  0.176569  1
  Si  Si309  1  0.127911  0.385449  0.244072  1
  Si  Si310  1  0.127912  0.385450  0.144709  1
  Si  Si311  1  0.371882  0.385447  0.244071  1
  Si  Si312  1  0.371883  0.385447  0.144710  1
  Si  Si313  1  0.447165  0.336517  0.185348  1
  Si  Si314  1  0.052636  0.336521  0.185348  1
  Si  Si315  1  0.125806  0.569139  0.228338  1
  Si  Si316  1  0.373989  0.569136  0.228337  1
  Si  Si317  1  0.499897  0.500044  0.176569  1
  Si  Si318  1  0.499896  0.500045  0.254569  1
  Si  Si319  1  0.373986  0.930955  0.202801  1
  Si  Si320  1  0.125801  0.930957  0.202801  1
  Si  Si321  1  0.625802  0.069137  0.228337  1
  Si  Si322  1  0.873985  0.069138  0.228338  1
  Si  Si323  1  0.000000  0.000000  0.254569  1
  Si  Si324  1  0.000000  0.000000  0.176569  1
  Si  Si325  1  0.871881  0.614644  0.187066  1
  Si  Si326  1  0.871881  0.614643  0.286430  1
  Si  Si327  1  0.627911  0.614641  0.187065  1
  Si  Si328  1  0.627911  0.614641  0.286429  1
  Si  Si329  1  0.552642  0.663569  0.245789  1
  Si  Si330  1  0.947151  0.663571  0.245790  1
  Si  Si331  1  0.873993  0.430961  0.202802  1
  Si  Si332  1  0.625809  0.430956  0.202801  1
  Si  Si333  1  0.000000  0.500048  0.254570  1
  Si  Si334  1  0.000000  0.500049  0.176569  1
  Si  Si335  1  0.873005  0.703914  0.160842  1
  Si  Si336  1  0.626779  0.703912  0.160842  1
  Si  Si337  1  0.626782  0.796178  0.270296  1
  Si  Si338  1  0.873009  0.796180  0.270297  1
  Si  Si339  1  0.627909  0.885449  0.244073  1
  Si  Si340  1  0.627908  0.885448  0.144709  1
  Si  Si341  1  0.871879  0.885449  0.244073  1
  Si  Si342  1  0.871878  0.885451  0.144709  1
  Si  Si343  1  0.947149  0.836523  0.185349  1
  Si  Si344  1  0.552638  0.836521  0.185349  1
  Si  Si345  1  0.499895  0.000000  0.439375  1
  Si  Si346  1  0.373011  0.203911  0.345648  1
  Si  Si347  1  0.126785  0.203913  0.345648  1
  Si  Si348  1  0.126785  0.296180  0.455103  1
  Si  Si349  1  0.371879  0.114642  0.371872  1
  Si  Si350  1  0.371880  0.114643  0.471235  1
  Si  Si351  1  0.127908  0.114644  0.371872  1
  Si  Si352  1  0.127910  0.114643  0.471236  1
  Si  Si353  1  0.052637  0.163572  0.430597  1
  Si  Si354  1  0.447153  0.163573  0.430596  1
  Si  Si355  1  0.373011  0.296181  0.455103  1
  Si  Si356  1  0.499894  0.000000  0.361375  1
  Si  Si357  1  0.127911  0.385449  0.428879  1
  Si  Si358  1  0.127912  0.385450  0.329516  1
  Si  Si359  1  0.371882  0.385447  0.428878  1
  Si  Si360  1  0.371883  0.385447  0.329516  1
  Si  Si361  1  0.447165  0.336517  0.370154  1
  Si  Si362  1  0.052636  0.336521  0.370155  1
  Si  Si363  1  0.125806  0.569139  0.413144  1
  Si  Si364  1  0.373989  0.569136  0.413144  1
  Si  Si365  1  0.499897  0.500044  0.361375  1
  Si  Si366  1  0.499896  0.500045  0.439376  1
  Si  Si367  1  0.373986  0.930955  0.387607  1
  Si  Si368  1  0.125801  0.930957  0.387607  1
  Si  Si369  1  0.625802  0.069137  0.413144  1
  Si  Si370  1  0.873985  0.069138  0.413145  1
  Si  Si371  1  0.000000  0.000000  0.439376  1
  Si  Si372  1  0.000000  0.000000  0.361376  1
  Si  Si373  1  0.871881  0.614644  0.371872  1
  Si  Si374  1  0.871881  0.614643  0.471236  1
  Si  Si375  1  0.627911  0.614641  0.371871  1
  Si  Si376  1  0.627911  0.614641  0.471236  1
  Si  Si377  1  0.552642  0.663569  0.430596  1
  Si  Si378  1  0.947151  0.663571  0.430596  1
  Si  Si379  1  0.873993  0.430961  0.387608  1
  Si  Si380  1  0.625809  0.430956  0.387607  1
  Si  Si381  1  0.000000  0.500048  0.439377  1
  Si  Si382  1  0.000000  0.500049  0.361375  1
  Si  Si383  1  0.873005  0.703914  0.345649  1
  Si  Si384  1  0.626779  0.703912  0.345648  1
  Si  Si385  1  0.626782  0.796178  0.455102  1
  Si  Si386  1  0.873009  0.796180  0.455103  1
  Si  Si387  1  0.627909  0.885449  0.428879  1
  Si  Si388  1  0.627908  0.885448  0.329515  1
  Si  Si389  1  0.871879  0.885449  0.428879  1
  Si  Si390  1  0.871878  0.885451  0.329515  1
  Si  Si391  1  0.947149  0.836523  0.370155  1
  Si  Si392  1  0.552638  0.836521  0.370155  1
  Si  Si393  1  0.499895  0.000000  0.624182  1
  Si  Si394  1  0.373011  0.203911  0.530454  1
  Si  Si395  1  0.126785  0.203913  0.530455  1
  Si  Si396  1  0.126785  0.296180  0.639909  1
  Si  Si397  1  0.371879  0.114642  0.556678  1
  Si  Si398  1  0.371880  0.114643  0.656041  1
  Si  Si399  1  0.127908  0.114644  0.556679  1
  Si  Si400  1  0.127910  0.114643  0.656042  1
  Si  Si401  1  0.052637  0.163572  0.615403  1
  Si  Si402  1  0.447153  0.163573  0.615402  1
  Si  Si403  1  0.373011  0.296181  0.639910  1
  Si  Si404  1  0.499894  0.000000  0.546182  1
  Si  Si405  1  0.127911  0.385449  0.613685  1
  Si  Si406  1  0.127912  0.385450  0.514322  1
  Si  Si407  1  0.371882  0.385447  0.613684  1
  Si  Si408  1  0.371883  0.385447  0.514323  1
  Si  Si409  1  0.447165  0.336517  0.554961  1
  Si  Si410  1  0.052636  0.336521  0.554961  1
  Si  Si411  1  0.125806  0.569139  0.597951  1
  Si  Si412  1  0.373989  0.569136  0.597950  1
  Si  Si413  1  0.499897  0.500044  0.546182  1
  Si  Si414  1  0.499896  0.500045  0.624182  1
  Si  Si415  1  0.373986  0.930955  0.572414  1
  Si  Si416  1  0.125801  0.930957  0.572414  1
  Si  Si417  1  0.625802  0.069137  0.597950  1
  Si  Si418  1  0.873985  0.069138  0.597951  1
  Si  Si419  1  0.000000  0.000000  0.624182  1
  Si  Si420  1  0.000000  0.000000  0.546182  1
  Si  Si421  1  0.871881  0.614644  0.556679  1
  Si  Si422  1  0.871881  0.614643  0.656043  1
  Si  Si423  1  0.627911  0.614641  0.556678  1
  Si  Si424  1  0.627911  0.614641  0.656042  1
  Si  Si425  1  0.552642  0.663569  0.615402  1
  Si  Si426  1  0.947151  0.663571  0.615403  1
  Si  Si427  1  0.873993  0.430961  0.572414  1
  Si  Si428  1  0.625809  0.430956  0.572414  1
  Si  Si429  1  0.000000  0.500048  0.624183  1
  Si  Si430  1  0.000000  0.500049  0.546182  1
  Si  Si431  1  0.873005  0.703914  0.530455  1
  Si  Si432  1  0.626779  0.703912  0.530454  1
  Si  Si433  1  0.626782  0.796178  0.639909  1
  Si  Si434  1  0.873009  0.796180  0.639909  1
  Si  Si435  1  0.627909  0.885449  0.613686  1
  Si  Si436  1  0.627908  0.885448  0.514321  1
  Si  Si437  1  0.871879  0.885449  0.613686  1
  Si  Si438  1  0.871878  0.885451  0.514322  1
  Si  Si439  1  0.947149  0.836523  0.554961  1
  Si  Si440  1  0.552638  0.836521  0.554961  1
  H  H441  1  0.396274  0.335710  0.099625  1
  H  H442  1  0.103521  0.335711  0.099625  1
  H  H443  1  0.603517  0.835709  0.099624  1
  H  H444  1  0.896272  0.835711  0.099625  1
  H  H445  1  0.396272  0.164381  0.114151  1
  H  H446  1  0.103521  0.164381  0.114152  1
  H  H447  1  0.603517  0.664381  0.114151  1
  H  H448  1  0.896270  0.664383  0.114152  1
  H  H449  1  0.396274  0.335710  0.686600  1
  H  H450  1  0.103521  0.335711  0.686599  1
  H  H451  1  0.603517  0.835709  0.686599  1
  H  H452  1  0.896272  0.835711  0.686599  1
  H  H453  1  0.396272  0.164381  0.701126  1
  H  H454  1  0.103521  0.164381  0.701126  1
  H  H455  1  0.603517  0.664381  0.701126  1
  H  H456  1  0.896270  0.664383  0.701127  1
