# generated using pymatgen
data_Si34H2O69
_symmetry_space_group_name_H-M   'P 1'
_cell_length_a   13.80613488
_cell_length_b   20.14838188
_cell_length_c   74.85966940
_cell_angle_alpha   90.00000000
_cell_angle_beta   90.00000000
_cell_angle_gamma   90.00000000
_symmetry_Int_Tables_number   1
_chemical_formula_structural   Si34H2O69
_chemical_formula_sum   'Si272 H16 O552'
_cell_volume   20823.8098969
_cell_formula_units_Z   8
loop_
 _symmetry_equiv_pos_site_id
 _symmetry_equiv_pos_as_xyz
  1  'x, y, z'
loop_
 _atom_site_type_symbol
 _atom_site_label
 _atom_site_symmetry_multiplicity
 _atom_site_fract_x
 _atom_site_fract_y
 _atom_site_fract_z
 _atom_site_occupancy
  O  O1  1  0.759298  0.627433  0.252614  1
  O  O2  1  0.240481  0.627458  0.252595  1
  O  O3  1  0.599935  0.574632  0.265411  1
  O  O4  1  0.399960  0.574819  0.265400  1
  O  O5  1  0.249558  -0.000000  0.245579  1
  O  O6  1  0.843775  0.913027  0.192840  1
  O  O7  1  0.155483  0.913392  0.192732  1
  O  O8  1  0.843780  0.913303  0.227762  1
  O  O9  1  0.156296  0.913154  0.227674  1
  O  O10  1  0.906983  0.951865  0.257921  1
  O  O11  1  0.092237  0.951408  0.257791  1
  O  O12  1  0.757590  0.880867  0.256451  1
  O  O13  1  0.242222  0.880895  0.256432  1
  O  O14  1  0.598916  0.823224  0.266057  1
  O  O15  1  0.400950  0.823243  0.266050  1
  O  O16  1  0.745619  0.754387  0.254536  1
  O  O17  1  0.254291  0.754403  0.254513  1
  O  O18  1  0.836562  0.703425  0.193164  1
  O  O19  1  0.163363  0.703387  0.193145  1
  O  O20  1  0.836460  0.703367  0.227488  1
  O  O21  1  0.163481  0.703549  0.227465  1
  O  O22  1  0.907266  0.699447  0.257724  1
  O  O23  1  0.092577  0.699532  0.257704  1
  O  O24  1  0.000000  0.751239  0.282968  1
  O  O25  1  -0.000000  0.625252  0.279165  1
  O  O26  1  0.000000  0.876736  0.278703  1
  O  O27  1  0.875227  0.807735  0.210345  1
  O  O28  1  0.124676  0.807805  0.210235  1
  O  O29  1  -0.000000  0.896438  0.210305  1
  O  O30  1  0.000000  0.717546  0.210329  1
  O  O31  1  0.749422  0.000000  0.245584  1
  O  O32  1  0.000000  0.501087  0.284037  1
  O  O33  1  0.249910  0.499890  0.260536  1
  O  O34  1  0.740184  0.372379  0.252569  1
  O  O35  1  0.259642  0.372393  0.252593  1
  O  O36  1  0.899976  0.423985  0.265399  1
  O  O37  1  0.099936  0.424111  0.265404  1
  O  O38  1  0.499950  0.250100  0.283148  1
  O  O39  1  0.656733  0.086754  0.227619  1
  O  O40  1  0.344424  0.086550  0.227907  1
  O  O41  1  0.655353  0.086502  0.192687  1
  O  O42  1  0.343349  0.086781  0.192972  1
  O  O43  1  0.592018  0.048768  0.257678  1
  O  O44  1  0.406603  0.047575  0.258163  1
  O  O45  1  0.742477  0.118887  0.256417  1
  O  O46  1  0.257369  0.118836  0.256499  1
  O  O47  1  0.901024  0.176810  0.266097  1
  O  O48  1  0.098814  0.176806  0.266115  1
  O  O49  1  0.749814  0.188374  0.284588  1
  O  O50  1  0.754355  0.245389  0.254487  1
  O  O51  1  0.245541  0.245356  0.254484  1
  O  O52  1  0.663519  0.296268  0.227420  1
  O  O53  1  0.336488  0.296539  0.227441  1
  O  O54  1  0.663366  0.296536  0.193110  1
  O  O55  1  0.336484  0.296292  0.193131  1
  O  O56  1  0.592584  0.300217  0.257655  1
  O  O57  1  0.407258  0.300249  0.257682  1
  O  O58  1  0.500020  0.376298  0.278735  1
  O  O59  1  0.499848  0.124563  0.278402  1
  O  O60  1  -0.000000  0.001665  0.284224  1
  O  O61  1  0.624663  0.192064  0.210187  1
  O  O62  1  0.375275  0.192084  0.210381  1
  O  O63  1  0.499966  0.103378  0.210318  1
  O  O64  1  0.499967  0.282329  0.210285  1
  O  O65  1  0.750106  0.499860  0.260536  1
  O  O66  1  0.749945  0.413090  0.284589  1
  O  O67  1  0.759724  0.627494  0.168013  1
  O  O68  1  0.240267  0.627517  0.167997  1
  O  O69  1  0.259281  0.627529  0.103968  1
  O  O70  1  0.740769  0.627540  0.103992  1
  O  O71  1  0.600006  0.575846  0.155192  1
  O  O72  1  0.399978  0.575843  0.155190  1
  O  O73  1  0.099939  0.574822  0.116823  1
  O  O74  1  0.900091  0.574799  0.116828  1
  O  O75  1  0.750052  0.586759  0.136006  1
  O  O76  1  0.249978  0.586772  0.135992  1
  O  O77  1  0.749987  0.500010  0.111941  1
  O  O78  1  0.750571  -0.000000  0.096980  1
  O  O79  1  0.907749  0.951663  0.162771  1
  O  O80  1  0.093295  0.952537  0.162491  1
  O  O81  1  0.407918  0.951228  0.109076  1
  O  O82  1  0.593314  0.952426  0.109558  1
  O  O83  1  0.757620  0.881013  0.164099  1
  O  O84  1  0.242370  0.881024  0.164116  1
  O  O85  1  0.257656  0.880970  0.107819  1
  O  O86  1  0.742317  0.881010  0.107898  1
  O  O87  1  0.598888  0.823057  0.154508  1
  O  O88  1  0.401074  0.823118  0.154505  1
  O  O89  1  0.098992  0.823253  0.117431  1
  O  O90  1  0.901062  0.823317  0.117451  1
  O  O91  1  0.750034  0.811312  0.135998  1
  O  O92  1  0.250011  0.811493  0.135983  1
  O  O93  1  0.745655  0.754500  0.166126  1
  O  O94  1  0.254305  0.754531  0.166103  1
  O  O95  1  0.245702  0.754472  0.105879  1
  O  O96  1  0.754368  0.754523  0.105859  1
  O  O97  1  0.907356  0.699592  0.162907  1
  O  O98  1  0.092630  0.699608  0.162893  1
  O  O99  1  0.407335  0.699387  0.109040  1
  O  O100  1  0.592764  0.699446  0.109080  1
  O  O101  1  -0.000000  0.750502  0.137521  1
  O  O102  1  0.499898  0.749689  0.134520  1
  O  O103  1  -0.000000  0.624666  0.141557  1
  O  O104  1  0.499989  0.623506  0.130149  1
  O  O105  1  -0.000000  0.500635  0.136447  1
  O  O106  1  -0.000000  0.875785  0.142159  1
  O  O107  1  0.500080  0.875194  0.129747  1
  O  O108  1  0.249998  0.500005  0.111941  1
  O  O109  1  0.496845  -0.000000  0.136115  1
  O  O110  1  0.249980  0.500008  0.160060  1
  O  O111  1  0.250579  0.000000  0.175037  1
  O  O112  1  0.997818  -0.000000  0.135841  1
  O  O113  1  0.750400  0.000000  0.175018  1
  O  O114  1  0.499992  0.499103  0.136495  1
  O  O115  1  0.240687  0.372455  0.103998  1
  O  O116  1  0.759280  0.372466  0.103980  1
  O  O117  1  0.740250  0.372458  0.167980  1
  O  O118  1  0.259798  0.372482  0.168005  1
  O  O119  1  0.400060  0.425172  0.116818  1
  O  O120  1  0.599922  0.425172  0.116816  1
  O  O121  1  0.899990  0.424137  0.155197  1
  O  O122  1  0.100032  0.424112  0.155201  1
  O  O123  1  0.250046  0.413254  0.136004  1
  O  O124  1  0.749979  0.413256  0.135992  1
  O  O125  1  0.093172  0.047890  0.109411  1
  O  O126  1  0.907901  0.048789  0.109125  1
  O  O127  1  0.593292  0.047478  0.162434  1
  O  O128  1  0.407916  0.048707  0.162913  1
  O  O129  1  0.242375  0.118979  0.107800  1
  O  O130  1  0.757598  0.118971  0.107814  1
  O  O131  1  0.742420  0.118893  0.164102  1
  O  O132  1  0.257527  0.118958  0.164183  1
  O  O133  1  0.400993  0.176614  0.117408  1
  O  O134  1  0.598944  0.176659  0.117402  1
  O  O135  1  0.901091  0.176785  0.154518  1
  O  O136  1  0.098927  0.176863  0.154540  1
  O  O137  1  0.250018  0.188268  0.135992  1
  O  O138  1  0.749997  0.188423  0.135975  1
  O  O139  1  0.254305  0.245478  0.105908  1
  O  O140  1  0.745632  0.245496  0.105885  1
  O  O141  1  0.754340  0.245418  0.166082  1
  O  O142  1  0.245687  0.245487  0.166067  1
  O  O143  1  0.092685  0.300499  0.109084  1
  O  O144  1  0.907276  0.300514  0.109068  1
  O  O145  1  0.592656  0.300286  0.162859  1
  O  O146  1  0.407406  0.300335  0.162893  1
  O  O147  1  -0.000000  0.249881  0.134479  1
  O  O148  1  0.499910  0.249058  0.137554  1
  O  O149  1  0.000000  0.376164  0.130204  1
  O  O150  1  0.499986  0.374993  0.141495  1
  O  O151  1  0.000000  0.124231  0.129886  1
  O  O152  1  0.500069  0.123633  0.142004  1
  O  O153  1  0.250455  -0.000000  0.096956  1
  O  O154  1  0.749989  0.499993  0.160060  1
  O  O155  1  0.343274  0.913056  0.079014  1
  O  O156  1  0.655443  0.913338  0.079299  1
  O  O157  1  0.336395  0.703509  0.078814  1
  O  O158  1  0.663445  0.703245  0.078834  1
  O  O159  1  0.155835  0.086443  0.079159  1
  O  O160  1  0.843403  0.086788  0.079047  1
  O  O161  1  0.163505  0.296523  0.078861  1
  O  O162  1  0.836388  0.296459  0.078841  1
  O  O163  1  0.759298  0.627433  0.549833  1
  O  O164  1  0.240481  0.627458  0.549814  1
  O  O165  1  0.599935  0.574632  0.562630  1
  O  O166  1  0.399960  0.574819  0.562619  1
  O  O167  1  0.249558  -0.000000  0.542798  1
  O  O168  1  0.843775  0.913027  0.490060  1
  O  O169  1  0.155483  0.913392  0.489951  1
  O  O170  1  0.843780  0.913303  0.524981  1
  O  O171  1  0.156296  0.913154  0.524893  1
  O  O172  1  0.906983  0.951865  0.555141  1
  O  O173  1  0.092237  0.951408  0.555010  1
  O  O174  1  0.757590  0.880867  0.553670  1
  O  O175  1  0.242222  0.880895  0.553652  1
  O  O176  1  0.598916  0.823224  0.563276  1
  O  O177  1  0.400950  0.823243  0.563269  1
  O  O178  1  0.745619  0.754387  0.551755  1
  O  O179  1  0.254291  0.754403  0.551732  1
  O  O180  1  0.836562  0.703425  0.490383  1
  O  O181  1  0.163363  0.703387  0.490364  1
  O  O182  1  0.836460  0.703367  0.524707  1
  O  O183  1  0.163481  0.703549  0.524684  1
  O  O184  1  0.907266  0.699447  0.554943  1
  O  O185  1  0.092577  0.699532  0.554923  1
  O  O186  1  0.000000  0.751239  0.580187  1
  O  O187  1  -0.000000  0.625252  0.576384  1
  O  O188  1  0.000000  0.876736  0.575922  1
  O  O189  1  0.875227  0.807735  0.507564  1
  O  O190  1  0.124676  0.807805  0.507455  1
  O  O191  1  -0.000000  0.896438  0.507524  1
  O  O192  1  -0.000000  0.717546  0.507548  1
  O  O193  1  0.749422  0.000000  0.542804  1
  O  O194  1  -0.000000  0.501087  0.581256  1
  O  O195  1  0.249910  0.499890  0.557755  1
  O  O196  1  0.740184  0.372379  0.549788  1
  O  O197  1  0.259642  0.372393  0.549813  1
  O  O198  1  0.899976  0.423985  0.562618  1
  O  O199  1  0.099936  0.424111  0.562623  1
  O  O200  1  0.499950  0.250100  0.580367  1
  O  O201  1  0.656733  0.086754  0.524838  1
  O  O202  1  0.344424  0.086550  0.525126  1
  O  O203  1  0.655353  0.086502  0.489906  1
  O  O204  1  0.343349  0.086781  0.490192  1
  O  O205  1  0.592018  0.048768  0.554897  1
  O  O206  1  0.406603  0.047575  0.555383  1
  O  O207  1  0.742477  0.118887  0.553636  1
  O  O208  1  0.257369  0.118836  0.553719  1
  O  O209  1  0.901024  0.176810  0.563317  1
  O  O210  1  0.098814  0.176806  0.563334  1
  O  O211  1  0.749814  0.188374  0.581807  1
  O  O212  1  0.754355  0.245389  0.551707  1
  O  O213  1  0.245541  0.245356  0.551703  1
  O  O214  1  0.663519  0.296268  0.524639  1
  O  O215  1  0.336488  0.296539  0.524661  1
  O  O216  1  0.663366  0.296536  0.490329  1
  O  O217  1  0.336484  0.296292  0.490350  1
  O  O218  1  0.592584  0.300217  0.554874  1
  O  O219  1  0.407258  0.300249  0.554901  1
  O  O220  1  0.500020  0.376298  0.575954  1
  O  O221  1  0.499848  0.124563  0.575622  1
  O  O222  1  -0.000000  0.001665  0.581444  1
  O  O223  1  0.624663  0.192064  0.507406  1
  O  O224  1  0.375275  0.192084  0.507601  1
  O  O225  1  0.499966  0.103378  0.507538  1
  O  O226  1  0.499967  0.282329  0.507504  1
  O  O227  1  0.750106  0.499860  0.557756  1
  O  O228  1  0.749945  0.413090  0.581809  1
  O  O229  1  0.759724  0.627494  0.465232  1
  O  O230  1  0.240267  0.627517  0.465216  1
  O  O231  1  0.259281  0.627529  0.401187  1
  O  O232  1  0.740769  0.627540  0.401212  1
  O  O233  1  0.600006  0.575846  0.452411  1
  O  O234  1  0.399978  0.575843  0.452409  1
  O  O235  1  0.099939  0.574822  0.414042  1
  O  O236  1  0.900091  0.574799  0.414048  1
  O  O237  1  0.750052  0.586759  0.433225  1
  O  O238  1  0.249978  0.586772  0.433212  1
  O  O239  1  0.749987  0.500010  0.409160  1
  O  O240  1  0.750571  0.000000  0.394200  1
  O  O241  1  0.907749  0.951663  0.459990  1
  O  O242  1  0.093295  0.952537  0.459710  1
  O  O243  1  0.407918  0.951228  0.406295  1
  O  O244  1  0.593314  0.952426  0.406778  1
  O  O245  1  0.757620  0.881013  0.461318  1
  O  O246  1  0.242370  0.881024  0.461335  1
  O  O247  1  0.257656  0.880970  0.405039  1
  O  O248  1  0.742317  0.881010  0.405117  1
  O  O249  1  0.598888  0.823057  0.451727  1
  O  O250  1  0.401074  0.823118  0.451725  1
  O  O251  1  0.098992  0.823253  0.414650  1
  O  O252  1  0.901062  0.823317  0.414670  1
  O  O253  1  0.750034  0.811312  0.433217  1
  O  O254  1  0.250011  0.811493  0.433203  1
  O  O255  1  0.745655  0.754500  0.463345  1
  O  O256  1  0.254305  0.754531  0.463322  1
  O  O257  1  0.245702  0.754472  0.403099  1
  O  O258  1  0.754368  0.754523  0.403079  1
  O  O259  1  0.907356  0.699592  0.460127  1
  O  O260  1  0.092630  0.699608  0.460112  1
  O  O261  1  0.407335  0.699387  0.406259  1
  O  O262  1  0.592764  0.699446  0.406300  1
  O  O263  1  0.000000  0.750502  0.434741  1
  O  O264  1  0.499898  0.749689  0.431739  1
  O  O265  1  0.000000  0.624666  0.438777  1
  O  O266  1  0.499989  0.623506  0.427368  1
  O  O267  1  -0.000000  0.500635  0.433666  1
  O  O268  1  0.000000  0.875785  0.439378  1
  O  O269  1  0.500080  0.875194  0.426966  1
  O  O270  1  0.249998  0.500005  0.409161  1
  O  O271  1  0.496845  0.000000  0.433335  1
  O  O272  1  0.249980  0.500008  0.457279  1
  O  O273  1  0.250579  -0.000000  0.472256  1
  O  O274  1  0.997818  -0.000000  0.433061  1
  O  O275  1  0.750400  -0.000000  0.472237  1
  O  O276  1  0.499992  0.499103  0.433715  1
  O  O277  1  0.240687  0.372455  0.401217  1
  O  O278  1  0.759280  0.372466  0.401200  1
  O  O279  1  0.740250  0.372458  0.465199  1
  O  O280  1  0.259798  0.372482  0.465224  1
  O  O281  1  0.400060  0.425172  0.414037  1
  O  O282  1  0.599922  0.425172  0.414035  1
  O  O283  1  0.899990  0.424137  0.452416  1
  O  O284  1  0.100032  0.424112  0.452421  1
  O  O285  1  0.250046  0.413254  0.433224  1
  O  O286  1  0.749979  0.413256  0.433211  1
  O  O287  1  0.093172  0.047890  0.406630  1
  O  O288  1  0.907901  0.048789  0.406344  1
  O  O289  1  0.593292  0.047478  0.459654  1
  O  O290  1  0.407916  0.048707  0.460132  1
  O  O291  1  0.242375  0.118979  0.405020  1
  O  O292  1  0.757598  0.118971  0.405033  1
  O  O293  1  0.742420  0.118893  0.461322  1
  O  O294  1  0.257527  0.118958  0.461403  1
  O  O295  1  0.400993  0.176614  0.414627  1
  O  O296  1  0.598944  0.176659  0.414622  1
  O  O297  1  0.901091  0.176785  0.451737  1
  O  O298  1  0.098927  0.176863  0.451759  1
  O  O299  1  0.250018  0.188268  0.433211  1
  O  O300  1  0.749997  0.188423  0.433194  1
  O  O301  1  0.254305  0.245478  0.403128  1
  O  O302  1  0.745632  0.245496  0.403105  1
  O  O303  1  0.754340  0.245418  0.463302  1
  O  O304  1  0.245687  0.245487  0.463286  1
  O  O305  1  0.092685  0.300499  0.406303  1
  O  O306  1  0.907276  0.300514  0.406287  1
  O  O307  1  0.592656  0.300286  0.460079  1
  O  O308  1  0.407406  0.300335  0.460112  1
  O  O309  1  -0.000000  0.249881  0.431698  1
  O  O310  1  0.499910  0.249058  0.434774  1
  O  O311  1  -0.000000  0.376164  0.427423  1
  O  O312  1  0.499986  0.374993  0.438714  1
  O  O313  1  0.000000  0.124231  0.427105  1
  O  O314  1  0.500069  0.123633  0.439224  1
  O  O315  1  0.250455  -0.000000  0.394175  1
  O  O316  1  0.749989  0.499993  0.457280  1
  O  O317  1  0.499677  0.500755  0.285056  1
  O  O318  1  0.749960  0.811522  0.284628  1
  O  O319  1  0.259197  0.627436  0.316585  1
  O  O320  1  0.740627  0.627434  0.316609  1
  O  O321  1  0.099925  0.574626  0.303778  1
  O  O322  1  0.899998  0.574756  0.303783  1
  O  O323  1  0.749934  0.586594  0.284606  1
  O  O324  1  0.249458  0.000000  0.323650  1
  O  O325  1  0.344683  0.913357  0.341304  1
  O  O326  1  0.656495  0.913137  0.341591  1
  O  O327  1  0.343274  0.913056  0.376233  1
  O  O328  1  0.655443  0.913338  0.376519  1
  O  O329  1  0.406620  0.952531  0.311041  1
  O  O330  1  0.591988  0.951344  0.311529  1
  O  O331  1  0.257696  0.880954  0.312720  1
  O  O332  1  0.742123  0.880896  0.312795  1
  O  O333  1  0.098887  0.823277  0.303197  1
  O  O334  1  0.900913  0.823245  0.303217  1
  O  O335  1  0.245668  0.754436  0.314703  1
  O  O336  1  0.754134  0.754412  0.314729  1
  O  O337  1  0.336558  0.703212  0.341720  1
  O  O338  1  0.663541  0.703583  0.341731  1
  O  O339  1  0.336395  0.703509  0.376033  1
  O  O340  1  0.663445  0.703245  0.376053  1
  O  O341  1  0.407214  0.699326  0.311474  1
  O  O342  1  0.592572  0.699334  0.311504  1
  O  O343  1  0.499955  0.750733  0.286191  1
  O  O344  1  0.500015  0.624810  0.290088  1
  O  O345  1  0.499864  0.876126  0.290674  1
  O  O346  1  0.375209  0.807707  0.358793  1
  O  O347  1  0.624719  0.807728  0.358996  1
  O  O348  1  0.499969  0.896365  0.358936  1
  O  O349  1  0.499981  0.717495  0.358894  1
  O  O350  1  0.749568  -0.000000  0.323643  1
  O  O351  1  0.249812  0.811461  0.284597  1
  O  O352  1  0.249935  0.586597  0.284592  1
  O  O353  1  0.240271  0.372371  0.316624  1
  O  O354  1  0.759508  0.372388  0.316605  1
  O  O355  1  0.399993  0.423933  0.303780  1
  O  O356  1  0.599899  0.424118  0.303771  1
  O  O357  1  0.749885  0.499877  0.308656  1
  O  O358  1  0.249920  0.413091  0.284603  1
  O  O359  1  0.155835  0.086443  0.376378  1
  O  O360  1  0.843403  0.086788  0.376267  1
  O  O361  1  0.155857  0.086764  0.341437  1
  O  O362  1  0.844216  0.086610  0.341347  1
  O  O363  1  0.092406  0.048101  0.311278  1
  O  O364  1  0.906827  0.047682  0.311144  1
  O  O365  1  0.242347  0.118817  0.312734  1
  O  O366  1  0.757428  0.118831  0.312720  1
  O  O367  1  0.401021  0.176758  0.303145  1
  O  O368  1  0.598828  0.176774  0.303137  1
  O  O369  1  0.249970  0.188491  0.284615  1
  O  O370  1  0.254263  0.245347  0.314739  1
  O  O371  1  0.745637  0.245357  0.314711  1
  O  O372  1  0.163505  0.296523  0.376080  1
  O  O373  1  0.836388  0.296459  0.376060  1
  O  O374  1  0.163402  0.296419  0.341779  1
  O  O375  1  0.836515  0.296573  0.341755  1
  O  O376  1  0.092599  0.300367  0.311534  1
  O  O377  1  0.907242  0.300442  0.311513  1
  O  O378  1  0.000000  0.250576  0.286008  1
  O  O379  1  -0.000000  0.376717  0.290492  1
  O  O380  1  0.000000  0.125145  0.290957  1
  O  O381  1  0.124668  0.192094  0.358958  1
  O  O382  1  0.875206  0.192168  0.358850  1
  O  O383  1  0.000000  0.103458  0.358910  1
  O  O384  1  0.000000  0.282378  0.358933  1
  O  O385  1  0.250145  0.499856  0.308657  1
  O  O386  1  0.503129  0.000000  0.284656  1
  O  O387  1  0.843775  0.913027  0.787279  1
  O  O388  1  0.155483  0.913392  0.787170  1
  O  O389  1  0.836562  0.703425  0.787603  1
  O  O390  1  0.163363  0.703387  0.787583  1
  O  O391  1  0.655353  0.086502  0.787125  1
  O  O392  1  0.343349  0.086781  0.787411  1
  O  O393  1  0.663366  0.296536  0.787548  1
  O  O394  1  0.336484  0.296292  0.787569  1
  O  O395  1  0.759724  0.627494  0.762452  1
  O  O396  1  0.240267  0.627517  0.762435  1
  O  O397  1  0.259281  0.627529  0.698407  1
  O  O398  1  0.740769  0.627540  0.698431  1
  O  O399  1  0.600006  0.575846  0.749631  1
  O  O400  1  0.399978  0.575843  0.749628  1
  O  O401  1  0.099939  0.574822  0.711262  1
  O  O402  1  0.900091  0.574799  0.711267  1
  O  O403  1  0.750052  0.586759  0.730444  1
  O  O404  1  0.249978  0.586772  0.730431  1
  O  O405  1  0.749987  0.500010  0.706380  1
  O  O406  1  0.750571  -0.000000  0.691419  1
  O  O407  1  0.907749  0.951663  0.757209  1
  O  O408  1  0.093295  0.952537  0.756930  1
  O  O409  1  0.407918  0.951228  0.703515  1
  O  O410  1  0.593314  0.952426  0.703997  1
  O  O411  1  0.757620  0.881013  0.758538  1
  O  O412  1  0.242370  0.881024  0.758555  1
  O  O413  1  0.257656  0.880970  0.702258  1
  O  O414  1  0.742317  0.881010  0.702337  1
  O  O415  1  0.598888  0.823057  0.748947  1
  O  O416  1  0.401074  0.823118  0.748944  1
  O  O417  1  0.098992  0.823253  0.711870  1
  O  O418  1  0.901062  0.823317  0.711890  1
  O  O419  1  0.750034  0.811312  0.730436  1
  O  O420  1  0.250011  0.811493  0.730422  1
  O  O421  1  0.745655  0.754500  0.760565  1
  O  O422  1  0.254305  0.754531  0.760542  1
  O  O423  1  0.245702  0.754472  0.700318  1
  O  O424  1  0.754368  0.754523  0.700298  1
  O  O425  1  0.907356  0.699592  0.757346  1
  O  O426  1  0.092630  0.699608  0.757332  1
  O  O427  1  0.407335  0.699387  0.703479  1
  O  O428  1  0.592764  0.699446  0.703519  1
  O  O429  1  -0.000000  0.750502  0.731960  1
  O  O430  1  0.499898  0.749689  0.728958  1
  O  O431  1  -0.000000  0.624666  0.735996  1
  O  O432  1  0.499989  0.623506  0.724588  1
  O  O433  1  0.000000  0.500635  0.730886  1
  O  O434  1  0.000000  0.875785  0.736597  1
  O  O435  1  0.500080  0.875194  0.724185  1
  O  O436  1  0.249998  0.500005  0.706380  1
  O  O437  1  0.496845  0.000000  0.730554  1
  O  O438  1  0.249980  0.500008  0.754498  1
  O  O439  1  0.250579  -0.000000  0.769476  1
  O  O440  1  0.997818  -0.000000  0.730280  1
  O  O441  1  0.750400  0.000000  0.769457  1
  O  O442  1  0.499992  0.499103  0.730934  1
  O  O443  1  0.240687  0.372455  0.698436  1
  O  O444  1  0.759280  0.372466  0.698419  1
  O  O445  1  0.740250  0.372458  0.762419  1
  O  O446  1  0.259798  0.372482  0.762444  1
  O  O447  1  0.400060  0.425172  0.711257  1
  O  O448  1  0.599922  0.425172  0.711254  1
  O  O449  1  0.899990  0.424137  0.749635  1
  O  O450  1  0.100032  0.424112  0.749640  1
  O  O451  1  0.250046  0.413254  0.730443  1
  O  O452  1  0.749979  0.413256  0.730430  1
  O  O453  1  0.093172  0.047890  0.703849  1
  O  O454  1  0.907901  0.048789  0.703564  1
  O  O455  1  0.593292  0.047478  0.756873  1
  O  O456  1  0.407916  0.048707  0.757352  1
  O  O457  1  0.242375  0.118979  0.702239  1
  O  O458  1  0.757598  0.118971  0.702253  1
  O  O459  1  0.742420  0.118893  0.758541  1
  O  O460  1  0.257527  0.118958  0.758622  1
  O  O461  1  0.400993  0.176614  0.711846  1
  O  O462  1  0.598944  0.176659  0.711841  1
  O  O463  1  0.901091  0.176785  0.748957  1
  O  O464  1  0.098927  0.176863  0.748979  1
  O  O465  1  0.250018  0.188268  0.730431  1
  O  O466  1  0.749997  0.188423  0.730413  1
  O  O467  1  0.254305  0.245478  0.700347  1
  O  O468  1  0.745632  0.245496  0.700324  1
  O  O469  1  0.754340  0.245418  0.760521  1
  O  O470  1  0.245687  0.245487  0.760506  1
  O  O471  1  0.092685  0.300499  0.703523  1
  O  O472  1  0.907276  0.300514  0.703507  1
  O  O473  1  0.592656  0.300286  0.757298  1
  O  O474  1  0.407406  0.300335  0.757332  1
  O  O475  1  0.000000  0.249881  0.728917  1
  O  O476  1  0.499910  0.249058  0.731993  1
  O  O477  1  0.000000  0.376164  0.724643  1
  O  O478  1  0.499986  0.374993  0.735933  1
  O  O479  1  0.000000  0.124231  0.724325  1
  O  O480  1  0.500069  0.123633  0.736443  1
  O  O481  1  0.250455  -0.000000  0.691394  1
  O  O482  1  0.749989  0.499993  0.754499  1
  O  O483  1  0.499677  0.500755  0.582275  1
  O  O484  1  0.749960  0.811522  0.581847  1
  O  O485  1  0.259197  0.627436  0.613805  1
  O  O486  1  0.740627  0.627434  0.613828  1
  O  O487  1  0.099925  0.574626  0.600998  1
  O  O488  1  0.899998  0.574756  0.601003  1
  O  O489  1  0.749934  0.586594  0.581825  1
  O  O490  1  0.249458  -0.000000  0.620869  1
  O  O491  1  0.344683  0.913357  0.638523  1
  O  O492  1  0.656495  0.913137  0.638810  1
  O  O493  1  0.343274  0.913056  0.673452  1
  O  O494  1  0.655443  0.913338  0.673738  1
  O  O495  1  0.406620  0.952531  0.608260  1
  O  O496  1  0.591988  0.951344  0.608748  1
  O  O497  1  0.257696  0.880954  0.609939  1
  O  O498  1  0.742123  0.880896  0.610014  1
  O  O499  1  0.098887  0.823277  0.600416  1
  O  O500  1  0.900913  0.823245  0.600437  1
  O  O501  1  0.245668  0.754436  0.611922  1
  O  O502  1  0.754134  0.754412  0.611948  1
  O  O503  1  0.336558  0.703212  0.638939  1
  O  O504  1  0.663541  0.703583  0.638951  1
  O  O505  1  0.336395  0.703509  0.673253  1
  O  O506  1  0.663445  0.703245  0.673272  1
  O  O507  1  0.407214  0.699326  0.608694  1
  O  O508  1  0.592572  0.699334  0.608724  1
  O  O509  1  0.499955  0.750733  0.583410  1
  O  O510  1  0.500015  0.624810  0.587308  1
  O  O511  1  0.499864  0.876126  0.587894  1
  O  O512  1  0.375209  0.807707  0.656012  1
  O  O513  1  0.624719  0.807728  0.656216  1
  O  O514  1  0.499969  0.896365  0.656155  1
  O  O515  1  0.499981  0.717495  0.656113  1
  O  O516  1  0.749568  -0.000000  0.620862  1
  O  O517  1  0.249812  0.811461  0.581817  1
  O  O518  1  0.249935  0.586597  0.581811  1
  O  O519  1  0.240271  0.372371  0.613844  1
  O  O520  1  0.759508  0.372388  0.613824  1
  O  O521  1  0.399993  0.423933  0.600999  1
  O  O522  1  0.599899  0.424118  0.600990  1
  O  O523  1  0.749885  0.499877  0.605875  1
  O  O524  1  0.249920  0.413091  0.581822  1
  O  O525  1  0.155835  0.086443  0.673598  1
  O  O526  1  0.843403  0.086788  0.673486  1
  O  O527  1  0.155857  0.086764  0.638656  1
  O  O528  1  0.844216  0.086610  0.638566  1
  O  O529  1  0.092406  0.048101  0.608497  1
  O  O530  1  0.906827  0.047682  0.608364  1
  O  O531  1  0.242347  0.118817  0.609953  1
  O  O532  1  0.757428  0.118831  0.609939  1
  O  O533  1  0.401021  0.176758  0.600365  1
  O  O534  1  0.598828  0.176774  0.600356  1
  O  O535  1  0.249970  0.188491  0.581834  1
  O  O536  1  0.254263  0.245347  0.611958  1
  O  O537  1  0.745637  0.245357  0.611931  1
  O  O538  1  0.163505  0.296523  0.673300  1
  O  O539  1  0.836388  0.296459  0.673279  1
  O  O540  1  0.163402  0.296419  0.638998  1
  O  O541  1  0.836515  0.296573  0.638974  1
  O  O542  1  0.092599  0.300367  0.608753  1
  O  O543  1  0.907242  0.300442  0.608733  1
  O  O544  1  0.000000  0.250576  0.583227  1
  O  O545  1  -0.000000  0.376717  0.587712  1
  O  O546  1  0.000000  0.125145  0.588176  1
  O  O547  1  0.124668  0.192094  0.656178  1
  O  O548  1  0.875206  0.192168  0.656069  1
  O  O549  1  0.000000  0.103458  0.656129  1
  O  O550  1  0.000000  0.282378  0.656152  1
  O  O551  1  0.250145  0.499856  0.605876  1
  O  O552  1  0.503129  0.000000  0.581875  1
  Si  Si553  1  0.499921  0.819266  0.276455  1
  Si  Si554  1  0.112376  0.730945  0.210303  1
  Si  Si555  1  0.887544  0.730877  0.210334  1
  Si  Si556  1  0.111559  0.884430  0.210223  1
  Si  Si557  1  0.888260  0.884359  0.210317  1
  Si  Si558  1  0.000000  0.946444  0.269690  1
  Si  Si559  1  0.714644  0.572287  0.264983  1
  Si  Si560  1  0.285246  0.572358  0.264968  1
  Si  Si561  1  0.814132  0.937017  0.246765  1
  Si  Si562  1  0.185408  0.936847  0.246709  1
  Si  Si563  1  0.712785  0.817657  0.265005  1
  Si  Si564  1  0.287084  0.817679  0.264983  1
  Si  Si565  1  0.808848  0.695111  0.247652  1
  Si  Si566  1  0.190997  0.695161  0.247630  1
  Si  Si567  1  0.000000  0.693189  0.269303  1
  Si  Si568  1  0.499928  0.569323  0.275496  1
  Si  Si569  1  0.387556  0.268940  0.210298  1
  Si  Si570  1  0.785263  0.427291  0.264960  1
  Si  Si571  1  0.214649  0.427355  0.264974  1
  Si  Si572  1  0.685555  0.063032  0.246669  1
  Si  Si573  1  0.314237  0.062693  0.246867  1
  Si  Si574  1  0.787162  0.182154  0.264978  1
  Si  Si575  1  0.212673  0.182189  0.265004  1
  Si  Si576  1  0.691033  0.304594  0.247584  1
  Si  Si577  1  0.308829  0.304633  0.247607  1
  Si  Si578  1  0.499970  0.307461  0.269228  1
  Si  Si579  1  -0.000000  0.430729  0.275454  1
  Si  Si580  1  0.500174  0.054156  0.269717  1
  Si  Si581  1  0.000000  0.181435  0.276527  1
  Si  Si582  1  0.611617  0.115435  0.210193  1
  Si  Si583  1  0.388319  0.115456  0.210409  1
  Si  Si584  1  0.612374  0.268922  0.210258  1
  Si  Si585  1  0.499984  0.818645  0.144083  1
  Si  Si586  1  -0.000000  0.819183  0.127850  1
  Si  Si587  1  0.499760  0.945703  0.121114  1
  Si  Si588  1  0.714722  0.572532  0.155631  1
  Si  Si589  1  0.285260  0.572537  0.155621  1
  Si  Si590  1  0.214638  0.572471  0.116371  1
  Si  Si591  1  0.785392  0.572455  0.116384  1
  Si  Si592  1  0.814529  0.936913  0.173832  1
  Si  Si593  1  0.185673  0.937208  0.173766  1
  Si  Si594  1  0.314443  0.936845  0.098057  1
  Si  Si595  1  0.685646  0.937211  0.098258  1
  Si  Si596  1  0.712765  0.817663  0.155610  1
  Si  Si597  1  0.287195  0.817730  0.155602  1
  Si  Si598  1  0.212862  0.817712  0.116361  1
  Si  Si599  1  0.787205  0.817691  0.116380  1
  Si  Si600  1  0.808976  0.695238  0.172997  1
  Si  Si601  1  0.191016  0.695260  0.172979  1
  Si  Si602  1  0.308848  0.695181  0.098980  1
  Si  Si603  1  0.691185  0.695170  0.098999  1
  Si  Si604  1  0.000000  0.692841  0.151320  1
  Si  Si605  1  0.499981  0.692284  0.120612  1
  Si  Si606  1  0.000000  0.569280  0.126929  1
  Si  Si607  1  0.499997  0.569350  0.145141  1
  Si  Si608  1  0.000000  0.946183  0.150843  1
  Si  Si609  1  0.499748  0.053598  0.150863  1
  Si  Si610  1  0.499975  0.180548  0.127806  1
  Si  Si611  1  0.000000  0.181083  0.144114  1
  Si  Si612  1  0.285358  0.427550  0.116381  1
  Si  Si613  1  0.714621  0.427548  0.116371  1
  Si  Si614  1  0.785272  0.427468  0.155620  1
  Si  Si615  1  0.214749  0.427461  0.155632  1
  Si  Si616  1  0.185722  0.062783  0.098157  1
  Si  Si617  1  0.814489  0.063066  0.098089  1
  Si  Si618  1  0.685613  0.062707  0.173726  1
  Si  Si619  1  0.314451  0.063090  0.173925  1
  Si  Si620  1  0.287127  0.182181  0.116365  1
  Si  Si621  1  0.712808  0.182228  0.116354  1
  Si  Si622  1  0.787217  0.182198  0.155592  1
  Si  Si623  1  0.212812  0.182197  0.155614  1
  Si  Si624  1  0.191152  0.304787  0.099022  1
  Si  Si625  1  0.808812  0.304795  0.099002  1
  Si  Si626  1  0.691029  0.304693  0.172947  1
  Si  Si627  1  0.308990  0.304692  0.172968  1
  Si  Si628  1  -0.000000  0.307470  0.120634  1
  Si  Si629  1  0.499973  0.306900  0.151290  1
  Si  Si630  1  -0.000000  0.430483  0.145146  1
  Si  Si631  1  0.499995  0.430561  0.126923  1
  Si  Si632  1  0.000000  0.054067  0.121087  1
  Si  Si633  1  0.499921  0.819266  0.573675  1
  Si  Si634  1  0.112376  0.730945  0.507522  1
  Si  Si635  1  0.887544  0.730877  0.507553  1
  Si  Si636  1  0.111559  0.884430  0.507442  1
  Si  Si637  1  0.888260  0.884359  0.507536  1
  Si  Si638  1  0.000000  0.946444  0.566909  1
  Si  Si639  1  0.714644  0.572287  0.562202  1
  Si  Si640  1  0.285246  0.572358  0.562187  1
  Si  Si641  1  0.814132  0.937017  0.543984  1
  Si  Si642  1  0.185408  0.936847  0.543929  1
  Si  Si643  1  0.712785  0.817657  0.562224  1
  Si  Si644  1  0.287084  0.817679  0.562203  1
  Si  Si645  1  0.808848  0.695111  0.544872  1
  Si  Si646  1  0.190997  0.695161  0.544849  1
  Si  Si647  1  0.000000  0.693189  0.566522  1
  Si  Si648  1  0.499928  0.569323  0.572716  1
  Si  Si649  1  0.387556  0.268940  0.507517  1
  Si  Si650  1  0.785263  0.427291  0.562179  1
  Si  Si651  1  0.214649  0.427355  0.562193  1
  Si  Si652  1  0.685555  0.063032  0.543889  1
  Si  Si653  1  0.314237  0.062693  0.544087  1
  Si  Si654  1  0.787162  0.182154  0.562197  1
  Si  Si655  1  0.212673  0.182189  0.562223  1
  Si  Si656  1  0.691033  0.304594  0.544804  1
  Si  Si657  1  0.308829  0.304633  0.544827  1
  Si  Si658  1  0.499970  0.307461  0.566448  1
  Si  Si659  1  0.000000  0.430729  0.572673  1
  Si  Si660  1  0.500174  0.054156  0.566936  1
  Si  Si661  1  0.000000  0.181435  0.573746  1
  Si  Si662  1  0.611617  0.115435  0.507413  1
  Si  Si663  1  0.388319  0.115456  0.507629  1
  Si  Si664  1  0.612374  0.268922  0.507477  1
  Si  Si665  1  0.499984  0.818645  0.441303  1
  Si  Si666  1  -0.000000  0.819183  0.425069  1
  Si  Si667  1  0.499760  0.945703  0.418333  1
  Si  Si668  1  0.714722  0.572532  0.452850  1
  Si  Si669  1  0.285260  0.572537  0.452840  1
  Si  Si670  1  0.214638  0.572471  0.413590  1
  Si  Si671  1  0.785392  0.572455  0.413603  1
  Si  Si672  1  0.814529  0.936913  0.471052  1
  Si  Si673  1  0.185673  0.937208  0.470985  1
  Si  Si674  1  0.314443  0.936845  0.395276  1
  Si  Si675  1  0.685646  0.937211  0.395477  1
  Si  Si676  1  0.712765  0.817663  0.452829  1
  Si  Si677  1  0.287195  0.817730  0.452822  1
  Si  Si678  1  0.212862  0.817712  0.413581  1
  Si  Si679  1  0.787205  0.817691  0.413599  1
  Si  Si680  1  0.808976  0.695238  0.470216  1
  Si  Si681  1  0.191016  0.695260  0.470198  1
  Si  Si682  1  0.308848  0.695181  0.396199  1
  Si  Si683  1  0.691185  0.695170  0.396219  1
  Si  Si684  1  -0.000000  0.692841  0.448540  1
  Si  Si685  1  0.499981  0.692284  0.417832  1
  Si  Si686  1  0.000000  0.569280  0.424149  1
  Si  Si687  1  0.499997  0.569350  0.442360  1
  Si  Si688  1  0.000000  0.946183  0.448062  1
  Si  Si689  1  0.499748  0.053598  0.448082  1
  Si  Si690  1  0.499975  0.180548  0.425025  1
  Si  Si691  1  -0.000000  0.181083  0.441333  1
  Si  Si692  1  0.285358  0.427550  0.413601  1
  Si  Si693  1  0.714621  0.427548  0.413590  1
  Si  Si694  1  0.785272  0.427468  0.452839  1
  Si  Si695  1  0.214749  0.427461  0.452852  1
  Si  Si696  1  0.185722  0.062783  0.395376  1
  Si  Si697  1  0.814489  0.063066  0.395308  1
  Si  Si698  1  0.685613  0.062707  0.470945  1
  Si  Si699  1  0.314451  0.063090  0.471145  1
  Si  Si700  1  0.287127  0.182181  0.413584  1
  Si  Si701  1  0.712808  0.182228  0.413574  1
  Si  Si702  1  0.787217  0.182198  0.452811  1
  Si  Si703  1  0.212812  0.182197  0.452833  1
  Si  Si704  1  0.191152  0.304787  0.396241  1
  Si  Si705  1  0.808812  0.304795  0.396222  1
  Si  Si706  1  0.691029  0.304693  0.470166  1
  Si  Si707  1  0.308990  0.304692  0.470187  1
  Si  Si708  1  0.000000  0.307470  0.417854  1
  Si  Si709  1  0.499973  0.306900  0.448510  1
  Si  Si710  1  -0.000000  0.430483  0.442365  1
  Si  Si711  1  0.499995  0.430561  0.424142  1
  Si  Si712  1  -0.000000  0.054067  0.418306  1
  Si  Si713  1  0.214632  0.572274  0.304212  1
  Si  Si714  1  0.785293  0.572327  0.304226  1
  Si  Si715  1  0.314382  0.937180  0.322348  1
  Si  Si716  1  0.685413  0.936833  0.322545  1
  Si  Si717  1  0.212768  0.817672  0.304225  1
  Si  Si718  1  0.787030  0.817673  0.304257  1
  Si  Si719  1  0.308820  0.695072  0.321558  1
  Si  Si720  1  0.691001  0.695080  0.321578  1
  Si  Si721  1  0.499942  0.692842  0.299912  1
  Si  Si722  1  -0.000000  0.569502  0.293677  1
  Si  Si723  1  0.500176  0.946284  0.299473  1
  Si  Si724  1  0.000000  0.819548  0.292803  1
  Si  Si725  1  0.388327  0.884332  0.358807  1
  Si  Si726  1  0.611618  0.884354  0.359024  1
  Si  Si727  1  0.387552  0.730849  0.358869  1
  Si  Si728  1  0.612406  0.730871  0.358906  1
  Si  Si729  1  0.112367  0.268961  0.358939  1
  Si  Si730  1  0.887535  0.269023  0.358908  1
  Si  Si731  1  0.285287  0.427287  0.304230  1
  Si  Si732  1  0.714603  0.427353  0.304215  1
  Si  Si733  1  0.185327  0.062896  0.322437  1
  Si  Si734  1  0.814217  0.062719  0.322379  1
  Si  Si735  1  0.287145  0.182161  0.304234  1
  Si  Si736  1  0.712704  0.182167  0.304213  1
  Si  Si737  1  0.191021  0.304635  0.321616  1
  Si  Si738  1  0.808814  0.304673  0.321592  1
  Si  Si739  1  -0.000000  0.307810  0.299973  1
  Si  Si740  1  0.499927  0.430522  0.293710  1
  Si  Si741  1  0.000000  0.054333  0.299442  1
  Si  Si742  1  0.499911  0.181156  0.292720  1
  Si  Si743  1  0.111547  0.115470  0.358925  1
  Si  Si744  1  0.888254  0.115539  0.358830  1
  Si  Si745  1  0.499984  0.818645  0.738522  1
  Si  Si746  1  0.000000  0.819183  0.722288  1
  Si  Si747  1  0.499760  0.945703  0.715552  1
  Si  Si748  1  0.714722  0.572532  0.750070  1
  Si  Si749  1  0.285260  0.572537  0.750059  1
  Si  Si750  1  0.214638  0.572471  0.710809  1
  Si  Si751  1  0.785392  0.572455  0.710823  1
  Si  Si752  1  0.814529  0.936913  0.768271  1
  Si  Si753  1  0.185673  0.937208  0.768204  1
  Si  Si754  1  0.314443  0.936845  0.692496  1
  Si  Si755  1  0.685646  0.937211  0.692697  1
  Si  Si756  1  0.712765  0.817663  0.750048  1
  Si  Si757  1  0.287195  0.817730  0.750041  1
  Si  Si758  1  0.212862  0.817712  0.710800  1
  Si  Si759  1  0.787205  0.817691  0.710819  1
  Si  Si760  1  0.808976  0.695238  0.767436  1
  Si  Si761  1  0.191016  0.695260  0.767417  1
  Si  Si762  1  0.308848  0.695181  0.693418  1
  Si  Si763  1  0.691185  0.695170  0.693438  1
  Si  Si764  1  0.000000  0.692841  0.745759  1
  Si  Si765  1  0.499981  0.692284  0.715051  1
  Si  Si766  1  -0.000000  0.569280  0.721368  1
  Si  Si767  1  0.499997  0.569350  0.739579  1
  Si  Si768  1  0.000000  0.946183  0.745282  1
  Si  Si769  1  0.499748  0.053598  0.745301  1
  Si  Si770  1  0.499975  0.180548  0.722245  1
  Si  Si771  1  0.000000  0.181083  0.738553  1
  Si  Si772  1  0.285358  0.427550  0.710820  1
  Si  Si773  1  0.714621  0.427548  0.710810  1
  Si  Si774  1  0.785272  0.427468  0.750058  1
  Si  Si775  1  0.214749  0.427461  0.750071  1
  Si  Si776  1  0.185722  0.062783  0.692596  1
  Si  Si777  1  0.814489  0.063066  0.692527  1
  Si  Si778  1  0.685613  0.062707  0.768165  1
  Si  Si779  1  0.314451  0.063090  0.768364  1
  Si  Si780  1  0.287127  0.182181  0.710803  1
  Si  Si781  1  0.712808  0.182228  0.710793  1
  Si  Si782  1  0.787217  0.182198  0.750030  1
  Si  Si783  1  0.212812  0.182197  0.750052  1
  Si  Si784  1  0.191152  0.304787  0.693461  1
  Si  Si785  1  0.808812  0.304795  0.693441  1
  Si  Si786  1  0.691029  0.304693  0.767385  1
  Si  Si787  1  0.308990  0.304692  0.767407  1
  Si  Si788  1  -0.000000  0.307470  0.715073  1
  Si  Si789  1  0.499973  0.306900  0.745729  1
  Si  Si790  1  -0.000000  0.430483  0.739585  1
  Si  Si791  1  0.499995  0.430561  0.721361  1
  Si  Si792  1  0.000000  0.054067  0.715525  1
  Si  Si793  1  0.214632  0.572274  0.601432  1
  Si  Si794  1  0.785293  0.572327  0.601445  1
  Si  Si795  1  0.314382  0.937180  0.619567  1
  Si  Si796  1  0.685413  0.936833  0.619764  1
  Si  Si797  1  0.212768  0.817672  0.601445  1
  Si  Si798  1  0.787030  0.817673  0.601477  1
  Si  Si799  1  0.308820  0.695072  0.618778  1
  Si  Si800  1  0.691001  0.695080  0.618798  1
  Si  Si801  1  0.499942  0.692842  0.597132  1
  Si  Si802  1  0.000000  0.569502  0.590896  1
  Si  Si803  1  0.500176  0.946284  0.596693  1
  Si  Si804  1  -0.000000  0.819548  0.590023  1
  Si  Si805  1  0.388327  0.884332  0.656026  1
  Si  Si806  1  0.611618  0.884354  0.656243  1
  Si  Si807  1  0.387552  0.730849  0.656088  1
  Si  Si808  1  0.612406  0.730871  0.656125  1
  Si  Si809  1  0.112367  0.268961  0.656159  1
  Si  Si810  1  0.887535  0.269023  0.656127  1
  Si  Si811  1  0.285287  0.427287  0.601449  1
  Si  Si812  1  0.714603  0.427353  0.601434  1
  Si  Si813  1  0.185327  0.062896  0.619656  1
  Si  Si814  1  0.814217  0.062719  0.619599  1
  Si  Si815  1  0.287145  0.182161  0.601453  1
  Si  Si816  1  0.712704  0.182167  0.601432  1
  Si  Si817  1  0.191021  0.304635  0.618836  1
  Si  Si818  1  0.808814  0.304673  0.618812  1
  Si  Si819  1  0.000000  0.307810  0.597193  1
  Si  Si820  1  0.499927  0.430522  0.590929  1
  Si  Si821  1  0.000000  0.054333  0.596661  1
  Si  Si822  1  0.499911  0.181156  0.589940  1
  Si  Si823  1  0.111547  0.115470  0.656144  1
  Si  Si824  1  0.888254  0.115539  0.656049  1
  H  H825  1  0.343274  0.913056  0.066991  1
  H  H826  1  0.655443  0.913338  0.067277  1
  H  H827  1  0.336395  0.703509  0.066792  1
  H  H828  1  0.663445  0.703245  0.066811  1
  H  H829  1  0.155835  0.086443  0.067136  1
  H  H830  1  0.843403  0.086788  0.067025  1
  H  H831  1  0.163505  0.296523  0.066839  1
  H  H832  1  0.836388  0.296459  0.066818  1
  H  H833  1  0.843775  0.913027  0.799301  1
  H  H834  1  0.155483  0.913392  0.799193  1
  H  H835  1  0.836562  0.703425  0.799625  1
  H  H836  1  0.163363  0.703387  0.799606  1
  H  H837  1  0.655353  0.086502  0.799148  1
  H  H838  1  0.343349  0.086781  0.799433  1
  H  H839  1  0.663366  0.296536  0.799571  1
  H  H840  1  0.336484  0.296292  0.799592  1
