# generated using pymatgen
data_Si12H2O25
_symmetry_space_group_name_H-M   'P 1'
_cell_length_a   12.56904554
_cell_length_b   24.35339409
_cell_length_c   45.07262187
_cell_angle_alpha   114.80776686
_cell_angle_beta   90.00000000
_cell_angle_gamma   90.00000000
_symmetry_Int_Tables_number   1
_chemical_formula_structural   Si12H2O25
_chemical_formula_sum   'Si96 H16 O200'
_cell_volume   12523.5315599
_cell_formula_units_Z   8
loop_
 _symmetry_equiv_pos_site_id
 _symmetry_equiv_pos_as_xyz
  1  'x, y, z'
loop_
 _atom_site_type_symbol
 _atom_site_label
 _atom_site_symmetry_multiplicity
 _atom_site_fract_x
 _atom_site_fract_y
 _atom_site_fract_z
 _atom_site_occupancy
  O  O1  1  0.396274  0.335710  0.142178  1
  O  O2  1  0.103521  0.335711  0.142178  1
  O  O3  1  0.603517  0.835709  0.142177  1
  O  O4  1  0.896272  0.835711  0.142178  1
  O  O5  1  0.440798  0.054425  0.212817  1
  O  O6  1  0.440800  0.054426  0.340717  1
  O  O7  1  0.058986  0.054428  0.212817  1
  O  O8  1  0.058989  0.054426  0.340718  1
  O  O9  1  0.389368  0.140762  0.267522  1
  O  O10  1  0.389367  0.140762  0.325156  1
  O  O11  1  0.110421  0.140761  0.267523  1
  O  O12  1  0.110421  0.140760  0.325157  1
  O  O13  1  0.396272  0.164379  0.216687  1
  O  O14  1  0.396272  0.164381  0.159997  1
  O  O15  1  0.103520  0.164384  0.216689  1
  O  O16  1  0.103521  0.164381  0.159998  1
  O  O17  1  0.249893  0.099135  0.223415  1
  O  O18  1  0.249895  0.099134  0.350391  1
  O  O19  1  0.061689  0.234787  0.317656  1
  O  O20  1  0.438107  0.234788  0.317655  1
  O  O21  1  0.438113  0.265302  0.211222  1
  O  O22  1  0.061686  0.265306  0.211222  1
  O  O23  1  0.249898  0.281799  0.328313  1
  O  O24  1  0.249898  0.218295  0.200565  1
  O  O25  1  0.058994  0.445666  0.316062  1
  O  O26  1  0.058995  0.445667  0.188160  1
  O  O27  1  0.440800  0.445664  0.316060  1
  O  O28  1  0.440802  0.445663  0.188161  1
  O  O29  1  0.110420  0.359331  0.261355  1
  O  O30  1  0.110420  0.359332  0.203722  1
  O  O31  1  0.389377  0.359328  0.261355  1
  O  O32  1  0.389377  0.359328  0.203722  1
  O  O33  1  0.249897  0.400955  0.305462  1
  O  O34  1  0.249898  0.400956  0.178488  1
  O  O35  1  0.440725  0.630362  0.293982  1
  O  O36  1  0.059068  0.630365  0.293983  1
  O  O37  1  0.086266  0.530828  0.244137  1
  O  O38  1  0.086267  0.530828  0.298698  1
  O  O39  1  0.413531  0.530825  0.244137  1
  O  O40  1  0.413530  0.530825  0.298697  1
  O  O41  1  0.249898  0.577633  0.282028  1
  O  O42  1  0.396274  0.335710  0.368881  1
  O  O43  1  0.103521  0.335710  0.312189  1
  O  O44  1  0.103521  0.335711  0.368880  1
  O  O45  1  0.396274  0.335711  0.312190  1
  O  O46  1  0.059066  0.869730  0.234896  1
  O  O47  1  0.440721  0.869728  0.234896  1
  O  O48  1  0.413528  0.969265  0.284741  1
  O  O49  1  0.413529  0.969266  0.230182  1
  O  O50  1  0.086259  0.969267  0.284741  1
  O  O51  1  0.086259  0.969268  0.230182  1
  O  O52  1  0.249893  0.922462  0.246850  1
  O  O53  1  0.940720  0.130365  0.293983  1
  O  O54  1  0.559068  0.130364  0.293982  1
  O  O55  1  0.586260  0.030826  0.244137  1
  O  O56  1  0.586260  0.030826  0.298696  1
  O  O57  1  0.913526  0.030827  0.244138  1
  O  O58  1  0.913527  0.030827  0.298697  1
  O  O59  1  0.749894  0.077632  0.282028  1
  O  O60  1  0.940805  0.554429  0.212816  1
  O  O61  1  0.940805  0.554428  0.340719  1
  O  O62  1  0.558991  0.554424  0.212816  1
  O  O63  1  0.558990  0.554425  0.340718  1
  O  O64  1  0.889366  0.640760  0.267523  1
  O  O65  1  0.889367  0.640760  0.325157  1
  O  O66  1  0.610425  0.640757  0.267522  1
  O  O67  1  0.610425  0.640757  0.325156  1
  O  O68  1  0.749896  0.599134  0.223413  1
  O  O69  1  0.749896  0.599133  0.350392  1
  O  O70  1  0.559080  0.369727  0.234896  1
  O  O71  1  0.940722  0.369731  0.234896  1
  O  O72  1  0.913537  0.469270  0.284742  1
  O  O73  1  0.913536  0.469270  0.230182  1
  O  O74  1  0.586264  0.469266  0.284741  1
  O  O75  1  0.586264  0.469266  0.230182  1
  O  O76  1  0.749902  0.422468  0.246852  1
  O  O77  1  0.603517  0.664381  0.159998  1
  O  O78  1  0.603517  0.664381  0.216688  1
  O  O79  1  0.896270  0.664385  0.216690  1
  O  O80  1  0.896270  0.664383  0.159999  1
  O  O81  1  0.558989  0.945665  0.316061  1
  O  O82  1  0.558987  0.945665  0.188160  1
  O  O83  1  0.940799  0.945666  0.316062  1
  O  O84  1  0.940797  0.945668  0.188161  1
  O  O85  1  0.610423  0.859332  0.261356  1
  O  O86  1  0.610422  0.859331  0.203722  1
  O  O87  1  0.889365  0.859334  0.261356  1
  O  O88  1  0.889364  0.859334  0.203722  1
  O  O89  1  0.603518  0.835709  0.312189  1
  O  O90  1  0.603517  0.835709  0.368880  1
  O  O91  1  0.896272  0.835709  0.312189  1
  O  O92  1  0.896272  0.835711  0.368880  1
  O  O93  1  0.749894  0.900957  0.305465  1
  O  O94  1  0.749892  0.900957  0.178486  1
  O  O95  1  0.561690  0.734784  0.317655  1
  O  O96  1  0.938104  0.734786  0.317656  1
  O  O97  1  0.938100  0.765308  0.211223  1
  O  O98  1  0.561684  0.765305  0.211223  1
  O  O99  1  0.749896  0.781797  0.328313  1
  O  O100  1  0.749892  0.718295  0.200565  1
  O  O101  1  0.440798  0.054425  0.439519  1
  O  O102  1  0.440800  0.054426  0.567420  1
  O  O103  1  0.058986  0.054428  0.439520  1
  O  O104  1  0.058989  0.054426  0.567421  1
  O  O105  1  0.389368  0.140762  0.494225  1
  O  O106  1  0.389367  0.140762  0.551859  1
  O  O107  1  0.110421  0.140761  0.494226  1
  O  O108  1  0.110421  0.140760  0.551859  1
  O  O109  1  0.396272  0.164379  0.443390  1
  O  O110  1  0.396272  0.164381  0.386700  1
  O  O111  1  0.103520  0.164384  0.443392  1
  O  O112  1  0.103521  0.164381  0.386701  1
  O  O113  1  0.249893  0.099135  0.450117  1
  O  O114  1  0.249895  0.099134  0.577093  1
  O  O115  1  0.061689  0.234787  0.544358  1
  O  O116  1  0.438107  0.234788  0.544358  1
  O  O117  1  0.438113  0.265302  0.437925  1
  O  O118  1  0.061686  0.265306  0.437925  1
  O  O119  1  0.249898  0.281799  0.555016  1
  O  O120  1  0.249898  0.218295  0.427268  1
  O  O121  1  0.058994  0.445666  0.542764  1
  O  O122  1  0.058995  0.445667  0.414863  1
  O  O123  1  0.440800  0.445664  0.542763  1
  O  O124  1  0.440802  0.445663  0.414863  1
  O  O125  1  0.110420  0.359331  0.488058  1
  O  O126  1  0.110420  0.359332  0.430424  1
  O  O127  1  0.389377  0.359328  0.488057  1
  O  O128  1  0.389377  0.359328  0.430424  1
  O  O129  1  0.249897  0.400955  0.532164  1
  O  O130  1  0.249898  0.400956  0.405191  1
  O  O131  1  0.440725  0.630362  0.520685  1
  O  O132  1  0.059068  0.630365  0.520686  1
  O  O133  1  0.086266  0.530828  0.470840  1
  O  O134  1  0.086267  0.530828  0.525400  1
  O  O135  1  0.413531  0.530825  0.470840  1
  O  O136  1  0.413530  0.530825  0.525399  1
  O  O137  1  0.249898  0.577633  0.508731  1
  O  O138  1  0.396274  0.335710  0.595583  1
  O  O139  1  0.103521  0.335710  0.538892  1
  O  O140  1  0.103521  0.335711  0.595583  1
  O  O141  1  0.396274  0.335711  0.538893  1
  O  O142  1  0.059066  0.869730  0.461598  1
  O  O143  1  0.440721  0.869728  0.461598  1
  O  O144  1  0.413528  0.969265  0.511443  1
  O  O145  1  0.413529  0.969266  0.456884  1
  O  O146  1  0.086259  0.969267  0.511444  1
  O  O147  1  0.086259  0.969268  0.456884  1
  O  O148  1  0.249893  0.922462  0.473553  1
  O  O149  1  0.940720  0.130365  0.520686  1
  O  O150  1  0.559068  0.130364  0.520685  1
  O  O151  1  0.586260  0.030826  0.470840  1
  O  O152  1  0.586260  0.030826  0.525399  1
  O  O153  1  0.913526  0.030827  0.470840  1
  O  O154  1  0.913527  0.030827  0.525400  1
  O  O155  1  0.749894  0.077632  0.508731  1
  O  O156  1  0.940805  0.554429  0.439519  1
  O  O157  1  0.940805  0.554428  0.567422  1
  O  O158  1  0.558991  0.554424  0.439518  1
  O  O159  1  0.558990  0.554425  0.567421  1
  O  O160  1  0.889366  0.640760  0.494225  1
  O  O161  1  0.889367  0.640760  0.551859  1
  O  O162  1  0.610425  0.640757  0.494224  1
  O  O163  1  0.610425  0.640757  0.551858  1
  O  O164  1  0.749896  0.599134  0.450115  1
  O  O165  1  0.749896  0.599133  0.577095  1
  O  O166  1  0.559080  0.369727  0.461598  1
  O  O167  1  0.940722  0.369731  0.461599  1
  O  O168  1  0.913537  0.469270  0.511444  1
  O  O169  1  0.913536  0.469270  0.456884  1
  O  O170  1  0.586264  0.469266  0.511444  1
  O  O171  1  0.586264  0.469266  0.456884  1
  O  O172  1  0.749902  0.422468  0.473555  1
  O  O173  1  0.603517  0.664381  0.386700  1
  O  O174  1  0.603517  0.664381  0.443391  1
  O  O175  1  0.896270  0.664385  0.443392  1
  O  O176  1  0.896270  0.664383  0.386701  1
  O  O177  1  0.558989  0.945665  0.542764  1
  O  O178  1  0.558987  0.945665  0.414863  1
  O  O179  1  0.940799  0.945666  0.542764  1
  O  O180  1  0.940797  0.945668  0.414863  1
  O  O181  1  0.610423  0.859332  0.488058  1
  O  O182  1  0.610422  0.859331  0.430424  1
  O  O183  1  0.889365  0.859334  0.488059  1
  O  O184  1  0.889364  0.859334  0.430425  1
  O  O185  1  0.603518  0.835709  0.538892  1
  O  O186  1  0.603517  0.835709  0.595582  1
  O  O187  1  0.896272  0.835709  0.538892  1
  O  O188  1  0.896272  0.835711  0.595583  1
  O  O189  1  0.749894  0.900957  0.532167  1
  O  O190  1  0.749892  0.900957  0.405188  1
  O  O191  1  0.561690  0.734784  0.544357  1
  O  O192  1  0.938104  0.734786  0.544358  1
  O  O193  1  0.938100  0.765308  0.437926  1
  O  O194  1  0.561684  0.765305  0.437926  1
  O  O195  1  0.749896  0.781797  0.555015  1
  O  O196  1  0.749892  0.718295  0.427268  1
  O  O197  1  0.396272  0.164381  0.613402  1
  O  O198  1  0.103521  0.164381  0.613403  1
  O  O199  1  0.603517  0.664381  0.613403  1
  O  O200  1  0.896270  0.664383  0.613404  1
  Si  Si201  1  0.499895  -0.000000  0.312280  1
  Si  Si202  1  0.373011  0.203911  0.197304  1
  Si  Si203  1  0.126785  0.203913  0.197305  1
  Si  Si204  1  0.126785  0.296180  0.331573  1
  Si  Si205  1  0.371879  0.114642  0.229474  1
  Si  Si206  1  0.371880  0.114643  0.351362  1
  Si  Si207  1  0.127908  0.114644  0.229474  1
  Si  Si208  1  0.127910  0.114643  0.351363  1
  Si  Si209  1  0.052637  0.163572  0.301511  1
  Si  Si210  1  0.447153  0.163573  0.301511  1
  Si  Si211  1  0.373011  0.296181  0.331574  1
  Si  Si212  1  0.499894  0.000000  0.216597  1
  Si  Si213  1  0.127911  0.385449  0.299404  1
  Si  Si214  1  0.127912  0.385450  0.177515  1
  Si  Si215  1  0.371882  0.385447  0.299403  1
  Si  Si216  1  0.371883  0.385447  0.177516  1
  Si  Si217  1  0.447165  0.336517  0.227367  1
  Si  Si218  1  0.052636  0.336521  0.227367  1
  Si  Si219  1  0.125806  0.569139  0.280103  1
  Si  Si220  1  0.373989  0.569136  0.280102  1
  Si  Si221  1  0.499897  0.500044  0.216597  1
  Si  Si222  1  0.499896  0.500045  0.312281  1
  Si  Si223  1  0.373986  0.930955  0.248776  1
  Si  Si224  1  0.125801  0.930957  0.248776  1
  Si  Si225  1  0.625802  0.069137  0.280102  1
  Si  Si226  1  0.873985  0.069138  0.280103  1
  Si  Si227  1  -0.000000  0.000000  0.312281  1
  Si  Si228  1  -0.000000  -0.000000  0.216598  1
  Si  Si229  1  0.871881  0.614644  0.229474  1
  Si  Si230  1  0.871881  0.614643  0.351364  1
  Si  Si231  1  0.627911  0.614641  0.229473  1
  Si  Si232  1  0.627911  0.614641  0.351363  1
  Si  Si233  1  0.552642  0.663569  0.301510  1
  Si  Si234  1  0.947151  0.663571  0.301511  1
  Si  Si235  1  0.873993  0.430961  0.248777  1
  Si  Si236  1  0.625809  0.430956  0.248776  1
  Si  Si237  1  -0.000000  0.500048  0.312282  1
  Si  Si238  1  0.000000  0.500049  0.216597  1
  Si  Si239  1  0.873005  0.703914  0.197305  1
  Si  Si240  1  0.626779  0.703912  0.197305  1
  Si  Si241  1  0.626782  0.796178  0.331573  1
  Si  Si242  1  0.873009  0.796180  0.331573  1
  Si  Si243  1  0.627909  0.885449  0.299405  1
  Si  Si244  1  0.627908  0.885448  0.177514  1
  Si  Si245  1  0.871879  0.885449  0.299405  1
  Si  Si246  1  0.871878  0.885451  0.177515  1
  Si  Si247  1  0.947149  0.836523  0.227368  1
  Si  Si248  1  0.552638  0.836521  0.227368  1
  Si  Si249  1  0.499895  0.000000  0.538983  1
  Si  Si250  1  0.373011  0.203911  0.424007  1
  Si  Si251  1  0.126785  0.203913  0.424008  1
  Si  Si252  1  0.126785  0.296180  0.558276  1
  Si  Si253  1  0.371879  0.114642  0.456176  1
  Si  Si254  1  0.371880  0.114643  0.578065  1
  Si  Si255  1  0.127908  0.114644  0.456177  1
  Si  Si256  1  0.127910  0.114643  0.578066  1
  Si  Si257  1  0.052637  0.163572  0.528214  1
  Si  Si258  1  0.447153  0.163573  0.528213  1
  Si  Si259  1  0.373011  0.296181  0.558276  1
  Si  Si260  1  0.499894  0.000000  0.443300  1
  Si  Si261  1  0.127911  0.385449  0.526106  1
  Si  Si262  1  0.127912  0.385450  0.404218  1
  Si  Si263  1  0.371882  0.385447  0.526105  1
  Si  Si264  1  0.371883  0.385447  0.404218  1
  Si  Si265  1  0.447165  0.336517  0.454069  1
  Si  Si266  1  0.052636  0.336521  0.454070  1
  Si  Si267  1  0.125806  0.569139  0.506805  1
  Si  Si268  1  0.373989  0.569136  0.506804  1
  Si  Si269  1  0.499897  0.500044  0.443300  1
  Si  Si270  1  0.499896  0.500045  0.538983  1
  Si  Si271  1  0.373986  0.930955  0.475479  1
  Si  Si272  1  0.125801  0.930957  0.475479  1
  Si  Si273  1  0.625802  0.069137  0.506805  1
  Si  Si274  1  0.873985  0.069138  0.506805  1
  Si  Si275  1  0.000000  -0.000000  0.538983  1
  Si  Si276  1  0.000000  0.000000  0.443300  1
  Si  Si277  1  0.871881  0.614644  0.456176  1
  Si  Si278  1  0.871881  0.614643  0.578067  1
  Si  Si279  1  0.627911  0.614641  0.456176  1
  Si  Si280  1  0.627911  0.614641  0.578066  1
  Si  Si281  1  0.552642  0.663569  0.528213  1
  Si  Si282  1  0.947151  0.663571  0.528214  1
  Si  Si283  1  0.873993  0.430961  0.475480  1
  Si  Si284  1  0.625809  0.430956  0.475479  1
  Si  Si285  1  0.000000  0.500048  0.538985  1
  Si  Si286  1  0.000000  0.500049  0.443300  1
  Si  Si287  1  0.873005  0.703914  0.424008  1
  Si  Si288  1  0.626779  0.703912  0.424007  1
  Si  Si289  1  0.626782  0.796178  0.558275  1
  Si  Si290  1  0.873009  0.796180  0.558276  1
  Si  Si291  1  0.627909  0.885449  0.526107  1
  Si  Si292  1  0.627908  0.885448  0.404217  1
  Si  Si293  1  0.871879  0.885449  0.526107  1
  Si  Si294  1  0.871878  0.885451  0.404217  1
  Si  Si295  1  0.947149  0.836523  0.454070  1
  Si  Si296  1  0.552638  0.836521  0.454070  1
  H  H297  1  0.396274  0.335710  0.122210  1
  H  H298  1  0.103521  0.335711  0.122210  1
  H  H299  1  0.603517  0.835709  0.122210  1
  H  H300  1  0.896272  0.835711  0.122210  1
  H  H301  1  0.396272  0.164381  0.140029  1
  H  H302  1  0.103521  0.164381  0.140030  1
  H  H303  1  0.603517  0.664381  0.140030  1
  H  H304  1  0.896270  0.664383  0.140031  1
  H  H305  1  0.396274  0.335710  0.615551  1
  H  H306  1  0.103521  0.335711  0.615551  1
  H  H307  1  0.603517  0.835709  0.615550  1
  H  H308  1  0.896272  0.835711  0.615551  1
  H  H309  1  0.396272  0.164381  0.633370  1
  H  H310  1  0.103521  0.164381  0.633371  1
  H  H311  1  0.603517  0.664381  0.633371  1
  H  H312  1  0.896270  0.664383  0.633371  1
