# generated using pymatgen
data_Si6H2O13
_symmetry_space_group_name_H-M   'P 1'
_cell_length_a   17.29992123
_cell_length_b   17.30415519
_cell_length_c   30.73997573
_cell_angle_alpha   90.00000000
_cell_angle_beta   90.00000000
_cell_angle_gamma   120.00000000
_symmetry_Int_Tables_number   1
_chemical_formula_structural   Si6H2O13
_chemical_formula_sum   'Si36 H12 O78'
_cell_volume   7969.45603393
_cell_formula_units_Z   6
loop_
 _symmetry_equiv_pos_site_id
 _symmetry_equiv_pos_as_xyz
  1  'x, y, z'
loop_
 _atom_site_type_symbol
 _atom_site_label
 _atom_site_symmetry_multiplicity
 _atom_site_fract_x
 _atom_site_fract_y
 _atom_site_fract_z
 _atom_site_occupancy
  O  O1  1  0.049223  0.524808  0.248426  1
  O  O2  1  0.473917  0.525461  0.248466  1
  O  O3  1  0.473211  0.949403  0.248514  1
  O  O4  1  0.433818  0.356472  0.482745  1
  O  O5  1  0.433321  0.078452  0.482734  1
  O  O6  1  0.077349  0.434367  0.191932  1
  O  O7  1  0.354811  0.921405  0.191962  1
  O  O8  1  0.355525  0.434948  0.191958  1
  O  O9  1  0.077261  0.643347  0.191947  1
  O  O10  1  0.066637  0.635463  0.430833  1
  O  O11  1  0.363280  0.432193  0.430897  1
  O  O12  1  0.362761  0.932124  0.430872  1
  O  O13  1  0.066661  0.431741  0.430863  1
  O  O14  1  0.430569  0.067734  0.243826  1
  O  O15  1  0.431076  0.364363  0.243855  1
  O  O16  1  0.403277  0.319671  0.399662  1
  O  O17  1  0.402530  0.084602  0.399661  1
  O  O18  1  0.083509  0.403860  0.275022  1
  O  O19  1  0.317857  0.915252  0.275036  1
  O  O20  1  0.318568  0.404457  0.275066  1
  O  O21  1  0.083543  0.680165  0.275031  1
  O  O22  1  0.295529  0.296706  0.337379  1
  O  O23  1  0.294728  0.000000  0.337352  1
  O  O24  1  0.446812  0.320028  0.319434  1
  O  O25  1  0.446180  0.127692  0.319429  1
  O  O26  1  0.126668  0.447584  0.355275  1
  O  O27  1  0.318432  0.872177  0.355268  1
  O  O28  1  0.318981  0.448004  0.355306  1
  O  O29  1  0.126705  0.679799  0.355255  1
  O  O30  1  0.340924  0.171237  0.354944  1
  O  O31  1  0.170135  0.342267  0.319768  1
  O  O32  1  0.169616  0.828606  0.319753  1
  O  O33  1  0.480042  0.240618  0.259139  1
  O  O34  1  0.239567  0.481238  0.415605  1
  O  O35  1  0.239358  0.759224  0.415555  1
  O  O36  1  0.175617  0.588168  0.402042  1
  O  O37  1  0.410598  0.588524  0.402129  1
  O  O38  1  0.410195  0.823195  0.401960  1
  O  O39  1  0.948360  0.474374  0.426223  1
  O  O40  1  0.524326  0.475042  0.426268  1
  O  O41  1  0.523728  0.050440  0.426183  1
  O  O42  1  0.920500  0.564889  0.482732  1
  O  O43  1  0.642212  0.078186  0.482707  1
  O  O44  1  0.642915  0.565491  0.482758  1
  O  O45  1  0.920337  0.355827  0.482722  1
  O  O46  1  0.564453  0.644049  0.191971  1
  O  O47  1  0.563959  0.921652  0.191991  1
  O  O48  1  0.566438  0.932122  0.430806  1
  O  O49  1  0.567015  0.636031  0.430938  1
  O  O50  1  0.930905  0.363827  0.243757  1
  O  O51  1  0.634854  0.568129  0.243825  1
  O  O52  1  0.634233  0.067708  0.243892  1
  O  O53  1  0.930994  0.567622  0.243799  1
  O  O54  1  0.914008  0.595362  0.399624  1
  O  O55  1  0.679154  0.084631  0.399636  1
  O  O56  1  0.679567  0.596004  0.399668  1
  O  O57  1  0.914081  0.319151  0.399600  1
  O  O58  1  0.594871  0.680696  0.275091  1
  O  O59  1  0.594442  0.915202  0.275060  1
  O  O60  1  0.998735  0.703117  0.337316  1
  O  O61  1  0.677278  0.000000  0.337345  1
  O  O62  1  0.702592  0.703695  0.337364  1
  O  O63  1  0.870875  0.551821  0.319390  1
  O  O64  1  0.678733  0.127785  0.319441  1
  O  O65  1  0.678999  0.552274  0.319412  1
  O  O66  1  0.870942  0.319666  0.319347  1
  O  O67  1  0.551209  0.680192  0.355350  1
  O  O68  1  0.550868  0.872034  0.355256  1
  O  O69  1  0.827780  0.657574  0.354923  1
  O  O70  1  0.827589  0.170899  0.354897  1
  O  O71  1  0.656618  0.828942  0.319796  1
  O  O72  1  0.758236  0.518602  0.259086  1
  O  O73  1  0.757945  0.240418  0.259095  1
  O  O74  1  0.517459  0.759423  0.415601  1
  O  O75  1  0.821983  0.411314  0.272569  1
  O  O76  1  0.587359  0.411678  0.272645  1
  O  O77  1  0.586916  0.176649  0.272738  1
  O  O78  1  0.998828  0.296165  0.337325  1
  Si  Si79  1  0.428589  0.392864  0.436004  1
  Si  Si80  1  0.427957  0.036784  0.435986  1
  Si  Si81  1  0.035591  0.429072  0.238651  1
  Si  Si82  1  0.391111  0.963076  0.238710  1
  Si  Si83  1  0.391795  0.429705  0.238730  1
  Si  Si84  1  0.035646  0.606962  0.238691  1
  Si  Si85  1  0.368958  0.273777  0.353912  1
  Si  Si86  1  0.368319  0.096256  0.353894  1
  Si  Si87  1  0.095190  0.369740  0.320805  1
  Si  Si88  1  0.272004  0.903612  0.320809  1
  Si  Si89  1  0.272675  0.370171  0.320827  1
  Si  Si90  1  0.095104  0.726052  0.320782  1
  Si  Si91  1  0.487453  0.332933  0.272148  1
  Si  Si92  1  0.486984  0.155462  0.272174  1
  Si  Si93  1  0.154436  0.488267  0.402554  1
  Si  Si94  1  0.331468  0.844403  0.402522  1
  Si  Si95  1  0.331895  0.488608  0.402603  1
  Si  Si96  1  0.154449  0.666895  0.402539  1
  Si  Si97  1  0.510100  0.844327  0.402518  1
  Si  Si98  1  0.961996  0.570123  0.435957  1
  Si  Si99  1  0.605832  0.036741  0.435934  1
  Si  Si100  1  0.606440  0.570785  0.436044  1
  Si  Si101  1  0.961978  0.392255  0.435980  1
  Si  Si102  1  0.569660  0.607605  0.238709  1
  Si  Si103  1  0.569012  0.963086  0.238765  1
  Si  Si104  1  0.902397  0.629653  0.353869  1
  Si  Si105  1  0.725079  0.096232  0.353887  1
  Si  Si106  1  0.725362  0.630119  0.353882  1
  Si  Si107  1  0.902441  0.273331  0.353828  1
  Si  Si108  1  0.629043  0.726523  0.320863  1
  Si  Si109  1  0.628763  0.903585  0.320805  1
  Si  Si110  1  0.843182  0.511216  0.272093  1
  Si  Si111  1  0.665671  0.155496  0.272181  1
  Si  Si112  1  0.666081  0.511592  0.272132  1
  Si  Si113  1  0.843128  0.332566  0.272075  1
  Si  Si114  1  0.510502  0.667291  0.402623  1
  H  H115  1  0.433818  0.356472  0.512023  1
  H  H116  1  0.433321  0.078452  0.512012  1
  H  H117  1  0.077349  0.434367  0.162655  1
  H  H118  1  0.354811  0.921405  0.162684  1
  H  H119  1  0.355525  0.434948  0.162680  1
  H  H120  1  0.077261  0.643347  0.162669  1
  H  H121  1  0.920500  0.564889  0.512010  1
  H  H122  1  0.642212  0.078186  0.511985  1
  H  H123  1  0.642915  0.565491  0.512036  1
  H  H124  1  0.920337  0.355827  0.512000  1
  H  H125  1  0.564453  0.644049  0.162693  1
  H  H126  1  0.563959  0.921652  0.162714  1
