# generated using pymatgen
data_Si23(HO12)4
_symmetry_space_group_name_H-M   'P 1'
_cell_length_a   13.77465444
_cell_length_b   35.19864774
_cell_length_c   41.16768621
_cell_angle_alpha   90.00000000
_cell_angle_beta   90.00000000
_cell_angle_gamma   90.00000000
_symmetry_Int_Tables_number   1
_chemical_formula_structural   Si23(HO12)4
_chemical_formula_sum   'Si184 H32 O384'
_cell_volume   19960.1201114
_cell_formula_units_Z   8
loop_
 _symmetry_equiv_pos_site_id
 _symmetry_equiv_pos_as_xyz
  1  'x, y, z'
loop_
 _atom_site_type_symbol
 _atom_site_label
 _atom_site_symmetry_multiplicity
 _atom_site_fract_x
 _atom_site_fract_y
 _atom_site_fract_z
 _atom_site_occupancy
  O  O1  1  0.399757  -0.000000  0.280442  1
  O  O2  1  0.600435  -0.000000  0.280437  1
  O  O3  1  0.100435  0.000000  0.210602  1
  O  O4  1  0.497566  0.250324  0.245215  1
  O  O5  1  0.996790  0.250151  0.245638  1
  O  O6  1  0.251073  0.108936  0.300567  1
  O  O7  1  0.249325  0.108955  0.190520  1
  O  O8  1  0.749296  0.108918  0.300570  1
  O  O9  1  0.751218  0.108879  0.190519  1
  O  O10  1  0.162952  0.075254  0.347348  1
  O  O11  1  0.337336  0.075175  0.143732  1
  O  O12  1  0.837338  0.075443  0.347528  1
  O  O13  1  0.662895  0.075557  0.143570  1
  O  O14  1  0.246201  0.036237  0.299143  1
  O  O15  1  0.254154  0.036247  0.191998  1
  O  O16  1  0.753472  0.036084  0.299890  1
  O  O17  1  0.746693  0.036064  0.191140  1
  O  O18  1  0.093211  0.074844  0.292352  1
  O  O19  1  0.407149  0.074875  0.198704  1
  O  O20  1  0.906745  0.074498  0.292476  1
  O  O21  1  0.593603  0.074576  0.198652  1
  O  O22  1  0.257024  0.181971  0.195835  1
  O  O23  1  0.257383  0.317953  0.295295  1
  O  O24  1  0.243203  0.181929  0.295344  1
  O  O25  1  0.242885  0.318036  0.195700  1
  O  O26  1  0.742824  0.317991  0.295481  1
  O  O27  1  0.742882  0.181858  0.195626  1
  O  O28  1  0.757345  0.317942  0.195708  1
  O  O29  1  0.757434  0.181938  0.295328  1
  O  O30  1  0.250146  0.140050  0.245565  1
  O  O31  1  0.750099  0.140102  0.245522  1
  O  O32  1  0.099497  0.147383  0.211337  1
  O  O33  1  0.400814  0.147443  0.279767  1
  O  O34  1  0.900601  0.147572  0.211297  1
  O  O35  1  0.599724  0.147516  0.279824  1
  O  O36  1  0.250671  0.249921  0.316976  1
  O  O37  1  0.250738  0.250029  0.174177  1
  O  O38  1  0.750673  0.249880  0.174091  1
  O  O39  1  0.750736  0.249982  0.317020  1
  O  O40  1  0.155739  0.197691  0.347147  1
  O  O41  1  0.155677  0.302127  0.143865  1
  O  O42  1  0.342762  0.197341  0.143604  1
  O  O43  1  0.343520  0.302516  0.347427  1
  O  O44  1  0.842966  0.302469  0.143446  1
  O  O45  1  0.843168  0.197348  0.347573  1
  O  O46  1  0.655538  0.302070  0.347319  1
  O  O47  1  0.656010  0.197730  0.143696  1
  O  O48  1  0.093930  0.222554  0.293130  1
  O  O49  1  0.093821  0.277353  0.197931  1
  O  O50  1  0.407876  0.221764  0.197079  1
  O  O51  1  0.407843  0.277897  0.293881  1
  O  O52  1  0.907936  0.278058  0.196979  1
  O  O53  1  0.908034  0.221855  0.294102  1
  O  O54  1  0.593822  0.277282  0.293239  1
  O  O55  1  0.593700  0.222414  0.197707  1
  O  O56  1  0.127337  0.135945  0.378473  1
  O  O57  1  0.500453  0.321280  0.255983  1
  O  O58  1  0.500445  0.178988  0.235428  1
  O  O59  1  0.899706  0.000000  0.210595  1
  O  O60  1  0.750065  0.001222  0.245510  1
  O  O61  1  0.000000  0.107392  0.248391  1
  O  O62  1  0.500608  0.107402  0.242723  1
  O  O63  1  0.000000  0.035443  0.251563  1
  O  O64  1  0.499827  0.035413  0.239465  1
  O  O65  1  -0.000000  0.178941  0.255729  1
  O  O66  1  0.000000  0.321233  0.235188  1
  O  O67  1  0.000000  0.084558  0.378681  1
  O  O68  1  0.001645  0.250706  0.511068  1
  O  O69  1  0.497942  0.249504  0.511187  1
  O  O70  1  -0.000000  0.321454  0.522281  1
  O  O71  1  0.751192  0.108933  0.566599  1
  O  O72  1  0.748995  0.108965  0.456723  1
  O  O73  1  0.249275  0.109023  0.566669  1
  O  O74  1  0.251171  0.108936  0.456690  1
  O  O75  1  0.662906  0.075358  0.613367  1
  O  O76  1  0.837467  0.075199  0.409991  1
  O  O77  1  0.337131  0.075142  0.613435  1
  O  O78  1  0.163157  0.075373  0.409845  1
  O  O79  1  0.746221  0.036207  0.565218  1
  O  O80  1  0.754053  0.036232  0.458173  1
  O  O81  1  0.253688  0.036290  0.565187  1
  O  O82  1  0.246027  0.036251  0.458072  1
  O  O83  1  0.593377  0.074839  0.558367  1
  O  O84  1  0.906799  0.074945  0.465009  1
  O  O85  1  0.406860  0.074774  0.558441  1
  O  O86  1  0.093188  0.074942  0.464845  1
  O  O87  1  0.757097  0.181997  0.461821  1
  O  O88  1  0.757355  0.317960  0.561383  1
  O  O89  1  0.742740  0.181938  0.561642  1
  O  O90  1  0.742965  0.318104  0.461721  1
  O  O91  1  0.242675  0.318070  0.561590  1
  O  O92  1  0.242820  0.181905  0.461696  1
  O  O93  1  0.257178  0.318003  0.461903  1
  O  O94  1  0.257326  0.182064  0.561409  1
  O  O95  1  0.750139  0.140293  0.511692  1
  O  O96  1  0.249887  0.140216  0.511642  1
  O  O97  1  0.599509  0.147618  0.477466  1
  O  O98  1  0.900610  0.147677  0.545983  1
  O  O99  1  0.400549  0.147651  0.477448  1
  O  O100  1  0.099579  0.147617  0.546016  1
  O  O101  1  0.750173  0.249984  0.583154  1
  O  O102  1  0.750211  0.250067  0.440250  1
  O  O103  1  0.250219  0.249965  0.440282  1
  O  O104  1  0.250271  0.250067  0.583156  1
  O  O105  1  0.655275  0.197923  0.613472  1
  O  O106  1  0.656135  0.302273  0.409747  1
  O  O107  1  0.844012  0.197706  0.409895  1
  O  O108  1  0.844323  0.302419  0.613310  1
  O  O109  1  0.342982  0.302521  0.409714  1
  O  O110  1  0.343509  0.197519  0.613509  1
  O  O111  1  0.156306  0.302314  0.613677  1
  O  O112  1  0.156948  0.197697  0.409529  1
  O  O113  1  0.593526  0.222600  0.559362  1
  O  O114  1  0.593402  0.277738  0.463740  1
  O  O115  1  0.907010  0.222213  0.463723  1
  O  O116  1  0.906958  0.277430  0.559467  1
  O  O117  1  0.407625  0.278101  0.463228  1
  O  O118  1  0.407507  0.222245  0.559921  1
  O  O119  1  0.093008  0.277656  0.559872  1
  O  O120  1  0.092783  0.221966  0.463254  1
  O  O121  1  0.000000  0.186193  0.378600  1
  O  O122  1  0.499820  0.313817  0.378680  1
  O  O123  1  0.873203  0.135867  0.378912  1
  O  O124  1  0.899709  -0.000000  0.546522  1
  O  O125  1  0.399701  -0.000000  0.476692  1
  O  O126  1  0.499932  0.107159  0.514213  1
  O  O127  1  0.000000  0.107519  0.509006  1
  O  O128  1  0.500066  0.035241  0.517746  1
  O  O129  1  -0.000000  0.035463  0.505612  1
  O  O130  1  0.500086  0.178641  0.522148  1
  O  O131  1  0.500146  0.320932  0.501627  1
  O  O132  1  0.000000  0.179179  0.501697  1
  O  O133  1  0.600456  -0.000000  0.476683  1
  O  O134  1  0.500068  0.464725  0.251711  1
  O  O135  1  0.000000  0.535415  0.239590  1
  O  O136  1  0.000000  0.464742  0.239364  1
  O  O137  1  0.500178  0.535353  0.251528  1
  O  O138  1  0.751189  0.608797  0.300478  1
  O  O139  1  0.251302  0.391017  0.190555  1
  O  O140  1  0.749114  0.608816  0.190647  1
  O  O141  1  0.249142  0.390975  0.300588  1
  O  O142  1  0.749215  0.390961  0.190559  1
  O  O143  1  0.249234  0.608834  0.300494  1
  O  O144  1  0.751167  0.390981  0.300534  1
  O  O145  1  0.251148  0.608781  0.190604  1
  O  O146  1  0.662943  0.575627  0.347425  1
  O  O147  1  0.162887  0.424679  0.143794  1
  O  O148  1  0.837358  0.575460  0.143716  1
  O  O149  1  0.337360  0.424786  0.347345  1
  O  O150  1  0.837230  0.424698  0.143748  1
  O  O151  1  0.337359  0.575400  0.347418  1
  O  O152  1  0.663058  0.424623  0.347348  1
  O  O153  1  0.162893  0.575599  0.143655  1
  O  O154  1  0.746724  0.535999  0.299884  1
  O  O155  1  0.246195  0.463720  0.191970  1
  O  O156  1  0.753464  0.535999  0.191295  1
  O  O157  1  0.253997  0.463701  0.299117  1
  O  O158  1  0.754051  0.463681  0.191991  1
  O  O159  1  0.253358  0.536019  0.299823  1
  O  O160  1  0.746293  0.463693  0.299165  1
  O  O161  1  0.246634  0.536005  0.191227  1
  O  O162  1  0.593441  0.574502  0.292394  1
  O  O163  1  0.093420  0.425033  0.198837  1
  O  O164  1  0.906770  0.574483  0.198739  1
  O  O165  1  0.406895  0.425078  0.292324  1
  O  O166  1  0.906978  0.425070  0.198743  1
  O  O167  1  0.406808  0.574432  0.292396  1
  O  O168  1  0.593366  0.425101  0.292338  1
  O  O169  1  0.093365  0.574535  0.198696  1
  O  O170  1  0.750038  0.640150  0.245587  1
  O  O171  1  0.250090  0.359833  0.245546  1
  O  O172  1  0.750136  0.359712  0.245567  1
  O  O173  1  0.249966  0.640100  0.245518  1
  O  O174  1  0.599471  0.647402  0.211365  1
  O  O175  1  0.099577  0.352354  0.279807  1
  O  O176  1  0.900630  0.647488  0.279781  1
  O  O177  1  0.400706  0.352309  0.211345  1
  O  O178  1  0.900614  0.352280  0.279813  1
  O  O179  1  0.400608  0.647426  0.211343  1
  O  O180  1  0.599658  0.352348  0.211301  1
  O  O181  1  0.099498  0.647372  0.279785  1
  O  O182  1  0.500188  0.392791  0.248099  1
  O  O183  1  0.000000  0.607392  0.242651  1
  O  O184  1  0.600460  0.499871  0.210622  1
  O  O185  1  0.100417  0.499871  0.280459  1
  O  O186  1  0.899749  0.499921  0.280465  1
  O  O187  1  0.399739  0.499921  0.210618  1
  O  O188  1  0.750012  0.500985  0.245584  1
  O  O189  1  0.250086  0.501018  0.245539  1
  O  O190  1  0.500000  0.607289  0.248434  1
  O  O191  1  -0.000000  0.392772  0.243035  1
  O  O192  1  0.627215  0.363953  0.378480  1
  O  O193  1  0.000000  0.464787  0.517802  1
  O  O194  1  0.251151  0.608857  0.566627  1
  O  O195  1  0.751431  0.391071  0.456664  1
  O  O196  1  0.249005  0.608830  0.456705  1
  O  O197  1  0.749275  0.390989  0.566688  1
  O  O198  1  0.249098  0.391005  0.456659  1
  O  O199  1  0.749400  0.608875  0.566545  1
  O  O200  1  0.251064  0.391039  0.566702  1
  O  O201  1  0.751189  0.608854  0.456778  1
  O  O202  1  0.162785  0.575422  0.613462  1
  O  O203  1  0.663077  0.424552  0.409819  1
  O  O204  1  0.337457  0.575385  0.409861  1
  O  O205  1  0.837301  0.424814  0.613469  1
  O  O206  1  0.337364  0.424758  0.409851  1
  O  O207  1  0.837246  0.575551  0.613514  1
  O  O208  1  0.163007  0.424585  0.613545  1
  O  O209  1  0.662968  0.575636  0.409817  1
  O  O210  1  0.247085  0.536047  0.565918  1
  O  O211  1  0.745871  0.463763  0.458018  1
  O  O212  1  0.253767  0.536019  0.457544  1
  O  O213  1  0.753812  0.463729  0.565252  1
  O  O214  1  0.254201  0.463715  0.458086  1
  O  O215  1  0.753305  0.536059  0.565933  1
  O  O216  1  0.246412  0.463742  0.565443  1
  O  O217  1  0.746648  0.536042  0.457378  1
  O  O218  1  0.093592  0.574440  0.558397  1
  O  O219  1  0.593334  0.424921  0.464836  1
  O  O220  1  0.406843  0.574700  0.464899  1
  O  O221  1  0.906874  0.425214  0.558470  1
  O  O222  1  0.406954  0.425011  0.464866  1
  O  O223  1  0.906918  0.574365  0.558526  1
  O  O224  1  0.093358  0.425259  0.558517  1
  O  O225  1  0.593440  0.574570  0.464836  1
  O  O226  1  0.250221  0.640039  0.511670  1
  O  O227  1  0.749905  0.359837  0.511640  1
  O  O228  1  0.250224  0.359840  0.511711  1
  O  O229  1  0.750048  0.640305  0.511650  1
  O  O230  1  0.099489  0.647435  0.477516  1
  O  O231  1  0.599578  0.352401  0.545996  1
  O  O232  1  0.400795  0.647465  0.545888  1
  O  O233  1  0.900691  0.352364  0.477525  1
  O  O234  1  0.400604  0.352360  0.546015  1
  O  O235  1  0.900641  0.647516  0.477484  1
  O  O236  1  0.099590  0.352415  0.477513  1
  O  O237  1  0.599722  0.647504  0.545954  1
  O  O238  1  0.626993  0.636272  0.378662  1
  O  O239  1  0.499980  0.535282  0.505563  1
  O  O240  1  0.500284  0.464565  0.505470  1
  O  O241  1  0.372911  0.635976  0.378620  1
  O  O242  1  0.500197  0.584779  0.378619  1
  O  O243  1  0.000000  0.535365  0.517531  1
  O  O244  1  0.500258  0.415423  0.378591  1
  O  O245  1  -0.000000  0.392901  0.514278  1
  O  O246  1  0.100462  0.499865  0.476644  1
  O  O247  1  0.600408  0.499912  0.546497  1
  O  O248  1  0.399802  0.499819  0.546472  1
  O  O249  1  0.899673  0.499833  0.476651  1
  O  O250  1  0.249475  0.500807  0.511771  1
  O  O251  1  0.750241  0.500998  0.511653  1
  O  O252  1  0.000000  0.607265  0.514530  1
  O  O253  1  0.500042  0.392550  0.509035  1
  O  O254  1  0.500442  0.607288  0.508918  1
  O  O255  1  0.372973  0.364207  0.378588  1
  O  O256  1  0.003619  0.750317  0.245225  1
  O  O257  1  0.497088  0.750029  0.245567  1
  O  O258  1  0.751140  0.891081  0.190641  1
  O  O259  1  0.749212  0.891038  0.300405  1
  O  O260  1  0.249045  0.891109  0.190591  1
  O  O261  1  0.251219  0.891135  0.300509  1
  O  O262  1  0.663045  0.924538  0.143828  1
  O  O263  1  0.837188  0.924725  0.347194  1
  O  O264  1  0.337458  0.924567  0.143713  1
  O  O265  1  0.162822  0.924391  0.347411  1
  O  O266  1  0.746083  0.963785  0.191986  1
  O  O267  1  0.753928  0.963777  0.299010  1
  O  O268  1  0.253419  0.963951  0.191280  1
  O  O269  1  0.246765  0.963957  0.299888  1
  O  O270  1  0.593155  0.925127  0.198791  1
  O  O271  1  0.907016  0.925216  0.292252  1
  O  O272  1  0.406593  0.925450  0.198782  1
  O  O273  1  0.093607  0.925463  0.292325  1
  O  O274  1  0.757038  0.681853  0.195743  1
  O  O275  1  0.757065  0.817984  0.295339  1
  O  O276  1  0.742818  0.681792  0.295516  1
  O  O277  1  0.742952  0.818080  0.195530  1
  O  O278  1  0.242575  0.818135  0.295491  1
  O  O279  1  0.242886  0.681766  0.195581  1
  O  O280  1  0.257345  0.818073  0.195753  1
  O  O281  1  0.257084  0.681871  0.295319  1
  O  O282  1  0.749963  0.859680  0.245496  1
  O  O283  1  0.250035  0.859827  0.245578  1
  O  O284  1  0.599449  0.852464  0.279755  1
  O  O285  1  0.900667  0.852427  0.211340  1
  O  O286  1  0.400517  0.852356  0.279806  1
  O  O287  1  0.099592  0.852419  0.211315  1
  O  O288  1  0.750014  0.749906  0.316879  1
  O  O289  1  0.750029  0.749952  0.174223  1
  O  O290  1  0.249992  0.749944  0.174334  1
  O  O291  1  0.250031  0.750001  0.316797  1
  O  O292  1  0.655485  0.697889  0.347343  1
  O  O293  1  0.655591  0.801959  0.143705  1
  O  O294  1  0.844398  0.697752  0.143953  1
  O  O295  1  0.844839  0.802070  0.347047  1
  O  O296  1  0.342941  0.802278  0.143585  1
  O  O297  1  0.342892  0.697593  0.347453  1
  O  O298  1  0.156910  0.802182  0.347683  1
  O  O299  1  0.157550  0.697716  0.143316  1
  O  O300  1  0.593448  0.722402  0.293221  1
  O  O301  1  0.593530  0.777533  0.197864  1
  O  O302  1  0.906562  0.722382  0.197954  1
  O  O303  1  0.906455  0.777343  0.292975  1
  O  O304  1  0.407606  0.777996  0.197120  1
  O  O305  1  0.407490  0.721919  0.293931  1
  O  O306  1  0.092451  0.777984  0.294024  1
  O  O307  1  0.092433  0.721711  0.196918  1
  O  O308  1  0.500032  0.678837  0.255775  1
  O  O309  1  0.000000  0.964798  0.251613  1
  O  O310  1  -0.000000  0.821331  0.255943  1
  O  O311  1  0.000000  0.678977  0.235449  1
  O  O312  1  0.500024  0.821187  0.235254  1
  O  O313  1  0.249961  0.998926  0.245577  1
  O  O314  1  0.499647  0.892740  0.242880  1
  O  O315  1  -0.000000  0.892851  0.248164  1
  O  O316  1  0.500406  0.964723  0.239466  1
  O  O317  1  0.000000  0.915225  0.378492  1
  O  O318  1  0.872879  0.863934  0.378159  1
  O  O319  1  0.500497  0.821235  0.521970  1
  O  O320  1  0.500519  0.678876  0.501504  1
  O  O321  1  0.497475  0.750155  0.511501  1
  O  O322  1  0.251277  0.891177  0.456658  1
  O  O323  1  0.249072  0.891149  0.566657  1
  O  O324  1  0.749214  0.891143  0.456700  1
  O  O325  1  0.750931  0.891122  0.566580  1
  O  O326  1  0.162514  0.924522  0.409810  1
  O  O327  1  0.337601  0.924575  0.613510  1
  O  O328  1  0.837064  0.924388  0.409657  1
  O  O329  1  0.663136  0.924365  0.613613  1
  O  O330  1  0.246600  0.963976  0.457352  1
  O  O331  1  0.253397  0.963969  0.565957  1
  O  O332  1  0.753607  0.963926  0.457302  1
  O  O333  1  0.746824  0.963903  0.566014  1
  O  O334  1  0.093530  0.925367  0.464905  1
  O  O335  1  0.406669  0.925472  0.558441  1
  O  O336  1  0.906969  0.925440  0.464655  1
  O  O337  1  0.593289  0.925556  0.558613  1
  O  O338  1  0.257149  0.681887  0.461918  1
  O  O339  1  0.257144  0.818120  0.561365  1
  O  O340  1  0.243017  0.681882  0.561422  1
  O  O341  1  0.243111  0.818184  0.461857  1
  O  O342  1  0.742847  0.818136  0.561580  1
  O  O343  1  0.743041  0.681860  0.461642  1
  O  O344  1  0.757235  0.818134  0.461723  1
  O  O345  1  0.757444  0.681915  0.561586  1
  O  O346  1  0.250015  0.860018  0.511645  1
  O  O347  1  0.750132  0.859798  0.511647  1
  O  O348  1  0.099412  0.852613  0.545859  1
  O  O349  1  0.400775  0.852581  0.477514  1
  O  O350  1  0.900544  0.852512  0.545892  1
  O  O351  1  0.599624  0.852562  0.477436  1
  O  O352  1  0.250683  0.749975  0.582872  1
  O  O353  1  0.250723  0.750071  0.440500  1
  O  O354  1  0.750733  0.749979  0.440321  1
  O  O355  1  0.750622  0.750072  0.583026  1
  O  O356  1  0.155533  0.697923  0.613140  1
  O  O357  1  0.155905  0.802128  0.410069  1
  O  O358  1  0.342864  0.697579  0.409761  1
  O  O359  1  0.343161  0.802490  0.613491  1
  O  O360  1  0.842646  0.802457  0.409436  1
  O  O361  1  0.843246  0.697726  0.613775  1
  O  O362  1  0.655776  0.802126  0.613445  1
  O  O363  1  0.655834  0.698046  0.409817  1
  O  O364  1  0.093904  0.722679  0.559078  1
  O  O365  1  0.093852  0.777550  0.464103  1
  O  O366  1  0.407936  0.721769  0.463274  1
  O  O367  1  0.407779  0.778101  0.559955  1
  O  O368  1  0.907991  0.778326  0.462982  1
  O  O369  1  0.907884  0.721961  0.560164  1
  O  O370  1  0.593760  0.777442  0.559367  1
  O  O371  1  0.593862  0.722455  0.463936  1
  O  O372  1  0.000000  0.821126  0.501478  1
  O  O373  1  0.000000  0.678779  0.522006  1
  O  O374  1  0.500125  0.964645  0.517651  1
  O  O375  1  -0.000000  0.964729  0.505506  1
  O  O376  1  0.500388  0.892746  0.514526  1
  O  O377  1  0.000000  0.892725  0.508826  1
  O  O378  1  0.996465  0.749836  0.511424  1
  O  O379  1  0.749891  0.998808  0.511677  1
  O  O380  1  0.250126  0.998947  0.511650  1
  O  O381  1  0.499589  0.686415  0.378649  1
  O  O382  1  0.000000  0.813620  0.378691  1
  O  O383  1  0.127045  0.863845  0.378756  1
  O  O384  1  0.100328  -0.000000  0.546522  1
  Si  Si385  1  0.191929  0.072817  0.310532  1
  Si  Si386  1  0.308391  0.072814  0.180555  1
  Si  Si387  1  0.808151  0.072818  0.310762  1
  Si  Si388  1  0.692125  0.072842  0.180322  1
  Si  Si389  1  0.213764  0.144579  0.209866  1
  Si  Si390  1  0.286553  0.144597  0.281260  1
  Si  Si391  1  0.786350  0.144605  0.209804  1
  Si  Si392  1  0.714002  0.144602  0.281258  1
  Si  Si393  1  0.186633  0.213704  0.313533  1
  Si  Si394  1  0.186523  0.286206  0.177521  1
  Si  Si395  1  0.313694  0.213494  0.177348  1
  Si  Si396  1  0.313953  0.286365  0.313733  1
  Si  Si397  1  0.813813  0.286375  0.177212  1
  Si  Si398  1  0.813899  0.213495  0.313842  1
  Si  Si399  1  0.686491  0.286157  0.313668  1
  Si  Si400  1  0.686591  0.213657  0.177382  1
  Si  Si401  1  0.112153  0.179824  0.378427  1
  Si  Si402  1  0.785017  0.000000  0.209421  1
  Si  Si403  1  0.000000  0.072655  0.271474  1
  Si  Si404  1  0.500399  0.072679  0.219620  1
  Si  Si405  1  -0.000000  0.146116  0.230123  1
  Si  Si406  1  0.500309  0.146126  0.260993  1
  Si  Si407  1  -0.000000  0.218829  0.272209  1
  Si  Si408  1  0.000000  0.281234  0.218856  1
  Si  Si409  1  0.500176  0.218793  0.218822  1
  Si  Si410  1  0.500210  0.281197  0.272181  1
  Si  Si411  1  -0.000000  -0.000000  0.228992  1
  Si  Si412  1  0.500089  -0.000000  0.262037  1
  Si  Si413  1  0.715124  -0.000000  0.281601  1
  Si  Si414  1  0.611867  0.320080  0.378537  1
  Si  Si415  1  0.692049  0.072825  0.576574  1
  Si  Si416  1  0.808183  0.072840  0.446785  1
  Si  Si417  1  0.308113  0.072821  0.576614  1
  Si  Si418  1  0.191925  0.072867  0.446674  1
  Si  Si419  1  0.713754  0.144706  0.475982  1
  Si  Si420  1  0.786352  0.144729  0.547419  1
  Si  Si421  1  0.286310  0.144689  0.475938  1
  Si  Si422  1  0.213861  0.144714  0.547389  1
  Si  Si423  1  0.686188  0.213749  0.579792  1
  Si  Si424  1  0.686432  0.286375  0.443469  1
  Si  Si425  1  0.813724  0.213702  0.443569  1
  Si  Si426  1  0.813908  0.286273  0.579698  1
  Si  Si427  1  0.313570  0.286401  0.443438  1
  Si  Si428  1  0.313763  0.213689  0.579839  1
  Si  Si429  1  0.186389  0.286355  0.579954  1
  Si  Si430  1  0.186547  0.213601  0.443319  1
  Si  Si431  1  0.888140  0.179744  0.378746  1
  Si  Si432  1  0.387857  0.320325  0.378609  1
  Si  Si433  1  0.887515  0.091854  0.378778  1
  Si  Si434  1  0.500052  0.072584  0.537490  1
  Si  Si435  1  0.000000  0.072817  0.485875  1
  Si  Si436  1  0.500015  0.146088  0.496240  1
  Si  Si437  1  -0.000000  0.146283  0.527222  1
  Si  Si438  1  0.499973  0.218771  0.538275  1
  Si  Si439  1  0.500008  0.281185  0.484924  1
  Si  Si440  1  -0.000000  0.218879  0.484930  1
  Si  Si441  1  0.000000  0.281261  0.538310  1
  Si  Si442  1  0.000000  0.000000  0.528108  1
  Si  Si443  1  0.113088  0.091913  0.378593  1
  Si  Si444  1  0.692066  0.572774  0.310671  1
  Si  Si445  1  0.192033  0.427110  0.180594  1
  Si  Si446  1  0.808141  0.572753  0.180475  1
  Si  Si447  1  0.308230  0.427123  0.310535  1
  Si  Si448  1  0.808254  0.427096  0.180567  1
  Si  Si449  1  0.308156  0.572741  0.310655  1
  Si  Si450  1  0.692061  0.427094  0.310535  1
  Si  Si451  1  0.191978  0.572770  0.180412  1
  Si  Si452  1  0.713726  0.644540  0.209877  1
  Si  Si453  1  0.213842  0.355289  0.281263  1
  Si  Si454  1  0.786379  0.644574  0.281291  1
  Si  Si455  1  0.286465  0.355288  0.209843  1
  Si  Si456  1  0.786354  0.355229  0.281291  1
  Si  Si457  1  0.286361  0.644536  0.209818  1
  Si  Si458  1  0.713927  0.355246  0.209839  1
  Si  Si459  1  0.213766  0.644528  0.281240  1
  Si  Si460  1  0.715156  0.500002  0.209482  1
  Si  Si461  1  0.215103  0.500020  0.281626  1
  Si  Si462  1  0.785069  0.500027  0.281663  1
  Si  Si463  1  0.285050  0.500049  0.209450  1
  Si  Si464  1  0.500122  0.572521  0.271483  1
  Si  Si465  1  -0.000000  0.427318  0.219720  1
  Si  Si466  1  -0.000000  0.572590  0.219640  1
  Si  Si467  1  0.500142  0.427342  0.271406  1
  Si  Si468  1  0.500020  0.646012  0.230166  1
  Si  Si469  1  0.000000  0.353850  0.261023  1
  Si  Si470  1  0.000000  0.646078  0.260972  1
  Si  Si471  1  0.500213  0.353868  0.230113  1
  Si  Si472  1  0.500096  0.499970  0.229015  1
  Si  Si473  1  0.000000  0.499992  0.262057  1
  Si  Si474  1  0.613011  0.407991  0.378573  1
  Si  Si475  1  0.192153  0.572752  0.576715  1
  Si  Si476  1  0.691997  0.427092  0.446631  1
  Si  Si477  1  0.308239  0.572774  0.446626  1
  Si  Si478  1  0.808171  0.427171  0.576659  1
  Si  Si479  1  0.308288  0.427109  0.446665  1
  Si  Si480  1  0.808193  0.572775  0.576746  1
  Si  Si481  1  0.192020  0.427145  0.576745  1
  Si  Si482  1  0.692081  0.572829  0.446576  1
  Si  Si483  1  0.213734  0.644546  0.475987  1
  Si  Si484  1  0.713859  0.355315  0.547382  1
  Si  Si485  1  0.286538  0.644565  0.547369  1
  Si  Si486  1  0.786466  0.355327  0.475955  1
  Si  Si487  1  0.286335  0.355316  0.547447  1
  Si  Si488  1  0.786390  0.644649  0.475941  1
  Si  Si489  1  0.213837  0.355329  0.476006  1
  Si  Si490  1  0.714009  0.644647  0.547393  1
  Si  Si491  1  0.387416  0.408217  0.378593  1
  Si  Si492  1  0.215197  0.499991  0.475607  1
  Si  Si493  1  0.715081  0.500055  0.547723  1
  Si  Si494  1  0.285169  0.499980  0.547779  1
  Si  Si495  1  0.784966  0.500028  0.475537  1
  Si  Si496  1  -0.000000  0.572478  0.537556  1
  Si  Si497  1  0.500174  0.427160  0.485798  1
  Si  Si498  1  0.500200  0.572589  0.485783  1
  Si  Si499  1  0.000000  0.427464  0.537571  1
  Si  Si500  1  0.000000  0.646025  0.496318  1
  Si  Si501  1  0.500075  0.353764  0.527222  1
  Si  Si502  1  0.500306  0.646061  0.527121  1
  Si  Si503  1  -0.000000  0.353960  0.496322  1
  Si  Si504  1  -0.000000  0.499968  0.495035  1
  Si  Si505  1  0.500112  0.499892  0.528072  1
  Si  Si506  1  0.612914  0.592237  0.378622  1
  Si  Si507  1  0.387375  0.591974  0.378632  1
  Si  Si508  1  0.691924  0.927159  0.180638  1
  Si  Si509  1  0.808207  0.927189  0.310378  1
  Si  Si510  1  0.308061  0.927196  0.180457  1
  Si  Si511  1  0.192118  0.927181  0.310671  1
  Si  Si512  1  0.713720  0.855297  0.281214  1
  Si  Si513  1  0.786416  0.855292  0.209802  1
  Si  Si514  1  0.286266  0.855347  0.281297  1
  Si  Si515  1  0.213848  0.855369  0.209852  1
  Si  Si516  1  0.686196  0.713625  0.313613  1
  Si  Si517  1  0.686271  0.786251  0.177450  1
  Si  Si518  1  0.813700  0.713652  0.177618  1
  Si  Si519  1  0.813806  0.786168  0.313418  1
  Si  Si520  1  0.313491  0.786343  0.177368  1
  Si  Si521  1  0.313395  0.713571  0.313693  1
  Si  Si522  1  0.186423  0.786385  0.313850  1
  Si  Si523  1  0.186660  0.713481  0.177202  1
  Si  Si524  1  0.285079  -0.000000  0.281649  1
  Si  Si525  1  0.887087  0.907958  0.378390  1
  Si  Si526  1  0.499890  0.927402  0.219700  1
  Si  Si527  1  0.000000  0.927481  0.271382  1
  Si  Si528  1  0.499942  0.853899  0.260984  1
  Si  Si529  1  0.000000  0.853967  0.230124  1
  Si  Si530  1  0.499776  0.718762  0.272189  1
  Si  Si531  1  0.499840  0.781225  0.218882  1
  Si  Si532  1  0.000000  0.718779  0.218844  1
  Si  Si533  1  -0.000000  0.781251  0.272134  1
  Si  Si534  1  0.215134  0.000000  0.209474  1
  Si  Si535  1  0.888050  0.820062  0.378323  1
  Si  Si536  1  0.191992  0.927206  0.446544  1
  Si  Si537  1  0.308148  0.927228  0.576772  1
  Si  Si538  1  0.808234  0.927168  0.446444  1
  Si  Si539  1  0.692023  0.927172  0.576832  1
  Si  Si540  1  0.213675  0.855479  0.547344  1
  Si  Si541  1  0.286542  0.855484  0.475966  1
  Si  Si542  1  0.786273  0.855384  0.547375  1
  Si  Si543  1  0.713891  0.855412  0.475927  1
  Si  Si544  1  0.186572  0.713781  0.579492  1
  Si  Si545  1  0.186700  0.786303  0.443758  1
  Si  Si546  1  0.313708  0.713538  0.443559  1
  Si  Si547  1  0.313739  0.786483  0.579736  1
  Si  Si548  1  0.813710  0.786526  0.443282  1
  Si  Si549  1  0.813842  0.713600  0.579960  1
  Si  Si550  1  0.686524  0.786282  0.579748  1
  Si  Si551  1  0.686669  0.713755  0.443550  1
  Si  Si552  1  0.611647  0.680140  0.378636  1
  Si  Si553  1  0.112068  0.819963  0.378814  1
  Si  Si554  1  0.785040  -0.000000  0.547745  1
  Si  Si555  1  0.387625  0.679863  0.378607  1
  Si  Si556  1  0.215004  -0.000000  0.547722  1
  Si  Si557  1  0.715161  0.000000  0.475563  1
  Si  Si558  1  0.285004  -0.000000  0.475553  1
  Si  Si559  1  -0.000000  0.927437  0.485704  1
  Si  Si560  1  0.500139  0.927482  0.537612  1
  Si  Si561  1  0.000000  0.853973  0.527061  1
  Si  Si562  1  0.500256  0.853998  0.496294  1
  Si  Si563  1  0.000000  0.718812  0.538254  1
  Si  Si564  1  0.000000  0.781270  0.484950  1
  Si  Si565  1  0.500256  0.718748  0.485001  1
  Si  Si566  1  0.500200  0.781240  0.538281  1
  Si  Si567  1  0.500082  0.000000  0.495076  1
  Si  Si568  1  0.112637  0.907859  0.378606  1
  H  H569  1  0.337336  0.075175  0.121870  1
  H  H570  1  0.662895  0.075557  0.121708  1
  H  H571  1  0.155677  0.302127  0.122003  1
  H  H572  1  0.342762  0.197341  0.121742  1
  H  H573  1  0.842966  0.302469  0.121584  1
  H  H574  1  0.656010  0.197730  0.121834  1
  H  H575  1  0.662906  0.075358  0.635229  1
  H  H576  1  0.337131  0.075142  0.635296  1
  H  H577  1  0.655275  0.197923  0.635334  1
  H  H578  1  0.844323  0.302419  0.635171  1
  H  H579  1  0.343509  0.197519  0.635370  1
  H  H580  1  0.156306  0.302314  0.635539  1
  H  H581  1  0.162887  0.424679  0.121932  1
  H  H582  1  0.837358  0.575460  0.121854  1
  H  H583  1  0.837230  0.424698  0.121886  1
  H  H584  1  0.162893  0.575599  0.121793  1
  H  H585  1  0.162785  0.575422  0.635324  1
  H  H586  1  0.837301  0.424814  0.635331  1
  H  H587  1  0.837246  0.575551  0.635376  1
  H  H588  1  0.163007  0.424585  0.635407  1
  H  H589  1  0.663045  0.924538  0.121966  1
  H  H590  1  0.337458  0.924567  0.121851  1
  H  H591  1  0.655591  0.801959  0.121843  1
  H  H592  1  0.844398  0.697752  0.122091  1
  H  H593  1  0.342941  0.802278  0.121723  1
  H  H594  1  0.157550  0.697716  0.121454  1
  H  H595  1  0.337601  0.924575  0.635372  1
  H  H596  1  0.663136  0.924365  0.635475  1
  H  H597  1  0.155533  0.697923  0.635002  1
  H  H598  1  0.343161  0.802490  0.635353  1
  H  H599  1  0.843246  0.697726  0.635637  1
  H  H600  1  0.655776  0.802126  0.635307  1
