# generated using pymatgen
data_Si37(H4O39)2
_symmetry_space_group_name_H-M   'P 1'
_cell_length_a   12.88379592
_cell_length_b   19.90959990
_cell_length_c   58.87645453
_cell_angle_alpha   130.32211271
_cell_angle_beta   120.00000000
_cell_angle_gamma   71.12273184
_symmetry_Int_Tables_number   1
_chemical_formula_structural   Si37(H4O39)2
_chemical_formula_sum   'Si74 H16 O156'
_cell_volume   9971.76792715
_cell_formula_units_Z   2
loop_
 _symmetry_equiv_pos_site_id
 _symmetry_equiv_pos_as_xyz
  1  'x, y, z'
loop_
 _atom_site_type_symbol
 _atom_site_label
 _atom_site_symmetry_multiplicity
 _atom_site_fract_x
 _atom_site_fract_y
 _atom_site_fract_z
 _atom_site_occupancy
  O  O1  1  0.019557  0.083192  0.138486  1
  O  O2  1  0.019862  0.083129  0.220900  1
  O  O3  1  0.301484  0.083306  0.138343  1
  O  O4  1  0.228916  0.139971  0.180624  1
  O  O5  1  0.229147  0.140026  0.249401  1
  O  O6  1  0.062939  0.250181  0.191540  1
  O  O7  1  0.062991  0.250118  0.250491  1
  O  O8  1  0.334094  0.250235  0.191480  1
  O  O9  1  0.088908  0.127973  0.197068  1
  O  O10  1  0.455862  0.127811  0.196913  1
  O  O11  1  0.320850  0.583364  0.243675  1
  O  O12  1  0.320958  0.583298  0.181977  1
  O  O13  1  0.019687  0.417057  0.211616  1
  O  O14  1  0.301561  0.417092  0.137050  1
  O  O15  1  0.301781  0.417227  0.211631  1
  O  O16  1  0.457414  0.640028  0.240181  1
  O  O17  1  0.228985  0.360254  0.228986  1
  O  O18  1  0.088575  0.372390  0.250620  1
  O  O19  1  0.455943  0.372299  0.250580  1
  O  O20  1  0.113402  0.513521  0.137526  1
  O  O21  1  0.113413  0.513455  0.212100  1
  O  O22  1  0.226928  0.486832  0.181405  1
  O  O23  1  0.321061  0.916947  0.254890  1
  O  O24  1  0.396531  0.750163  0.227908  1
  O  O25  1  0.113388  0.986457  0.240820  1
  O  O26  1  0.678628  0.083217  0.220984  1
  O  O27  1  0.542058  0.139734  0.249276  1
  O  O28  1  0.603158  0.250001  0.250479  1
  O  O29  1  0.886304  0.013711  0.221939  1
  O  O30  1  0.697900  0.582938  0.181822  1
  O  O31  1  0.980001  0.583111  0.243608  1
  O  O32  1  0.678836  0.416800  0.136987  1
  O  O33  1  0.770701  0.639911  0.240039  1
  O  O34  1  0.543742  0.627865  0.206700  1
  O  O35  1  0.772763  0.513330  0.137515  1
  O  O36  1  0.886271  0.486707  0.181397  1
  O  O37  1  0.979827  0.917032  0.180176  1
  O  O38  1  0.698203  0.916857  0.254734  1
  O  O39  1  0.698357  0.917113  0.180376  1
  O  O40  1  0.665585  0.749930  0.227680  1
  O  O41  1  0.543825  0.872355  0.260047  1
  O  O42  1  0.773400  0.986925  0.241083  1
  O  O43  1  0.019557  0.083192  0.357303  1
  O  O44  1  0.301339  0.083052  0.282659  1
  O  O45  1  0.019862  0.083129  0.439717  1
  O  O46  1  0.301484  0.083306  0.357160  1
  O  O47  1  0.228916  0.139971  0.399442  1
  O  O48  1  0.229147  0.140026  0.468218  1
  O  O49  1  0.062939  0.250181  0.410357  1
  O  O50  1  0.333857  0.250037  0.309880  1
  O  O51  1  0.062991  0.250118  0.469308  1
  O  O52  1  0.334094  0.250235  0.410297  1
  O  O53  1  0.088908  0.127973  0.415885  1
  O  O54  1  0.456074  0.127773  0.277555  1
  O  O55  1  0.455862  0.127811  0.415731  1
  O  O56  1  0.226289  0.013239  0.296392  1
  O  O57  1  0.320850  0.583364  0.462492  1
  O  O58  1  0.320958  0.583298  0.400794  1
  O  O59  1  0.019687  0.417057  0.430433  1
  O  O60  1  0.301561  0.417092  0.355867  1
  O  O61  1  0.019643  0.417013  0.294103  1
  O  O62  1  0.301781  0.417227  0.430448  1
  O  O63  1  0.457414  0.640028  0.458999  1
  O  O64  1  0.228985  0.360254  0.447803  1
  O  O65  1  0.228934  0.360304  0.297683  1
  O  O66  1  0.088575  0.372390  0.469437  1
  O  O67  1  0.456022  0.372144  0.331085  1
  O  O68  1  0.455943  0.372299  0.469397  1
  O  O69  1  0.113402  0.513521  0.356344  1
  O  O70  1  0.113413  0.513455  0.430918  1
  O  O71  1  0.226928  0.486832  0.400222  1
  O  O72  1  0.320898  0.917148  0.316589  1
  O  O73  1  0.321061  0.916947  0.473707  1
  O  O74  1  0.457630  0.860432  0.288331  1
  O  O75  1  0.396256  0.750289  0.287217  1
  O  O76  1  0.396531  0.750163  0.446725  1
  O  O77  1  0.113388  0.986457  0.459638  1
  O  O78  1  0.113388  0.986771  0.315614  1
  O  O79  1  0.678628  0.083217  0.439802  1
  O  O80  1  0.678797  0.083016  0.282632  1
  O  O81  1  0.542058  0.139734  0.468093  1
  O  O82  1  0.603158  0.250001  0.469296  1
  O  O83  1  0.603433  0.249875  0.309794  1
  O  O84  1  0.886302  0.013389  0.296593  1
  O  O85  1  0.886304  0.013711  0.440756  1
  O  O86  1  0.980040  0.583136  0.326119  1
  O  O87  1  0.697900  0.582938  0.400639  1
  O  O88  1  0.980001  0.583111  0.462425  1
  O  O89  1  0.698128  0.583069  0.326166  1
  O  O90  1  0.678729  0.416865  0.294112  1
  O  O91  1  0.678836  0.416800  0.355804  1
  O  O92  1  0.770755  0.639858  0.308726  1
  O  O93  1  0.770701  0.639911  0.458856  1
  O  O94  1  0.542276  0.360137  0.297629  1
  O  O95  1  0.911112  0.627775  0.287086  1
  O  O96  1  0.543742  0.627865  0.425517  1
  O  O97  1  0.543667  0.628017  0.287255  1
  O  O98  1  0.772763  0.513330  0.356332  1
  O  O99  1  0.886271  0.486707  0.400215  1
  O  O100  1  0.886284  0.486639  0.325613  1
  O  O101  1  0.979827  0.917032  0.398993  1
  O  O102  1  0.698203  0.916857  0.473551  1
  O  O103  1  0.980135  0.916973  0.316619  1
  O  O104  1  0.698357  0.917113  0.399193  1
  O  O105  1  0.770548  0.860127  0.356796  1
  O  O106  1  0.770771  0.860193  0.288097  1
  O  O107  1  0.936705  0.750038  0.346067  1
  O  O108  1  0.665585  0.749930  0.446498  1
  O  O109  1  0.936747  0.749984  0.287098  1
  O  O110  1  0.665835  0.750125  0.346221  1
  O  O111  1  0.910785  0.872183  0.340426  1
  O  O112  1  0.543825  0.872355  0.478865  1
  O  O113  1  0.543623  0.872389  0.340659  1
  O  O114  1  0.773400  0.986925  0.459901  1
  O  O115  1  0.019557  0.083192  0.576120  1
  O  O116  1  0.301339  0.083052  0.501476  1
  O  O117  1  0.301484  0.083306  0.575977  1
  O  O118  1  0.333857  0.250037  0.528697  1
  O  O119  1  0.456074  0.127773  0.496373  1
  O  O120  1  0.226289  0.013239  0.515209  1
  O  O121  1  0.320958  0.583298  0.619611  1
  O  O122  1  0.301561  0.417092  0.574684  1
  O  O123  1  0.019643  0.417013  0.512920  1
  O  O124  1  0.228934  0.360304  0.516500  1
  O  O125  1  0.456022  0.372144  0.549902  1
  O  O126  1  0.113402  0.513521  0.575161  1
  O  O127  1  0.226928  0.486832  0.619040  1
  O  O128  1  0.320898  0.917148  0.535406  1
  O  O129  1  0.457630  0.860432  0.507149  1
  O  O130  1  0.396256  0.750289  0.506035  1
  O  O131  1  0.113388  0.986771  0.534431  1
  O  O132  1  0.678797  0.083016  0.501450  1
  O  O133  1  0.603433  0.249875  0.528611  1
  O  O134  1  0.886302  0.013389  0.515411  1
  O  O135  1  0.980040  0.583136  0.544936  1
  O  O136  1  0.697900  0.582938  0.619456  1
  O  O137  1  0.698128  0.583069  0.544983  1
  O  O138  1  0.678729  0.416865  0.512929  1
  O  O139  1  0.678836  0.416800  0.574622  1
  O  O140  1  0.770755  0.639858  0.527543  1
  O  O141  1  0.542276  0.360137  0.516447  1
  O  O142  1  0.911112  0.627775  0.505904  1
  O  O143  1  0.543667  0.628017  0.506072  1
  O  O144  1  0.772763  0.513330  0.575149  1
  O  O145  1  0.886271  0.486707  0.619032  1
  O  O146  1  0.886284  0.486639  0.544431  1
  O  O147  1  0.979827  0.917032  0.617810  1
  O  O148  1  0.980135  0.916973  0.535436  1
  O  O149  1  0.698357  0.917113  0.618011  1
  O  O150  1  0.770548  0.860127  0.575614  1
  O  O151  1  0.770771  0.860193  0.506914  1
  O  O152  1  0.936705  0.750038  0.564884  1
  O  O153  1  0.936747  0.749984  0.505916  1
  O  O154  1  0.665835  0.750125  0.565038  1
  O  O155  1  0.910785  0.872183  0.559243  1
  O  O156  1  0.543623  0.872389  0.559477  1
  Si  Si157  1  0.094669  0.149073  0.176109  1
  Si  Si158  1  0.094813  0.149062  0.228535  1
  Si  Si159  1  0.333140  0.149070  0.176012  1
  Si  Si160  1  0.427130  0.649166  0.264977  1
  Si  Si161  1  0.427227  0.649073  0.212744  1
  Si  Si162  1  0.094637  0.351252  0.220451  1
  Si  Si163  1  0.333211  0.351261  0.220409  1
  Si  Si164  1  0.239875  0.500173  0.159473  1
  Si  Si165  1  0.239907  0.500206  0.212018  1
  Si  Si166  1  0.427430  0.851274  0.256908  1
  Si  Si167  1  0.239674  -0.000000  0.268679  1
  Si  Si168  1  0.572261  0.148890  0.228469  1
  Si  Si169  1  0.760019  0.000000  0.216275  1
  Si  Si170  1  0.000000  0.000000  0.216130  1
  Si  Si171  1  0.760016  0.000000  0.268752  1
  Si  Si172  1  0.666469  0.648904  0.212591  1
  Si  Si173  1  0.905051  0.648913  0.264841  1
  Si  Si174  1  0.759776  0.499959  0.159435  1
  Si  Si175  1  -0.000000  0.500083  0.212002  1
  Si  Si176  1  0.666544  0.851096  0.256696  1
  Si  Si177  1  0.094669  0.149073  0.394926  1
  Si  Si178  1  0.333148  0.148970  0.280801  1
  Si  Si179  1  0.094813  0.149062  0.447352  1
  Si  Si180  1  0.333140  0.149070  0.394829  1
  Si  Si181  1  0.239672  -0.000000  0.321261  1
  Si  Si182  1  0.427130  0.649166  0.483794  1
  Si  Si183  1  0.427227  0.649073  0.431561  1
  Si  Si184  1  0.094637  0.351252  0.439268  1
  Si  Si185  1  0.333067  0.351166  0.325106  1
  Si  Si186  1  0.094596  0.351255  0.272861  1
  Si  Si187  1  0.333211  0.351261  0.439226  1
  Si  Si188  1  0.239875  0.500173  0.378290  1
  Si  Si189  1  0.239907  0.500206  0.430835  1
  Si  Si190  1  0.427184  0.851353  0.309122  1
  Si  Si191  1  0.427430  0.851274  0.475725  1
  Si  Si192  1  0.239674  0.000000  0.487496  1
  Si  Si193  1  0.572261  0.148890  0.447287  1
  Si  Si194  1  0.572507  0.148810  0.280702  1
  Si  Si195  1  0.760019  0.000000  0.435092  1
  Si  Si196  1  0.000000  0.000000  0.434947  1
  Si  Si197  1  0.760016  0.000000  0.487570  1
  Si  Si198  1  0.000000  0.000000  0.321365  1
  Si  Si199  1  0.905090  0.648903  0.317257  1
  Si  Si200  1  0.666469  0.648904  0.431408  1
  Si  Si201  1  0.905051  0.648913  0.483658  1
  Si  Si202  1  0.666627  0.648996  0.317362  1
  Si  Si203  1  0.572461  0.351090  0.272839  1
  Si  Si204  1  0.572558  0.350997  0.325052  1
  Si  Si205  1  0.759776  0.499959  0.378252  1
  Si  Si206  1  -0.000000  0.500083  0.430819  1
  Si  Si207  1  0.759816  0.499988  0.325728  1
  Si  Si208  1  -0.000000  0.500077  0.325720  1
  Si  Si209  1  0.904881  0.851094  0.361372  1
  Si  Si210  1  0.666544  0.851096  0.475513  1
  Si  Si211  1  0.905021  0.851092  0.308974  1
  Si  Si212  1  0.666550  0.851191  0.361527  1
  Si  Si213  1  0.333148  0.148970  0.499618  1
  Si  Si214  1  0.239672  0.000000  0.540078  1
  Si  Si215  1  0.333067  0.351166  0.543923  1
  Si  Si216  1  0.094596  0.351255  0.491678  1
  Si  Si217  1  0.239875  0.500173  0.597107  1
  Si  Si218  1  0.427184  0.851353  0.527939  1
  Si  Si219  1  0.572507  0.148810  0.499519  1
  Si  Si220  1  -0.000000  -0.000000  0.540182  1
  Si  Si221  1  0.905090  0.648903  0.536075  1
  Si  Si222  1  0.666627  0.648996  0.536180  1
  Si  Si223  1  0.572461  0.351090  0.491656  1
  Si  Si224  1  0.572558  0.350997  0.543870  1
  Si  Si225  1  0.759776  0.499959  0.597069  1
  Si  Si226  1  0.759816  0.499988  0.544546  1
  Si  Si227  1  0.000000  0.500077  0.544538  1
  Si  Si228  1  0.904881  0.851094  0.580189  1
  Si  Si229  1  0.905021  0.851092  0.527791  1
  Si  Si230  1  0.666550  0.851191  0.580344  1
  H  H231  1  0.019557  0.083192  0.123199  1
  H  H232  1  0.301484  0.083306  0.123056  1
  H  H233  1  0.301561  0.417092  0.121764  1
  H  H234  1  0.113402  0.513521  0.122240  1
  H  H235  1  0.678836  0.416800  0.121701  1
  H  H236  1  0.772763  0.513330  0.122229  1
  H  H237  1  0.979827  0.917032  0.164889  1
  H  H238  1  0.698357  0.917113  0.165090  1
  H  H239  1  0.019557  0.083192  0.591406  1
  H  H240  1  0.301484  0.083306  0.591263  1
  H  H241  1  0.320958  0.583298  0.634898  1
  H  H242  1  0.226928  0.486832  0.634326  1
  H  H243  1  0.697900  0.582938  0.634743  1
  H  H244  1  0.886271  0.486707  0.634318  1
  H  H245  1  0.979827  0.917032  0.633096  1
  H  H246  1  0.698357  0.917113  0.633297  1
