# generated using pymatgen
data_Si22H2O45
_symmetry_space_group_name_H-M   'P 1'
_cell_length_a   17.29992123
_cell_length_b   17.30415519
_cell_length_c   59.01010396
_cell_angle_alpha   90.00000000
_cell_angle_beta   90.00000000
_cell_angle_gamma   120.00000000
_symmetry_Int_Tables_number   1
_chemical_formula_structural   Si22H2O45
_chemical_formula_sum   'Si132 H12 O270'
_cell_volume   15298.5946766
_cell_formula_units_Z   6
loop_
 _symmetry_equiv_pos_site_id
 _symmetry_equiv_pos_as_xyz
  1  'x, y, z'
loop_
 _atom_site_type_symbol
 _atom_site_label
 _atom_site_symmetry_multiplicity
 _atom_site_fract_x
 _atom_site_fract_y
 _atom_site_fract_z
 _atom_site_occupancy
  O  O1  1  0.049223  0.524808  0.129412  1
  O  O2  1  0.473917  0.525461  0.129433  1
  O  O3  1  0.473211  0.949403  0.129458  1
  O  O4  1  0.433818  0.356472  0.251475  1
  O  O5  1  0.433321  0.078452  0.251469  1
  O  O6  1  0.077349  0.434367  0.099983  1
  O  O7  1  0.354811  0.921405  0.099998  1
  O  O8  1  0.355525  0.434948  0.099996  1
  O  O9  1  0.077261  0.643347  0.099991  1
  O  O10  1  0.066637  0.635463  0.224433  1
  O  O11  1  0.363280  0.432193  0.224466  1
  O  O12  1  0.362761  0.932124  0.224453  1
  O  O13  1  0.066661  0.431741  0.224448  1
  O  O14  1  0.430569  0.067734  0.127016  1
  O  O15  1  0.431076  0.364363  0.127031  1
  O  O16  1  0.403277  0.319671  0.208195  1
  O  O17  1  0.402530  0.084602  0.208194  1
  O  O18  1  0.083509  0.403860  0.143267  1
  O  O19  1  0.317857  0.915252  0.143274  1
  O  O20  1  0.318568  0.404457  0.143290  1
  O  O21  1  0.083543  0.680165  0.143271  1
  O  O22  1  0.295529  0.296706  0.175750  1
  O  O23  1  0.294728  0.000000  0.175736  1
  O  O24  1  0.446812  0.320028  0.166402  1
  O  O25  1  0.446180  0.127692  0.166399  1
  O  O26  1  0.126668  0.447584  0.185072  1
  O  O27  1  0.318432  0.872177  0.185069  1
  O  O28  1  0.318981  0.448004  0.185089  1
  O  O29  1  0.126705  0.679799  0.185062  1
  O  O30  1  0.340924  0.171237  0.184900  1
  O  O31  1  0.170135  0.342267  0.166576  1
  O  O32  1  0.169616  0.828606  0.166568  1
  O  O33  1  0.480042  0.240618  0.134993  1
  O  O34  1  0.239567  0.481238  0.216500  1
  O  O35  1  0.239358  0.759224  0.216474  1
  O  O36  1  0.175617  0.588168  0.209435  1
  O  O37  1  0.410598  0.588524  0.209480  1
  O  O38  1  0.410195  0.823195  0.209392  1
  O  O39  1  0.433795  0.356484  0.339522  1
  O  O40  1  0.433295  0.078464  0.339532  1
  O  O41  1  0.066603  0.635479  0.366574  1
  O  O42  1  0.363247  0.432206  0.366531  1
  O  O43  1  0.362722  0.932140  0.366551  1
  O  O44  1  0.066630  0.431760  0.366559  1
  O  O45  1  0.403244  0.319686  0.382802  1
  O  O46  1  0.402492  0.084617  0.382808  1
  O  O47  1  0.126638  0.447602  0.405933  1
  O  O48  1  0.318399  0.872197  0.405936  1
  O  O49  1  0.318948  0.448016  0.405909  1
  O  O50  1  0.126671  0.679817  0.405946  1
  O  O51  1  0.340891  0.171254  0.406100  1
  O  O52  1  0.239533  0.481256  0.374501  1
  O  O53  1  0.239319  0.759243  0.374533  1
  O  O54  1  0.175586  0.588188  0.381572  1
  O  O55  1  0.410566  0.588536  0.381519  1
  O  O56  1  0.410154  0.823210  0.381612  1
  O  O57  1  0.482056  0.241640  0.264458  1
  O  O58  1  0.482039  0.241648  0.326543  1
  O  O59  1  0.462180  0.333200  0.295500  1
  O  O60  1  0.461769  0.130099  0.295501  1
  O  O61  1  0.295496  0.296722  0.415248  1
  O  O62  1  0.948360  0.474374  0.222031  1
  O  O63  1  0.524326  0.475042  0.222055  1
  O  O64  1  0.523728  0.050440  0.222010  1
  O  O65  1  0.920500  0.564889  0.251469  1
  O  O66  1  0.642212  0.078186  0.251455  1
  O  O67  1  0.642915  0.565491  0.251482  1
  O  O68  1  0.920337  0.355827  0.251463  1
  O  O69  1  0.564453  0.644049  0.100003  1
  O  O70  1  0.563959  0.921652  0.100014  1
  O  O71  1  0.566438  0.932122  0.224419  1
  O  O72  1  0.567015  0.636031  0.224488  1
  O  O73  1  0.930905  0.363827  0.126980  1
  O  O74  1  0.634854  0.568129  0.127015  1
  O  O75  1  0.634233  0.067708  0.127050  1
  O  O76  1  0.930994  0.567622  0.127002  1
  O  O77  1  0.914008  0.595362  0.208175  1
  O  O78  1  0.679154  0.084631  0.208181  1
  O  O79  1  0.679567  0.596004  0.208198  1
  O  O80  1  0.914081  0.319151  0.208163  1
  O  O81  1  0.594871  0.680696  0.143303  1
  O  O82  1  0.594442  0.915202  0.143286  1
  O  O83  1  0.998735  0.703117  0.175717  1
  O  O84  1  0.677278  0.000000  0.175732  1
  O  O85  1  0.702592  0.703695  0.175742  1
  O  O86  1  0.870875  0.551821  0.166379  1
  O  O87  1  0.678733  0.127785  0.166405  1
  O  O88  1  0.678999  0.552274  0.166390  1
  O  O89  1  0.870942  0.319666  0.166356  1
  O  O90  1  0.551209  0.680192  0.185112  1
  O  O91  1  0.550868  0.872034  0.185062  1
  O  O92  1  0.827780  0.657574  0.184889  1
  O  O93  1  0.827589  0.170899  0.184876  1
  O  O94  1  0.656618  0.828942  0.166590  1
  O  O95  1  0.758236  0.518602  0.134965  1
  O  O96  1  0.757945  0.240418  0.134970  1
  O  O97  1  0.517459  0.759423  0.216498  1
  O  O98  1  0.821983  0.411314  0.141988  1
  O  O99  1  0.587359  0.411678  0.142028  1
  O  O100  1  0.586916  0.176649  0.142077  1
  O  O101  1  0.998828  0.296165  0.175722  1
  O  O102  1  0.948326  0.474391  0.368976  1
  O  O103  1  0.524294  0.475058  0.368942  1
  O  O104  1  0.523691  0.050454  0.368994  1
  O  O105  1  0.920475  0.564900  0.339536  1
  O  O106  1  0.642186  0.078195  0.339551  1
  O  O107  1  0.642891  0.565504  0.339516  1
  O  O108  1  0.920312  0.355839  0.339544  1
  O  O109  1  0.566399  0.932136  0.366586  1
  O  O110  1  0.566983  0.636047  0.366510  1
  O  O111  1  0.913977  0.595384  0.382830  1
  O  O112  1  0.679113  0.084649  0.382825  1
  O  O113  1  0.679536  0.596022  0.382800  1
  O  O114  1  0.914047  0.319169  0.382845  1
  O  O115  1  0.551177  0.680210  0.405886  1
  O  O116  1  0.550825  0.872045  0.405941  1
  O  O117  1  0.827748  0.657596  0.406112  1
  O  O118  1  0.827550  0.170916  0.406131  1
  O  O119  1  0.517419  0.759437  0.374503  1
  O  O120  1  0.820856  0.410637  0.267810  1
  O  O121  1  0.588085  0.411148  0.267808  1
  O  O122  1  0.587709  0.177833  0.267813  1
  O  O123  1  0.820837  0.410642  0.323193  1
  O  O124  1  0.588068  0.411158  0.323194  1
  O  O125  1  0.587693  0.177841  0.323190  1
  O  O126  1  0.757510  0.516815  0.264463  1
  O  O127  1  0.757190  0.241167  0.264470  1
  O  O128  1  0.757492  0.516823  0.326539  1
  O  O129  1  0.757173  0.241173  0.326536  1
  O  O130  1  0.868942  0.536548  0.295502  1
  O  O131  1  0.665537  0.129718  0.295503  1
  O  O132  1  0.666151  0.537057  0.295500  1
  O  O133  1  0.868737  0.332619  0.295503  1
  O  O134  1  0.702559  0.703715  0.415255  1
  O  O135  1  0.049193  0.524828  0.461594  1
  O  O136  1  0.473886  0.525480  0.461564  1
  O  O137  1  0.473178  0.949423  0.461548  1
  O  O138  1  0.077325  0.434380  0.491021  1
  O  O139  1  0.354786  0.921418  0.491009  1
  O  O140  1  0.355503  0.434963  0.491002  1
  O  O141  1  0.077241  0.643361  0.491016  1
  O  O142  1  0.430531  0.067751  0.463989  1
  O  O143  1  0.431048  0.364383  0.463966  1
  O  O144  1  0.083478  0.403879  0.447738  1
  O  O145  1  0.317822  0.915271  0.447732  1
  O  O146  1  0.318537  0.404474  0.447708  1
  O  O147  1  0.083511  0.680188  0.447736  1
  O  O148  1  0.446782  0.320046  0.424595  1
  O  O149  1  0.446143  0.127705  0.424604  1
  O  O150  1  0.170102  0.342283  0.424425  1
  O  O151  1  0.169584  0.828626  0.424438  1
  O  O152  1  0.480005  0.240636  0.456007  1
  O  O153  1  0.176850  0.588710  0.507346  1
  O  O154  1  0.410135  0.589228  0.507344  1
  O  O155  1  0.409795  0.822029  0.507350  1
  O  O156  1  0.176866  0.588702  0.562730  1
  O  O157  1  0.410151  0.589217  0.562731  1
  O  O158  1  0.409808  0.822018  0.562726  1
  O  O159  1  0.240611  0.483046  0.503999  1
  O  O160  1  0.240335  0.758218  0.503996  1
  O  O161  1  0.240627  0.483037  0.566075  1
  O  O162  1  0.240350  0.758208  0.566082  1
  O  O163  1  0.129020  0.462809  0.535038  1
  O  O164  1  0.331625  0.869772  0.535040  1
  O  O165  1  0.332314  0.463308  0.535036  1
  O  O166  1  0.128895  0.666624  0.535040  1
  O  O167  1  0.294693  0.000000  0.415269  1
  O  O168  1  0.049223  0.524808  0.608485  1
  O  O169  1  0.473917  0.525461  0.608506  1
  O  O170  1  0.473211  0.949403  0.608530  1
  O  O171  1  0.433818  0.356472  0.730548  1
  O  O172  1  0.433321  0.078452  0.730542  1
  O  O173  1  0.077349  0.434367  0.579056  1
  O  O174  1  0.354811  0.921405  0.579071  1
  O  O175  1  0.355525  0.434948  0.579069  1
  O  O176  1  0.077261  0.643347  0.579063  1
  O  O177  1  0.066637  0.635463  0.703505  1
  O  O178  1  0.363280  0.432193  0.703539  1
  O  O179  1  0.362761  0.932124  0.703526  1
  O  O180  1  0.066661  0.431741  0.703521  1
  O  O181  1  0.430569  0.067734  0.606088  1
  O  O182  1  0.431076  0.364363  0.606104  1
  O  O183  1  0.403277  0.319671  0.687268  1
  O  O184  1  0.402530  0.084602  0.687267  1
  O  O185  1  0.083509  0.403860  0.622339  1
  O  O186  1  0.317857  0.915252  0.622346  1
  O  O187  1  0.318568  0.404457  0.622362  1
  O  O188  1  0.083543  0.680165  0.622344  1
  O  O189  1  0.295529  0.296706  0.654823  1
  O  O190  1  0.294728  0.000000  0.654808  1
  O  O191  1  0.446812  0.320028  0.645475  1
  O  O192  1  0.446180  0.127692  0.645472  1
  O  O193  1  0.126668  0.447584  0.664145  1
  O  O194  1  0.318432  0.872177  0.664142  1
  O  O195  1  0.318981  0.448004  0.664161  1
  O  O196  1  0.126705  0.679799  0.664135  1
  O  O197  1  0.340924  0.171237  0.663973  1
  O  O198  1  0.170135  0.342267  0.645649  1
  O  O199  1  0.169616  0.828606  0.645641  1
  O  O200  1  0.480042  0.240618  0.614065  1
  O  O201  1  0.239567  0.481238  0.695573  1
  O  O202  1  0.239358  0.759224  0.695546  1
  O  O203  1  0.175617  0.588168  0.688507  1
  O  O204  1  0.410598  0.588524  0.688552  1
  O  O205  1  0.410195  0.823195  0.688465  1
  O  O206  1  0.564431  0.644063  0.490994  1
  O  O207  1  0.563937  0.921669  0.490990  1
  O  O208  1  0.930874  0.363848  0.464026  1
  O  O209  1  0.634823  0.568146  0.463982  1
  O  O210  1  0.634199  0.067728  0.463955  1
  O  O211  1  0.930965  0.567645  0.464005  1
  O  O212  1  0.594839  0.680715  0.447695  1
  O  O213  1  0.594402  0.915219  0.447717  1
  O  O214  1  0.870849  0.551847  0.424626  1
  O  O215  1  0.678697  0.127807  0.424601  1
  O  O216  1  0.678969  0.552293  0.424608  1
  O  O217  1  0.870907  0.319684  0.424651  1
  O  O218  1  0.656581  0.828961  0.424410  1
  O  O219  1  0.758205  0.518625  0.456036  1
  O  O220  1  0.757909  0.240442  0.456037  1
  O  O221  1  0.821955  0.411339  0.449017  1
  O  O222  1  0.587330  0.411695  0.448969  1
  O  O223  1  0.586877  0.176667  0.448929  1
  O  O224  1  0.515947  0.758699  0.504005  1
  O  O225  1  0.515961  0.758688  0.566069  1
  O  O226  1  0.536069  0.667278  0.535036  1
  O  O227  1  0.535764  0.870132  0.535037  1
  O  O228  1  0.998793  0.296182  0.415285  1
  O  O229  1  0.677236  0.000000  0.415272  1
  O  O230  1  0.998704  0.703140  0.415289  1
  O  O231  1  0.948360  0.474374  0.701104  1
  O  O232  1  0.524326  0.475042  0.701128  1
  O  O233  1  0.523728  0.050440  0.701083  1
  O  O234  1  0.920500  0.564889  0.730541  1
  O  O235  1  0.642212  0.078186  0.730528  1
  O  O236  1  0.642915  0.565491  0.730555  1
  O  O237  1  0.920337  0.355827  0.730536  1
  O  O238  1  0.564453  0.644049  0.579076  1
  O  O239  1  0.563959  0.921652  0.579086  1
  O  O240  1  0.566438  0.932122  0.703491  1
  O  O241  1  0.567015  0.636031  0.703560  1
  O  O242  1  0.930905  0.363827  0.606052  1
  O  O243  1  0.634854  0.568129  0.606088  1
  O  O244  1  0.634233  0.067708  0.606123  1
  O  O245  1  0.930994  0.567622  0.606074  1
  O  O246  1  0.914008  0.595362  0.687248  1
  O  O247  1  0.679154  0.084631  0.687254  1
  O  O248  1  0.679567  0.596004  0.687271  1
  O  O249  1  0.914081  0.319151  0.687235  1
  O  O250  1  0.594871  0.680696  0.622375  1
  O  O251  1  0.594442  0.915202  0.622359  1
  O  O252  1  0.998735  0.703117  0.654790  1
  O  O253  1  0.677278  0.000000  0.654805  1
  O  O254  1  0.702592  0.703695  0.654815  1
  O  O255  1  0.870875  0.551821  0.645452  1
  O  O256  1  0.678733  0.127785  0.645478  1
  O  O257  1  0.678999  0.552274  0.645463  1
  O  O258  1  0.870942  0.319666  0.645429  1
  O  O259  1  0.551209  0.680192  0.664184  1
  O  O260  1  0.550868  0.872034  0.664135  1
  O  O261  1  0.827780  0.657574  0.663962  1
  O  O262  1  0.827589  0.170899  0.663948  1
  O  O263  1  0.656618  0.828942  0.645663  1
  O  O264  1  0.758236  0.518602  0.614037  1
  O  O265  1  0.757945  0.240418  0.614042  1
  O  O266  1  0.517459  0.759423  0.695571  1
  O  O267  1  0.821983  0.411314  0.621061  1
  O  O268  1  0.587359  0.411678  0.621101  1
  O  O269  1  0.586916  0.176649  0.621149  1
  O  O270  1  0.998828  0.296165  0.654795  1
  Si  Si271  1  0.428589  0.392864  0.227126  1
  Si  Si272  1  0.427957  0.036784  0.227117  1
  Si  Si273  1  0.035591  0.429072  0.124320  1
  Si  Si274  1  0.391111  0.963076  0.124350  1
  Si  Si275  1  0.391795  0.429705  0.124361  1
  Si  Si276  1  0.035646  0.606962  0.124341  1
  Si  Si277  1  0.368958  0.273777  0.184362  1
  Si  Si278  1  0.368319  0.096256  0.184353  1
  Si  Si279  1  0.095190  0.369740  0.167116  1
  Si  Si280  1  0.272004  0.903612  0.167118  1
  Si  Si281  1  0.272675  0.370171  0.167127  1
  Si  Si282  1  0.095104  0.726052  0.167104  1
  Si  Si283  1  0.487453  0.332933  0.141770  1
  Si  Si284  1  0.486984  0.155462  0.141783  1
  Si  Si285  1  0.154436  0.488267  0.209702  1
  Si  Si286  1  0.331468  0.844403  0.209685  1
  Si  Si287  1  0.331895  0.488608  0.209727  1
  Si  Si288  1  0.154449  0.666895  0.209693  1
  Si  Si289  1  0.487580  0.333727  0.321444  1
  Si  Si290  1  0.487235  0.154923  0.321446  1
  Si  Si291  1  0.428559  0.392879  0.363870  1
  Si  Si292  1  0.427921  0.036799  0.363885  1
  Si  Si293  1  0.368927  0.273795  0.406635  1
  Si  Si294  1  0.368283  0.096272  0.406650  1
  Si  Si295  1  0.154407  0.488288  0.381303  1
  Si  Si296  1  0.331430  0.844422  0.381320  1
  Si  Si297  1  0.331863  0.488621  0.381271  1
  Si  Si298  1  0.154414  0.666913  0.381314  1
  Si  Si299  1  0.487596  0.333719  0.269556  1
  Si  Si300  1  0.487250  0.154915  0.269555  1
  Si  Si301  1  0.510100  0.844327  0.209682  1
  Si  Si302  1  0.961996  0.570123  0.227102  1
  Si  Si303  1  0.605832  0.036741  0.227090  1
  Si  Si304  1  0.606440  0.570785  0.227147  1
  Si  Si305  1  0.961978  0.392255  0.227114  1
  Si  Si306  1  0.569660  0.607605  0.124350  1
  Si  Si307  1  0.569012  0.963086  0.124379  1
  Si  Si308  1  0.902397  0.629653  0.184340  1
  Si  Si309  1  0.725079  0.096232  0.184349  1
  Si  Si310  1  0.725362  0.630119  0.184347  1
  Si  Si311  1  0.902441  0.273331  0.184319  1
  Si  Si312  1  0.629043  0.726523  0.167146  1
  Si  Si313  1  0.628763  0.903585  0.167116  1
  Si  Si314  1  0.843182  0.511216  0.141741  1
  Si  Si315  1  0.665671  0.155496  0.141786  1
  Si  Si316  1  0.666081  0.511592  0.141761  1
  Si  Si317  1  0.843128  0.332566  0.141731  1
  Si  Si318  1  0.510502  0.667291  0.209737  1
  Si  Si319  1  0.843841  0.333180  0.321447  1
  Si  Si320  1  0.961964  0.570139  0.363904  1
  Si  Si321  1  0.605795  0.036755  0.363916  1
  Si  Si322  1  0.606408  0.570801  0.363850  1
  Si  Si323  1  0.961947  0.392272  0.363893  1
  Si  Si324  1  0.902368  0.629677  0.406665  1
  Si  Si325  1  0.725040  0.096252  0.406657  1
  Si  Si326  1  0.725330  0.630139  0.406651  1
  Si  Si327  1  0.902405  0.273348  0.406689  1
  Si  Si328  1  0.510468  0.667305  0.381260  1
  Si  Si329  1  0.510058  0.844338  0.381321  1
  Si  Si330  1  0.844004  0.511141  0.269559  1
  Si  Si331  1  0.665059  0.154651  0.269559  1
  Si  Si332  1  0.665556  0.511602  0.269556  1
  Si  Si333  1  0.843857  0.333174  0.269558  1
  Si  Si334  1  0.843987  0.511147  0.321444  1
  Si  Si335  1  0.665043  0.154657  0.321445  1
  Si  Si336  1  0.665540  0.511611  0.321445  1
  Si  Si337  1  0.153802  0.666114  0.560983  1
  Si  Si338  1  0.035561  0.429092  0.466685  1
  Si  Si339  1  0.391077  0.963094  0.466656  1
  Si  Si340  1  0.391765  0.429723  0.466636  1
  Si  Si341  1  0.035618  0.606983  0.466667  1
  Si  Si342  1  0.095157  0.369758  0.423888  1
  Si  Si343  1  0.271972  0.903632  0.423888  1
  Si  Si344  1  0.272640  0.370185  0.423870  1
  Si  Si345  1  0.095071  0.726073  0.423903  1
  Si  Si346  1  0.487423  0.332951  0.449228  1
  Si  Si347  1  0.486944  0.155476  0.449221  1
  Si  Si348  1  0.153874  0.488265  0.509094  1
  Si  Si349  1  0.332267  0.844956  0.509093  1
  Si  Si350  1  0.332777  0.488713  0.509094  1
  Si  Si351  1  0.153788  0.666123  0.509095  1
  Si  Si352  1  0.153890  0.488258  0.560982  1
  Si  Si353  1  0.332281  0.844946  0.560984  1
  Si  Si354  1  0.332792  0.488703  0.560980  1
  Si  Si355  1  0.428589  0.392864  0.706199  1
  Si  Si356  1  0.427957  0.036784  0.706190  1
  Si  Si357  1  0.035591  0.429072  0.603392  1
  Si  Si358  1  0.391111  0.963076  0.603423  1
  Si  Si359  1  0.391795  0.429705  0.603434  1
  Si  Si360  1  0.035646  0.606962  0.603414  1
  Si  Si361  1  0.368958  0.273777  0.663435  1
  Si  Si362  1  0.368319  0.096256  0.663426  1
  Si  Si363  1  0.095190  0.369740  0.646189  1
  Si  Si364  1  0.272004  0.903612  0.646191  1
  Si  Si365  1  0.272675  0.370171  0.646200  1
  Si  Si366  1  0.095104  0.726052  0.646177  1
  Si  Si367  1  0.487453  0.332933  0.620842  1
  Si  Si368  1  0.486984  0.155462  0.620856  1
  Si  Si369  1  0.154436  0.488267  0.688774  1
  Si  Si370  1  0.331468  0.844403  0.688757  1
  Si  Si371  1  0.331895  0.488608  0.688800  1
  Si  Si372  1  0.154449  0.666895  0.688766  1
  Si  Si373  1  0.510344  0.845191  0.560980  1
  Si  Si374  1  0.510628  0.666697  0.560981  1
  Si  Si375  1  0.569630  0.607623  0.466647  1
  Si  Si376  1  0.568979  0.963105  0.466625  1
  Si  Si377  1  0.629010  0.726543  0.423851  1
  Si  Si378  1  0.628722  0.903600  0.423887  1
  Si  Si379  1  0.843156  0.511242  0.449264  1
  Si  Si380  1  0.665636  0.155518  0.449220  1
  Si  Si381  1  0.666051  0.511610  0.449237  1
  Si  Si382  1  0.843095  0.332588  0.449276  1
  Si  Si383  1  0.510613  0.666707  0.509092  1
  Si  Si384  1  0.510331  0.845202  0.509095  1
  Si  Si385  1  0.510100  0.844327  0.688755  1
  Si  Si386  1  0.961996  0.570123  0.706175  1
  Si  Si387  1  0.605832  0.036741  0.706163  1
  Si  Si388  1  0.606440  0.570785  0.706220  1
  Si  Si389  1  0.961978  0.392255  0.706187  1
  Si  Si390  1  0.569660  0.607605  0.603423  1
  Si  Si391  1  0.569012  0.963086  0.603452  1
  Si  Si392  1  0.902397  0.629653  0.663413  1
  Si  Si393  1  0.725079  0.096232  0.663422  1
  Si  Si394  1  0.725362  0.630119  0.663419  1
  Si  Si395  1  0.902441  0.273331  0.663392  1
  Si  Si396  1  0.629043  0.726523  0.646219  1
  Si  Si397  1  0.628763  0.903585  0.646189  1
  Si  Si398  1  0.843182  0.511216  0.620813  1
  Si  Si399  1  0.665671  0.155496  0.620859  1
  Si  Si400  1  0.666081  0.511592  0.620834  1
  Si  Si401  1  0.843128  0.332566  0.620804  1
  Si  Si402  1  0.510502  0.667291  0.688810  1
  H  H403  1  0.077349  0.434367  0.084731  1
  H  H404  1  0.354811  0.921405  0.084747  1
  H  H405  1  0.355525  0.434948  0.084745  1
  H  H406  1  0.077261  0.643347  0.084739  1
  H  H407  1  0.564453  0.644049  0.084751  1
  H  H408  1  0.563959  0.921652  0.084762  1
  H  H409  1  0.433818  0.356472  0.745800  1
  H  H410  1  0.433321  0.078452  0.745794  1
  H  H411  1  0.920500  0.564889  0.745793  1
  H  H412  1  0.642212  0.078186  0.745779  1
  H  H413  1  0.642915  0.565491  0.745806  1
  H  H414  1  0.920337  0.355827  0.745788  1
