# generated using pymatgen
data_Si32H2O65
_symmetry_space_group_name_H-M   'P 1'
_cell_length_a   20.93009487
_cell_length_b   8.49563914
_cell_length_c   80.50417745
_cell_angle_alpha   90.00000000
_cell_angle_beta   120.00000000
_cell_angle_gamma   90.00000000
_symmetry_Int_Tables_number   1
_chemical_formula_structural   Si32H2O65
_chemical_formula_sum   'Si128 H8 O260'
_cell_volume   12396.9914773
_cell_formula_units_Z   4
loop_
 _symmetry_equiv_pos_site_id
 _symmetry_equiv_pos_as_xyz
  1  'x, y, z'
loop_
 _atom_site_type_symbol
 _atom_site_label
 _atom_site_symmetry_multiplicity
 _atom_site_fract_x
 _atom_site_fract_y
 _atom_site_fract_z
 _atom_site_occupancy
  O  O1  1  0.075049  0.844307  0.227154  1
  O  O2  1  0.651204  0.844301  0.278757  1
  O  O3  1  0.273531  0.844310  0.128963  1
  O  O4  1  0.924806  0.344304  0.109433  1
  O  O5  1  0.726323  0.344299  0.207622  1
  O  O6  1  0.273532  0.844312  0.278757  1
  O  O7  1  0.075046  0.844302  0.128963  1
  O  O8  1  0.651203  0.844298  0.227154  1
  O  O9  1  0.924806  0.344307  0.207623  1
  O  O10  1  0.348655  0.344313  0.109433  1
  O  O11  1  0.171464  0.040616  0.253690  1
  O  O12  1  0.656850  0.040605  0.253690  1
  O  O13  1  0.171464  0.040615  0.127494  1
  O  O14  1  0.828388  0.540605  0.082896  1
  O  O15  1  0.343003  0.540616  0.082897  1
  O  O16  1  0.828391  0.540605  0.209092  1
  O  O17  1  0.145349  0.049819  0.219200  1
  O  O18  1  0.550308  0.049809  0.260480  1
  O  O19  1  0.304123  0.049829  0.155195  1
  O  O20  1  0.854503  0.549824  0.117387  1
  O  O21  1  0.695729  0.549817  0.181391  1
  O  O22  1  0.304126  0.049828  0.260479  1
  O  O23  1  0.145350  0.049825  0.155195  1
  O  O24  1  0.550306  0.049809  0.219199  1
  O  O25  1  0.854506  0.549820  0.181391  1
  O  O26  1  0.449549  0.549831  0.117387  1
  O  O27  1  0.039574  0.136467  0.223331  1
  O  O28  1  0.671973  0.136460  0.287979  1
  O  O29  1  0.288232  0.136475  0.123562  1
  O  O30  1  0.960280  0.636465  0.113255  1
  O  O31  1  0.711622  0.636456  0.213024  1
  O  O32  1  0.288234  0.136475  0.287980  1
  O  O33  1  0.039571  0.136469  0.123562  1
  O  O34  1  0.671973  0.136459  0.223331  1
  O  O35  1  0.960280  0.636463  0.213024  1
  O  O36  1  0.327880  0.636471  0.113255  1
  O  O37  1  0.269425  0.172391  0.228221  1
  O  O38  1  0.460931  0.172377  0.228221  1
  O  O39  1  0.269422  0.172393  0.178431  1
  O  O40  1  0.730431  0.672396  0.108365  1
  O  O41  1  0.538920  0.672408  0.108365  1
  O  O42  1  0.730429  0.672393  0.158155  1
  O  O43  1  0.179697  0.113035  0.191662  1
  O  O44  1  0.410039  0.113031  0.251549  1
  O  O45  1  0.410039  0.113031  0.191662  1
  O  O46  1  0.820154  0.613037  0.144923  1
  O  O47  1  0.589813  0.613039  0.144923  1
  O  O48  1  0.147728  0.326750  0.208417  1
  O  O49  1  0.506454  0.326743  0.259860  1
  O  O50  1  0.345597  0.326758  0.166596  1
  O  O51  1  0.852126  0.826749  0.128169  1
  O  O52  1  0.654255  0.826742  0.169990  1
  O  O53  1  0.345597  0.326753  0.259860  1
  O  O54  1  0.147727  0.326750  0.166596  1
  O  O55  1  0.506453  0.326737  0.208417  1
  O  O56  1  0.852127  0.826749  0.169990  1
  O  O57  1  0.493400  0.826760  0.128170  1
  O  O58  1  0.928725  0.083718  0.189556  1
  O  O59  1  0.418147  0.083727  0.128519  1
  O  O60  1  0.071130  0.583718  0.147030  1
  O  O61  1  0.346939  0.583729  0.279775  1
  O  O62  1  0.581713  0.583713  0.208069  1
  O  O63  1  0.928724  0.083720  0.128519  1
  O  O64  1  0.652913  0.083710  0.189556  1
  O  O65  1  0.581713  0.583713  0.279775  1
  O  O66  1  0.071132  0.583717  0.208068  1
  O  O67  1  0.346940  0.583728  0.147031  1
  O  O68  1  0.013547  0.317654  0.195692  1
  O  O69  1  0.591691  0.317650  0.294746  1
  O  O70  1  0.394540  0.317665  0.144435  1
  O  O71  1  0.986308  0.817649  0.140894  1
  O  O72  1  0.605314  0.817640  0.192152  1
  O  O73  1  0.394542  0.317663  0.294747  1
  O  O74  1  0.013545  0.317653  0.144434  1
  O  O75  1  0.591694  0.317644  0.195692  1
  O  O76  1  0.986307  0.817653  0.192151  1
  O  O77  1  0.408160  0.817659  0.140894  1
  O  O78  1  0.062949  0.466344  0.176486  1
  O  O79  1  0.468416  0.466347  0.281902  1
  O  O80  1  0.468413  0.466344  0.176485  1
  O  O81  1  0.936907  0.966336  0.160101  1
  O  O82  1  0.531436  0.966337  0.160101  1
  O  O83  1  0.075049  0.844307  0.487144  1
  O  O84  1  0.651204  0.844301  0.538747  1
  O  O85  1  0.273531  0.844310  0.388953  1
  O  O86  1  0.924806  0.344304  0.369423  1
  O  O87  1  0.348656  0.344312  0.317819  1
  O  O88  1  0.726323  0.344299  0.467612  1
  O  O89  1  0.273532  0.844312  0.538747  1
  O  O90  1  0.075046  0.844302  0.388953  1
  O  O91  1  0.651203  0.844298  0.487144  1
  O  O92  1  0.726321  0.344302  0.317819  1
  O  O93  1  0.924806  0.344307  0.467613  1
  O  O94  1  0.348655  0.344313  0.369423  1
  O  O95  1  0.171464  0.040616  0.513680  1
  O  O96  1  0.656850  0.040605  0.513680  1
  O  O97  1  0.171464  0.040615  0.387484  1
  O  O98  1  0.828388  0.540605  0.342886  1
  O  O99  1  0.343003  0.540616  0.342887  1
  O  O100  1  0.828391  0.540605  0.469082  1
  O  O101  1  0.145349  0.049819  0.479190  1
  O  O102  1  0.550308  0.049809  0.520470  1
  O  O103  1  0.304123  0.049829  0.415185  1
  O  O104  1  0.854503  0.549824  0.377377  1
  O  O105  1  0.449551  0.549834  0.336097  1
  O  O106  1  0.695729  0.549817  0.441381  1
  O  O107  1  0.304126  0.049828  0.520469  1
  O  O108  1  0.145350  0.049825  0.415185  1
  O  O109  1  0.550306  0.049809  0.479189  1
  O  O110  1  0.695728  0.549817  0.336096  1
  O  O111  1  0.854506  0.549820  0.441381  1
  O  O112  1  0.449549  0.549831  0.377377  1
  O  O113  1  0.039574  0.136467  0.483321  1
  O  O114  1  0.671973  0.136460  0.547969  1
  O  O115  1  0.288232  0.136475  0.383552  1
  O  O116  1  0.960280  0.636465  0.373245  1
  O  O117  1  0.327880  0.636470  0.308596  1
  O  O118  1  0.711622  0.636456  0.473014  1
  O  O119  1  0.288234  0.136475  0.547970  1
  O  O120  1  0.039571  0.136469  0.383552  1
  O  O121  1  0.671973  0.136459  0.483321  1
  O  O122  1  0.711622  0.636457  0.308596  1
  O  O123  1  0.960280  0.636463  0.473014  1
  O  O124  1  0.327880  0.636471  0.373245  1
  O  O125  1  0.269425  0.172391  0.488211  1
  O  O126  1  0.460931  0.172377  0.488211  1
  O  O127  1  0.269422  0.172393  0.438421  1
  O  O128  1  0.730431  0.672396  0.368355  1
  O  O129  1  0.538920  0.672408  0.368355  1
  O  O130  1  0.730429  0.672393  0.418145  1
  O  O131  1  0.179697  0.113035  0.451652  1
  O  O132  1  0.410039  0.113031  0.511539  1
  O  O133  1  0.410039  0.113031  0.451652  1
  O  O134  1  0.820154  0.613037  0.404913  1
  O  O135  1  0.589813  0.613039  0.345027  1
  O  O136  1  0.589813  0.613039  0.404913  1
  O  O137  1  0.147728  0.326750  0.468407  1
  O  O138  1  0.506454  0.326743  0.519850  1
  O  O139  1  0.345597  0.326758  0.426586  1
  O  O140  1  0.852126  0.826749  0.388159  1
  O  O141  1  0.493401  0.826757  0.336715  1
  O  O142  1  0.654255  0.826742  0.429980  1
  O  O143  1  0.345597  0.326753  0.519850  1
  O  O144  1  0.147727  0.326750  0.426586  1
  O  O145  1  0.506453  0.326737  0.468407  1
  O  O146  1  0.654254  0.826747  0.336714  1
  O  O147  1  0.852127  0.826749  0.429980  1
  O  O148  1  0.493400  0.826760  0.388160  1
  O  O149  1  0.928725  0.083718  0.449546  1
  O  O150  1  0.652912  0.083714  0.316799  1
  O  O151  1  0.418147  0.083727  0.388509  1
  O  O152  1  0.071130  0.583718  0.407020  1
  O  O153  1  0.346939  0.583729  0.539765  1
  O  O154  1  0.581713  0.583713  0.468059  1
  O  O155  1  0.418146  0.083732  0.316799  1
  O  O156  1  0.928724  0.083720  0.388509  1
  O  O157  1  0.652913  0.083710  0.449546  1
  O  O158  1  0.581713  0.583713  0.539765  1
  O  O159  1  0.071132  0.583717  0.468058  1
  O  O160  1  0.346940  0.583728  0.407021  1
  O  O161  1  0.013547  0.317654  0.455682  1
  O  O162  1  0.591691  0.317650  0.554736  1
  O  O163  1  0.394540  0.317665  0.404425  1
  O  O164  1  0.986308  0.817649  0.400884  1
  O  O165  1  0.408158  0.817654  0.301828  1
  O  O166  1  0.605314  0.817640  0.452142  1
  O  O167  1  0.394542  0.317663  0.554737  1
  O  O168  1  0.013545  0.317653  0.404424  1
  O  O169  1  0.591694  0.317644  0.455682  1
  O  O170  1  0.605314  0.817642  0.301828  1
  O  O171  1  0.986307  0.817653  0.452141  1
  O  O172  1  0.408160  0.817659  0.400884  1
  O  O173  1  0.062949  0.466344  0.436476  1
  O  O174  1  0.468416  0.466347  0.541892  1
  O  O175  1  0.468413  0.466344  0.436475  1
  O  O176  1  0.936907  0.966336  0.420091  1
  O  O177  1  0.531439  0.966337  0.314672  1
  O  O178  1  0.531436  0.966337  0.420091  1
  O  O179  1  0.075049  0.844307  0.747134  1
  O  O180  1  0.273531  0.844310  0.648943  1
  O  O181  1  0.924806  0.344304  0.629413  1
  O  O182  1  0.348656  0.344312  0.577809  1
  O  O183  1  0.726323  0.344299  0.727602  1
  O  O184  1  0.075046  0.844302  0.648943  1
  O  O185  1  0.651203  0.844298  0.747134  1
  O  O186  1  0.726321  0.344302  0.577809  1
  O  O187  1  0.924806  0.344307  0.727603  1
  O  O188  1  0.348655  0.344313  0.629413  1
  O  O189  1  0.171464  0.040616  0.773670  1
  O  O190  1  0.656850  0.040605  0.773670  1
  O  O191  1  0.171464  0.040615  0.647474  1
  O  O192  1  0.828388  0.540605  0.602876  1
  O  O193  1  0.343003  0.540616  0.602877  1
  O  O194  1  0.828391  0.540605  0.729072  1
  O  O195  1  0.145349  0.049819  0.739180  1
  O  O196  1  0.304123  0.049829  0.675175  1
  O  O197  1  0.854503  0.549824  0.637367  1
  O  O198  1  0.449551  0.549834  0.596087  1
  O  O199  1  0.695729  0.549817  0.701371  1
  O  O200  1  0.145350  0.049825  0.675175  1
  O  O201  1  0.550306  0.049809  0.739179  1
  O  O202  1  0.695728  0.549817  0.596086  1
  O  O203  1  0.854506  0.549820  0.701371  1
  O  O204  1  0.449549  0.549831  0.637367  1
  O  O205  1  0.039574  0.136467  0.743311  1
  O  O206  1  0.288232  0.136475  0.643542  1
  O  O207  1  0.960280  0.636465  0.633235  1
  O  O208  1  0.327880  0.636470  0.568586  1
  O  O209  1  0.711622  0.636456  0.733004  1
  O  O210  1  0.039571  0.136469  0.643542  1
  O  O211  1  0.671973  0.136459  0.743311  1
  O  O212  1  0.711622  0.636457  0.568586  1
  O  O213  1  0.960280  0.636463  0.733004  1
  O  O214  1  0.327880  0.636471  0.633235  1
  O  O215  1  0.269425  0.172391  0.748201  1
  O  O216  1  0.460931  0.172377  0.748201  1
  O  O217  1  0.269422  0.172393  0.698411  1
  O  O218  1  0.730431  0.672396  0.628345  1
  O  O219  1  0.538920  0.672408  0.628345  1
  O  O220  1  0.730429  0.672393  0.678135  1
  O  O221  1  0.179697  0.113035  0.711642  1
  O  O222  1  0.410039  0.113031  0.711642  1
  O  O223  1  0.820154  0.613037  0.664903  1
  O  O224  1  0.589813  0.613039  0.605017  1
  O  O225  1  0.589813  0.613039  0.664903  1
  O  O226  1  0.147728  0.326750  0.728397  1
  O  O227  1  0.345597  0.326758  0.686576  1
  O  O228  1  0.852126  0.826749  0.648149  1
  O  O229  1  0.493401  0.826757  0.596705  1
  O  O230  1  0.654255  0.826742  0.689970  1
  O  O231  1  0.147727  0.326750  0.686576  1
  O  O232  1  0.506453  0.326737  0.728397  1
  O  O233  1  0.654254  0.826747  0.596704  1
  O  O234  1  0.852127  0.826749  0.689970  1
  O  O235  1  0.493400  0.826760  0.648150  1
  O  O236  1  0.928725  0.083718  0.709536  1
  O  O237  1  0.652912  0.083714  0.576789  1
  O  O238  1  0.418147  0.083727  0.648499  1
  O  O239  1  0.071130  0.583718  0.667010  1
  O  O240  1  0.581713  0.583713  0.728049  1
  O  O241  1  0.418146  0.083732  0.576789  1
  O  O242  1  0.928724  0.083720  0.648499  1
  O  O243  1  0.652913  0.083710  0.709536  1
  O  O244  1  0.071132  0.583717  0.728048  1
  O  O245  1  0.346940  0.583728  0.667011  1
  O  O246  1  0.013547  0.317654  0.715672  1
  O  O247  1  0.394540  0.317665  0.664415  1
  O  O248  1  0.986308  0.817649  0.660874  1
  O  O249  1  0.408158  0.817654  0.561818  1
  O  O250  1  0.605314  0.817640  0.712132  1
  O  O251  1  0.013545  0.317653  0.664414  1
  O  O252  1  0.591694  0.317644  0.715672  1
  O  O253  1  0.605314  0.817642  0.561818  1
  O  O254  1  0.986307  0.817653  0.712131  1
  O  O255  1  0.408160  0.817659  0.660874  1
  O  O256  1  0.062949  0.466344  0.696466  1
  O  O257  1  0.468413  0.466344  0.696465  1
  O  O258  1  0.936907  0.966336  0.680081  1
  O  O259  1  0.531439  0.966337  0.574662  1
  O  O260  1  0.531436  0.966337  0.680081  1
  Si  Si261  1  0.108159  0.018085  0.231960  1
  Si  Si262  1  0.636578  0.018080  0.270148  1
  Si  Si263  1  0.255040  0.018085  0.132764  1
  Si  Si264  1  0.891688  0.518083  0.104624  1
  Si  Si265  1  0.744807  0.518081  0.203821  1
  Si  Si266  1  0.255045  0.018086  0.270150  1
  Si  Si267  1  0.108158  0.018081  0.132765  1
  Si  Si268  1  0.636577  0.018084  0.231960  1
  Si  Si269  1  0.891692  0.518088  0.203821  1
  Si  Si270  1  0.363272  0.518085  0.104624  1
  Si  Si271  1  0.186551  0.159448  0.211650  1
  Si  Si272  1  0.480067  0.159444  0.249767  1
  Si  Si273  1  0.333164  0.159454  0.173456  1
  Si  Si274  1  0.813301  0.659451  0.124936  1
  Si  Si275  1  0.666692  0.659446  0.163131  1
  Si  Si276  1  0.333161  0.159455  0.249768  1
  Si  Si277  1  0.186549  0.159447  0.173456  1
  Si  Si278  1  0.480068  0.159443  0.211650  1
  Si  Si279  1  0.813306  0.659450  0.163130  1
  Si  Si280  1  0.519788  0.659462  0.124935  1
  Si  Si281  1  0.974116  0.217962  0.204623  1
  Si  Si282  1  0.360193  0.217995  0.125251  1
  Si  Si283  1  0.025746  0.717984  0.131963  1
  Si  Si284  1  0.334375  0.717985  0.291576  1
  Si  Si285  1  0.639662  0.717957  0.211334  1
  Si  Si286  1  0.974111  0.217974  0.125252  1
  Si  Si287  1  0.665472  0.217960  0.204623  1
  Si  Si288  1  0.639662  0.717966  0.291576  1
  Si  Si289  1  0.025745  0.717976  0.211335  1
  Si  Si290  1  0.334370  0.717988  0.131963  1
  Si  Si291  1  0.075934  0.432015  0.197307  1
  Si  Si292  1  0.535514  0.432006  0.278526  1
  Si  Si293  1  0.388335  0.432017  0.159042  1
  Si  Si294  1  0.923921  0.932017  0.139280  1
  Si  Si295  1  0.611522  0.932007  0.177548  1
  Si  Si296  1  0.388332  0.432022  0.278526  1
  Si  Si297  1  0.075933  0.432016  0.159041  1
  Si  Si298  1  0.535516  0.432003  0.197307  1
  Si  Si299  1  0.923925  0.932011  0.177546  1
  Si  Si300  1  0.464341  0.932025  0.139281  1
  Si  Si301  1  0.108159  0.018085  0.491950  1
  Si  Si302  1  0.636578  0.018080  0.530138  1
  Si  Si303  1  0.255040  0.018085  0.392754  1
  Si  Si304  1  0.891688  0.518083  0.364614  1
  Si  Si305  1  0.363273  0.518086  0.326427  1
  Si  Si306  1  0.744807  0.518081  0.463811  1
  Si  Si307  1  0.255045  0.018086  0.530140  1
  Si  Si308  1  0.108158  0.018081  0.392755  1
  Si  Si309  1  0.636577  0.018084  0.491950  1
  Si  Si310  1  0.744810  0.518077  0.326427  1
  Si  Si311  1  0.891692  0.518088  0.463811  1
  Si  Si312  1  0.363272  0.518085  0.364614  1
  Si  Si313  1  0.186551  0.159448  0.471640  1
  Si  Si314  1  0.480067  0.159444  0.509757  1
  Si  Si315  1  0.333164  0.159454  0.433446  1
  Si  Si316  1  0.813301  0.659451  0.384926  1
  Si  Si317  1  0.519784  0.659465  0.346809  1
  Si  Si318  1  0.666692  0.659446  0.423121  1
  Si  Si319  1  0.333161  0.159455  0.509758  1
  Si  Si320  1  0.186549  0.159447  0.433446  1
  Si  Si321  1  0.480068  0.159443  0.471640  1
  Si  Si322  1  0.666693  0.659452  0.346808  1
  Si  Si323  1  0.813306  0.659450  0.423120  1
  Si  Si324  1  0.519788  0.659462  0.384925  1
  Si  Si325  1  0.974116  0.217962  0.464613  1
  Si  Si326  1  0.665475  0.217970  0.304999  1
  Si  Si327  1  0.360193  0.217995  0.385241  1
  Si  Si328  1  0.025746  0.717984  0.391953  1
  Si  Si329  1  0.334375  0.717985  0.551566  1
  Si  Si330  1  0.639662  0.717957  0.471324  1
  Si  Si331  1  0.360196  0.217995  0.305000  1
  Si  Si332  1  0.974111  0.217974  0.385242  1
  Si  Si333  1  0.665472  0.217960  0.464613  1
  Si  Si334  1  0.639662  0.717966  0.551566  1
  Si  Si335  1  0.025745  0.717976  0.471325  1
  Si  Si336  1  0.334370  0.717988  0.391953  1
  Si  Si337  1  0.075934  0.432015  0.457297  1
  Si  Si338  1  0.535514  0.432006  0.538516  1
  Si  Si339  1  0.388335  0.432017  0.419032  1
  Si  Si340  1  0.923921  0.932017  0.399270  1
  Si  Si341  1  0.464339  0.932020  0.318048  1
  Si  Si342  1  0.611522  0.932007  0.437538  1
  Si  Si343  1  0.388332  0.432022  0.538516  1
  Si  Si344  1  0.075933  0.432016  0.419031  1
  Si  Si345  1  0.535516  0.432003  0.457297  1
  Si  Si346  1  0.611520  0.932004  0.318047  1
  Si  Si347  1  0.923925  0.932011  0.437536  1
  Si  Si348  1  0.464341  0.932025  0.399271  1
  Si  Si349  1  0.108159  0.018085  0.751940  1
  Si  Si350  1  0.255040  0.018085  0.652744  1
  Si  Si351  1  0.891688  0.518083  0.624604  1
  Si  Si352  1  0.363273  0.518086  0.586417  1
  Si  Si353  1  0.744807  0.518081  0.723801  1
  Si  Si354  1  0.108158  0.018081  0.652745  1
  Si  Si355  1  0.636577  0.018084  0.751940  1
  Si  Si356  1  0.744810  0.518077  0.586417  1
  Si  Si357  1  0.891692  0.518088  0.723801  1
  Si  Si358  1  0.363272  0.518085  0.624604  1
  Si  Si359  1  0.186551  0.159448  0.731630  1
  Si  Si360  1  0.333164  0.159454  0.693436  1
  Si  Si361  1  0.813301  0.659451  0.644916  1
  Si  Si362  1  0.519784  0.659465  0.606799  1
  Si  Si363  1  0.666692  0.659446  0.683111  1
  Si  Si364  1  0.186549  0.159447  0.693436  1
  Si  Si365  1  0.480068  0.159443  0.731630  1
  Si  Si366  1  0.666693  0.659452  0.606798  1
  Si  Si367  1  0.813306  0.659450  0.683110  1
  Si  Si368  1  0.519788  0.659462  0.644915  1
  Si  Si369  1  0.974116  0.217962  0.724603  1
  Si  Si370  1  0.665475  0.217970  0.564989  1
  Si  Si371  1  0.360193  0.217995  0.645231  1
  Si  Si372  1  0.025746  0.717984  0.651943  1
  Si  Si373  1  0.639662  0.717957  0.731314  1
  Si  Si374  1  0.360196  0.217995  0.564990  1
  Si  Si375  1  0.974111  0.217974  0.645232  1
  Si  Si376  1  0.665472  0.217960  0.724603  1
  Si  Si377  1  0.025745  0.717976  0.731315  1
  Si  Si378  1  0.334370  0.717988  0.651943  1
  Si  Si379  1  0.075934  0.432015  0.717287  1
  Si  Si380  1  0.388335  0.432017  0.679022  1
  Si  Si381  1  0.923921  0.932017  0.659260  1
  Si  Si382  1  0.464339  0.932020  0.578038  1
  Si  Si383  1  0.611522  0.932007  0.697528  1
  Si  Si384  1  0.075933  0.432016  0.679021  1
  Si  Si385  1  0.535516  0.432003  0.717287  1
  Si  Si386  1  0.611520  0.932004  0.578037  1
  Si  Si387  1  0.923925  0.932011  0.697526  1
  Si  Si388  1  0.464341  0.932025  0.659261  1
  H  H389  1  0.828388  0.540605  0.071717  1
  H  H390  1  0.343003  0.540616  0.071717  1
  H  H391  1  0.730431  0.672396  0.097185  1
  H  H392  1  0.538920  0.672408  0.097185  1
  H  H393  1  0.171464  0.040616  0.784850  1
  H  H394  1  0.656850  0.040605  0.784849  1
  H  H395  1  0.269425  0.172391  0.759381  1
  H  H396  1  0.460931  0.172377  0.759380  1
