# generated using pymatgen
data_Si36H2O73
_symmetry_space_group_name_H-M   'P 1'
_cell_length_a   7.50249860
_cell_length_b   18.12388572
_cell_length_c   82.89739516
_cell_angle_alpha   90.00000000
_cell_angle_beta   90.00000000
_cell_angle_gamma   90.00000000
_symmetry_Int_Tables_number   1
_chemical_formula_structural   Si36H2O73
_chemical_formula_sum   'Si144 H8 O292'
_cell_volume   11271.925827
_cell_formula_units_Z   4
loop_
 _symmetry_equiv_pos_site_id
 _symmetry_equiv_pos_as_xyz
  1  'x, y, z'
loop_
 _atom_site_type_symbol
 _atom_site_label
 _atom_site_symmetry_multiplicity
 _atom_site_fract_x
 _atom_site_fract_y
 _atom_site_fract_z
 _atom_site_occupancy
  O  O1  1  0.580780  0.151808  0.273589  1
  O  O2  1  0.919277  0.151807  0.273589  1
  O  O3  1  0.580777  0.348054  0.273584  1
  O  O4  1  0.919297  0.348051  0.273581  1
  O  O5  1  0.250030  0.884875  0.270990  1
  O  O6  1  0.250047  0.615036  0.270975  1
  O  O7  1  0.250077  0.749927  0.281945  1
  O  O8  1  0.419160  0.970381  0.250893  1
  O  O9  1  0.080816  0.970373  0.250895  1
  O  O10  1  0.419234  0.529492  0.250889  1
  O  O11  1  0.080915  0.529472  0.250887  1
  O  O12  1  0.249992  0.860888  0.239980  1
  O  O13  1  0.250025  0.638882  0.239951  1
  O  O14  1  0.420093  0.871472  0.213818  1
  O  O15  1  0.079866  0.871468  0.213819  1
  O  O16  1  0.420173  0.628257  0.213784  1
  O  O17  1  0.079945  0.628239  0.213778  1
  O  O18  1  0.249997  0.749862  0.220014  1
  O  O19  1  0.250026  0.156817  0.262858  1
  O  O20  1  0.250037  0.343042  0.262851  1
  O  O21  1  -0.000000  0.105529  0.245259  1
  O  O22  1  0.500261  0.105536  0.245259  1
  O  O23  1  0.000000  0.394321  0.245252  1
  O  O24  1  0.500321  0.394332  0.245256  1
  O  O25  1  0.018213  0.249922  0.253726  1
  O  O26  1  0.481856  0.249929  0.253727  1
  O  O27  1  0.981063  0.000000  0.222335  1
  O  O28  1  0.518909  -0.000000  0.222334  1
  O  O29  1  0.981107  0.500678  0.222325  1
  O  O30  1  0.519014  0.500686  0.222330  1
  O  O31  1  0.749991  0.009995  0.244510  1
  O  O32  1  0.750078  0.489880  0.244506  1
  O  O33  1  0.749977  0.916978  0.208881  1
  O  O34  1  0.750055  0.582700  0.208836  1
  O  O35  1  0.992415  0.038809  0.071182  1
  O  O36  1  0.507615  0.038797  0.071182  1
  O  O37  1  0.992663  0.460573  0.071172  1
  O  O38  1  0.507559  0.460635  0.071182  1
  O  O39  1  0.007388  0.960656  0.191012  1
  O  O40  1  0.492550  0.960651  0.191011  1
  O  O41  1  0.007601  0.538805  0.190999  1
  O  O42  1  0.492374  0.538805  0.191009  1
  O  O43  1  0.078518  0.123913  0.094261  1
  O  O44  1  0.421497  0.123887  0.094263  1
  O  O45  1  0.078761  0.375189  0.094204  1
  O  O46  1  0.421471  0.375237  0.094211  1
  O  O47  1  0.921301  0.875275  0.167981  1
  O  O48  1  0.578608  0.875269  0.167979  1
  O  O49  1  0.921491  0.623935  0.167926  1
  O  O50  1  0.578501  0.623929  0.167942  1
  O  O51  1  0.250127  0.249491  0.096403  1
  O  O52  1  0.749971  0.749536  0.165793  1
  O  O53  1  0.249988  0.157396  0.119278  1
  O  O54  1  0.250093  0.342154  0.119194  1
  O  O55  1  0.749986  0.842178  0.142997  1
  O  O56  1  0.749770  0.657420  0.142923  1
  O  O57  1  0.080178  0.122216  0.144016  1
  O  O58  1  0.419704  0.122219  0.144021  1
  O  O59  1  0.079512  0.378183  0.143796  1
  O  O60  1  0.420463  0.378164  0.143808  1
  O  O61  1  0.920402  0.878158  0.118383  1
  O  O62  1  0.579456  0.878159  0.118390  1
  O  O63  1  0.919890  0.622313  0.118200  1
  O  O64  1  0.580321  0.622176  0.118167  1
  O  O65  1  0.249944  0.250207  0.142021  1
  O  O66  1  0.749881  0.750201  0.120175  1
  O  O67  1  0.006004  0.990482  0.100806  1
  O  O68  1  0.493969  0.990463  0.100807  1
  O  O69  1  0.003325  0.508485  0.100819  1
  O  O70  1  0.497061  0.508545  0.100836  1
  O  O71  1  0.996939  0.008578  0.161355  1
  O  O72  1  0.502970  0.008572  0.161355  1
  O  O73  1  0.993982  0.490519  0.161368  1
  O  O74  1  0.506065  0.490494  0.161383  1
  O  O75  1  0.750000  0.073382  0.091664  1
  O  O76  1  0.750111  0.425080  0.091547  1
  O  O77  1  0.249955  0.925107  0.170647  1
  O  O78  1  0.249999  0.573395  0.170522  1
  O  O79  1  0.249940  0.930946  0.118141  1
  O  O80  1  0.250002  0.571227  0.117101  1
  O  O81  1  0.749946  0.071211  0.145080  1
  O  O82  1  0.749996  0.430977  0.144039  1
  O  O83  1  0.995152  0.001185  0.130986  1
  O  O84  1  0.504704  0.001200  0.130986  1
  O  O85  1  0.004781  0.501197  0.131185  1
  O  O86  1  0.495140  0.501188  0.131203  1
  O  O87  1  0.580780  0.151808  0.582181  1
  O  O88  1  0.919277  0.151807  0.582181  1
  O  O89  1  0.580777  0.348054  0.582177  1
  O  O90  1  0.919297  0.348051  0.582174  1
  O  O91  1  0.419339  0.848043  0.297194  1
  O  O92  1  0.080818  0.848039  0.297197  1
  O  O93  1  0.419346  0.651794  0.297190  1
  O  O94  1  0.080847  0.651794  0.297193  1
  O  O95  1  0.750037  0.115037  0.299804  1
  O  O96  1  0.750079  0.384891  0.299788  1
  O  O97  1  0.250030  0.884875  0.579583  1
  O  O98  1  0.250047  0.615036  0.579568  1
  O  O99  1  0.750046  0.249940  0.288836  1
  O  O100  1  0.250077  0.749927  0.590537  1
  O  O101  1  0.580875  0.029471  0.319889  1
  O  O102  1  0.919195  0.029469  0.319890  1
  O  O103  1  0.580966  0.470387  0.319888  1
  O  O104  1  0.919317  0.470365  0.319886  1
  O  O105  1  0.419160  0.970381  0.559486  1
  O  O106  1  0.080816  0.970373  0.559487  1
  O  O107  1  0.419234  0.529492  0.559482  1
  O  O108  1  0.080915  0.529472  0.559479  1
  O  O109  1  0.750031  0.138867  0.330827  1
  O  O110  1  0.750094  0.360881  0.330797  1
  O  O111  1  0.249992  0.860888  0.548573  1
  O  O112  1  0.250025  0.638882  0.548544  1
  O  O113  1  0.579923  0.128237  0.356997  1
  O  O114  1  0.920150  0.128239  0.356997  1
  O  O115  1  0.580070  0.371475  0.356964  1
  O  O116  1  0.920305  0.371425  0.356953  1
  O  O117  1  0.420093  0.871472  0.522411  1
  O  O118  1  0.079866  0.871468  0.522411  1
  O  O119  1  0.420173  0.628257  0.522377  1
  O  O120  1  0.079945  0.628239  0.522370  1
  O  O121  1  0.750037  0.249848  0.350763  1
  O  O122  1  0.249997  0.749862  0.528606  1
  O  O123  1  0.250026  0.156817  0.571451  1
  O  O124  1  0.250037  0.343042  0.571444  1
  O  O125  1  0.750077  0.843029  0.307927  1
  O  O126  1  0.750101  0.656805  0.307923  1
  O  O127  1  0.000000  0.105529  0.553851  1
  O  O128  1  0.500261  0.105536  0.553851  1
  O  O129  1  -0.000000  0.394321  0.553845  1
  O  O130  1  0.500321  0.394332  0.553849  1
  O  O131  1  -0.000000  0.894315  0.325525  1
  O  O132  1  0.499791  0.894317  0.325523  1
  O  O133  1  -0.000000  0.605518  0.325523  1
  O  O134  1  0.499862  0.605534  0.325523  1
  O  O135  1  0.018213  0.249922  0.562318  1
  O  O136  1  0.481856  0.249929  0.562319  1
  O  O137  1  0.981905  0.749913  0.317054  1
  O  O138  1  0.518263  0.749917  0.317052  1
  O  O139  1  0.018990  0.000000  0.348450  1
  O  O140  1  0.481082  0.000000  0.348450  1
  O  O141  1  0.019072  0.499087  0.348446  1
  O  O142  1  0.481228  0.499118  0.348450  1
  O  O143  1  0.981063  0.000000  0.530928  1
  O  O144  1  0.518909  0.000000  0.530927  1
  O  O145  1  0.981107  0.500678  0.530918  1
  O  O146  1  0.519014  0.500686  0.530923  1
  O  O147  1  0.250040  0.989868  0.326272  1
  O  O148  1  0.250144  0.509990  0.326273  1
  O  O149  1  0.749991  0.009995  0.553102  1
  O  O150  1  0.750078  0.489880  0.553098  1
  O  O151  1  0.250033  0.082693  0.361941  1
  O  O152  1  0.250181  0.416957  0.361899  1
  O  O153  1  0.749977  0.916978  0.517474  1
  O  O154  1  0.750055  0.582700  0.517428  1
  O  O155  1  0.992415  0.038809  0.379774  1
  O  O156  1  0.507615  0.038797  0.379774  1
  O  O157  1  0.992663  0.460573  0.379765  1
  O  O158  1  0.507559  0.460635  0.379774  1
  O  O159  1  0.007388  0.960656  0.499604  1
  O  O160  1  0.492550  0.960651  0.499604  1
  O  O161  1  0.007601  0.538805  0.499592  1
  O  O162  1  0.492374  0.538805  0.499602  1
  O  O163  1  0.078518  0.123913  0.402853  1
  O  O164  1  0.421497  0.123887  0.402855  1
  O  O165  1  0.078761  0.375189  0.402797  1
  O  O166  1  0.421471  0.375237  0.402803  1
  O  O167  1  0.921301  0.875275  0.476574  1
  O  O168  1  0.578608  0.875269  0.476572  1
  O  O169  1  0.921491  0.623935  0.476519  1
  O  O170  1  0.578501  0.623929  0.476534  1
  O  O171  1  0.250127  0.249491  0.404996  1
  O  O172  1  0.749971  0.749536  0.474385  1
  O  O173  1  0.249988  0.157396  0.427870  1
  O  O174  1  0.250093  0.342154  0.427786  1
  O  O175  1  0.749986  0.842178  0.451590  1
  O  O176  1  0.749770  0.657420  0.451515  1
  O  O177  1  0.080178  0.122216  0.452609  1
  O  O178  1  0.419704  0.122219  0.452613  1
  O  O179  1  0.079512  0.378183  0.452388  1
  O  O180  1  0.420463  0.378164  0.452400  1
  O  O181  1  0.920402  0.878158  0.426975  1
  O  O182  1  0.579456  0.878159  0.426982  1
  O  O183  1  0.919890  0.622313  0.426793  1
  O  O184  1  0.580321  0.622176  0.426760  1
  O  O185  1  0.249944  0.250207  0.450614  1
  O  O186  1  0.749881  0.750201  0.428768  1
  O  O187  1  0.006004  0.990482  0.409399  1
  O  O188  1  0.493969  0.990463  0.409400  1
  O  O189  1  0.003325  0.508485  0.409411  1
  O  O190  1  0.497061  0.508545  0.409429  1
  O  O191  1  0.996939  0.008578  0.469947  1
  O  O192  1  0.502970  0.008572  0.469948  1
  O  O193  1  0.993982  0.490519  0.469960  1
  O  O194  1  0.506065  0.490494  0.469975  1
  O  O195  1  0.750000  0.073382  0.400257  1
  O  O196  1  0.750111  0.425080  0.400139  1
  O  O197  1  0.249955  0.925107  0.479240  1
  O  O198  1  0.249999  0.573395  0.479115  1
  O  O199  1  0.249940  0.930946  0.426733  1
  O  O200  1  0.250002  0.571227  0.425694  1
  O  O201  1  0.749946  0.071211  0.453673  1
  O  O202  1  0.749996  0.430977  0.452632  1
  O  O203  1  0.995152  0.001185  0.439579  1
  O  O204  1  0.504704  0.001200  0.439579  1
  O  O205  1  0.004781  0.501197  0.439777  1
  O  O206  1  0.495140  0.501188  0.439796  1
  O  O207  1  0.419339  0.848043  0.605787  1
  O  O208  1  0.080818  0.848039  0.605790  1
  O  O209  1  0.419346  0.651794  0.605783  1
  O  O210  1  0.080847  0.651794  0.605785  1
  O  O211  1  0.750037  0.115037  0.608396  1
  O  O212  1  0.750079  0.384891  0.608381  1
  O  O213  1  0.750046  0.249940  0.597428  1
  O  O214  1  0.580875  0.029471  0.628482  1
  O  O215  1  0.919195  0.029469  0.628482  1
  O  O216  1  0.580966  0.470387  0.628481  1
  O  O217  1  0.919317  0.470365  0.628478  1
  O  O218  1  0.750031  0.138867  0.639419  1
  O  O219  1  0.750094  0.360881  0.639389  1
  O  O220  1  0.579923  0.128237  0.665590  1
  O  O221  1  0.920150  0.128239  0.665589  1
  O  O222  1  0.580070  0.371475  0.665557  1
  O  O223  1  0.920305  0.371425  0.665546  1
  O  O224  1  0.750037  0.249848  0.659355  1
  O  O225  1  0.750077  0.843029  0.616519  1
  O  O226  1  0.750101  0.656805  0.616515  1
  O  O227  1  0.000000  0.894315  0.634117  1
  O  O228  1  0.499791  0.894317  0.634116  1
  O  O229  1  -0.000000  0.605518  0.634116  1
  O  O230  1  0.499862  0.605534  0.634116  1
  O  O231  1  0.981905  0.749913  0.625647  1
  O  O232  1  0.518263  0.749917  0.625644  1
  O  O233  1  0.018990  -0.000000  0.657043  1
  O  O234  1  0.481082  -0.000000  0.657042  1
  O  O235  1  0.019072  0.499087  0.657038  1
  O  O236  1  0.481228  0.499118  0.657042  1
  O  O237  1  0.250040  0.989868  0.634865  1
  O  O238  1  0.250144  0.509990  0.634866  1
  O  O239  1  0.250033  0.082693  0.670534  1
  O  O240  1  0.250181  0.416957  0.670492  1
  O  O241  1  0.992415  0.038809  0.688366  1
  O  O242  1  0.507615  0.038797  0.688366  1
  O  O243  1  0.992663  0.460573  0.688357  1
  O  O244  1  0.507559  0.460635  0.688366  1
  O  O245  1  0.007388  0.960656  0.808197  1
  O  O246  1  0.492550  0.960651  0.808196  1
  O  O247  1  0.007601  0.538805  0.808184  1
  O  O248  1  0.492374  0.538805  0.808194  1
  O  O249  1  0.078518  0.123913  0.711445  1
  O  O250  1  0.421497  0.123887  0.711448  1
  O  O251  1  0.078761  0.375189  0.711389  1
  O  O252  1  0.421471  0.375237  0.711395  1
  O  O253  1  0.921301  0.875275  0.785166  1
  O  O254  1  0.578608  0.875269  0.785164  1
  O  O255  1  0.921491  0.623935  0.785111  1
  O  O256  1  0.578501  0.623929  0.785127  1
  O  O257  1  0.250127  0.249491  0.713588  1
  O  O258  1  0.749971  0.749536  0.782978  1
  O  O259  1  0.249988  0.157396  0.736463  1
  O  O260  1  0.250093  0.342154  0.736379  1
  O  O261  1  0.749986  0.842178  0.760182  1
  O  O262  1  0.749770  0.657420  0.760107  1
  O  O263  1  0.080178  0.122216  0.761201  1
  O  O264  1  0.419704  0.122219  0.761206  1
  O  O265  1  0.079512  0.378183  0.760980  1
  O  O266  1  0.420463  0.378164  0.760993  1
  O  O267  1  0.920402  0.878158  0.735568  1
  O  O268  1  0.579456  0.878159  0.735575  1
  O  O269  1  0.919890  0.622313  0.735385  1
  O  O270  1  0.580321  0.622176  0.735352  1
  O  O271  1  0.249944  0.250207  0.759206  1
  O  O272  1  0.749881  0.750201  0.737360  1
  O  O273  1  0.006004  0.990482  0.717991  1
  O  O274  1  0.493969  0.990463  0.717992  1
  O  O275  1  0.003325  0.508485  0.718004  1
  O  O276  1  0.497061  0.508545  0.718021  1
  O  O277  1  0.996939  0.008578  0.778540  1
  O  O278  1  0.502970  0.008572  0.778540  1
  O  O279  1  0.993982  0.490519  0.778553  1
  O  O280  1  0.506065  0.490494  0.778567  1
  O  O281  1  0.750000  0.073382  0.708849  1
  O  O282  1  0.750111  0.425080  0.708732  1
  O  O283  1  0.249955  0.925107  0.787832  1
  O  O284  1  0.249999  0.573395  0.787707  1
  O  O285  1  0.249940  0.930946  0.735326  1
  O  O286  1  0.250002  0.571227  0.734286  1
  O  O287  1  0.749946  0.071211  0.762265  1
  O  O288  1  0.749996  0.430977  0.761224  1
  O  O289  1  0.995152  0.001185  0.748171  1
  O  O290  1  0.504704  0.001200  0.748171  1
  O  O291  1  0.004781  0.501197  0.748370  1
  O  O292  1  0.495140  0.501188  0.748388  1
  Si  Si293  1  0.045265  0.165548  0.258598  1
  Si  Si294  1  0.454787  0.165554  0.258599  1
  Si  Si295  1  0.045280  0.334304  0.258591  1
  Si  Si296  1  0.454800  0.334310  0.258593  1
  Si  Si297  1  0.954688  0.022467  0.240710  1
  Si  Si298  1  0.545298  0.022471  0.240709  1
  Si  Si299  1  0.954757  0.477389  0.240703  1
  Si  Si300  1  0.545386  0.477396  0.240707  1
  Si  Si301  1  0.955065  0.937727  0.208779  1
  Si  Si302  1  0.544891  0.937730  0.208778  1
  Si  Si303  1  0.955147  0.561961  0.208747  1
  Si  Si304  1  0.544954  0.561973  0.208754  1
  Si  Si305  1  0.955289  0.056931  0.089542  1
  Si  Si306  1  0.544719  0.056909  0.089543  1
  Si  Si307  1  0.955187  0.442036  0.089509  1
  Si  Si308  1  0.545047  0.442089  0.089518  1
  Si  Si309  1  0.044891  0.942121  0.172675  1
  Si  Si310  1  0.455022  0.942114  0.172675  1
  Si  Si311  1  0.044708  0.556941  0.172639  1
  Si  Si312  1  0.455276  0.556929  0.172648  1
  Si  Si313  1  0.044713  0.947826  0.116904  1
  Si  Si314  1  0.455168  0.947828  0.116906  1
  Si  Si315  1  0.044961  0.552972  0.116589  1
  Si  Si316  1  0.455016  0.552935  0.116602  1
  Si  Si317  1  0.954964  0.052948  0.145584  1
  Si  Si318  1  0.544927  0.052951  0.145586  1
  Si  Si319  1  0.955232  0.447865  0.145270  1
  Si  Si320  1  0.544762  0.447839  0.145284  1
  Si  Si321  1  0.750031  0.165174  0.284486  1
  Si  Si322  1  0.750049  0.334699  0.284479  1
  Si  Si323  1  0.249998  0.920507  0.253844  1
  Si  Si324  1  0.250054  0.579363  0.253832  1
  Si  Si325  1  0.249983  0.835556  0.221771  1
  Si  Si326  1  0.250029  0.664152  0.221738  1
  Si  Si327  1  0.250025  0.164630  0.100568  1
  Si  Si328  1  0.250135  0.334414  0.100503  1
  Si  Si329  1  0.749963  0.834456  0.161688  1
  Si  Si330  1  0.749954  0.664669  0.161631  1
  Si  Si331  1  0.249948  0.165324  0.138007  1
  Si  Si332  1  0.249999  0.335021  0.137930  1
  Si  Si333  1  0.749938  0.835018  0.124262  1
  Si  Si334  1  0.749951  0.665325  0.124194  1
  Si  Si335  1  0.045265  0.165548  0.567191  1
  Si  Si336  1  0.454787  0.165554  0.567191  1
  Si  Si337  1  0.045280  0.334304  0.567184  1
  Si  Si338  1  0.454800  0.334310  0.567186  1
  Si  Si339  1  0.954834  0.834292  0.312187  1
  Si  Si340  1  0.545314  0.834298  0.312185  1
  Si  Si341  1  0.954859  0.665536  0.312183  1
  Si  Si342  1  0.545337  0.665542  0.312181  1
  Si  Si343  1  0.045355  0.977384  0.330073  1
  Si  Si344  1  0.454726  0.977381  0.330073  1
  Si  Si345  1  0.045444  0.522456  0.330072  1
  Si  Si346  1  0.454833  0.522471  0.330075  1
  Si  Si347  1  0.954688  0.022467  0.549303  1
  Si  Si348  1  0.545298  0.022471  0.549301  1
  Si  Si349  1  0.954757  0.477389  0.549295  1
  Si  Si350  1  0.545386  0.477396  0.549300  1
  Si  Si351  1  0.044938  0.061960  0.362028  1
  Si  Si352  1  0.455127  0.061957  0.362027  1
  Si  Si353  1  0.045082  0.437683  0.361999  1
  Si  Si354  1  0.455257  0.437725  0.362006  1
  Si  Si355  1  0.955065  0.937727  0.517371  1
  Si  Si356  1  0.544891  0.937730  0.517370  1
  Si  Si357  1  0.955147  0.561961  0.517340  1
  Si  Si358  1  0.544954  0.561973  0.517346  1
  Si  Si359  1  0.955289  0.056931  0.398135  1
  Si  Si360  1  0.544719  0.056909  0.398135  1
  Si  Si361  1  0.955187  0.442036  0.398101  1
  Si  Si362  1  0.545047  0.442089  0.398110  1
  Si  Si363  1  0.044891  0.942121  0.481268  1
  Si  Si364  1  0.455022  0.942114  0.481268  1
  Si  Si365  1  0.044708  0.556941  0.481232  1
  Si  Si366  1  0.455276  0.556929  0.481241  1
  Si  Si367  1  0.044713  0.947826  0.425497  1
  Si  Si368  1  0.455168  0.947828  0.425498  1
  Si  Si369  1  0.044961  0.552972  0.425182  1
  Si  Si370  1  0.455016  0.552935  0.425195  1
  Si  Si371  1  0.954964  0.052948  0.454177  1
  Si  Si372  1  0.544927  0.052951  0.454178  1
  Si  Si373  1  0.955232  0.447865  0.453862  1
  Si  Si374  1  0.544762  0.447839  0.453877  1
  Si  Si375  1  0.750031  0.165174  0.593078  1
  Si  Si376  1  0.750049  0.334699  0.593071  1
  Si  Si377  1  0.250068  0.834687  0.286300  1
  Si  Si378  1  0.250085  0.665162  0.286295  1
  Si  Si379  1  0.750036  0.079351  0.316946  1
  Si  Si380  1  0.750117  0.420511  0.316936  1
  Si  Si381  1  0.249998  0.920507  0.562436  1
  Si  Si382  1  0.250054  0.579363  0.562424  1
  Si  Si383  1  0.750033  0.164139  0.349040  1
  Si  Si384  1  0.750123  0.335542  0.349006  1
  Si  Si385  1  0.249983  0.835556  0.530363  1
  Si  Si386  1  0.250029  0.664152  0.530330  1
  Si  Si387  1  0.250025  0.164630  0.409161  1
  Si  Si388  1  0.250135  0.334414  0.409096  1
  Si  Si389  1  0.749963  0.834456  0.470281  1
  Si  Si390  1  0.749954  0.664669  0.470224  1
  Si  Si391  1  0.249948  0.165324  0.446599  1
  Si  Si392  1  0.249999  0.335021  0.446522  1
  Si  Si393  1  0.749938  0.835018  0.432854  1
  Si  Si394  1  0.749951  0.665325  0.432787  1
  Si  Si395  1  0.954834  0.834292  0.620779  1
  Si  Si396  1  0.545314  0.834298  0.620778  1
  Si  Si397  1  0.954859  0.665536  0.620776  1
  Si  Si398  1  0.545337  0.665542  0.620773  1
  Si  Si399  1  0.045355  0.977384  0.638666  1
  Si  Si400  1  0.454726  0.977381  0.638665  1
  Si  Si401  1  0.045444  0.522456  0.638664  1
  Si  Si402  1  0.454833  0.522471  0.638667  1
  Si  Si403  1  0.044938  0.061960  0.670620  1
  Si  Si404  1  0.455127  0.061957  0.670620  1
  Si  Si405  1  0.045082  0.437683  0.670591  1
  Si  Si406  1  0.455257  0.437725  0.670598  1
  Si  Si407  1  0.955289  0.056931  0.706727  1
  Si  Si408  1  0.544719  0.056909  0.706728  1
  Si  Si409  1  0.955187  0.442036  0.706694  1
  Si  Si410  1  0.545047  0.442089  0.706703  1
  Si  Si411  1  0.044891  0.942121  0.789860  1
  Si  Si412  1  0.455022  0.942114  0.789860  1
  Si  Si413  1  0.044708  0.556941  0.789824  1
  Si  Si414  1  0.455276  0.556929  0.789833  1
  Si  Si415  1  0.044713  0.947826  0.734089  1
  Si  Si416  1  0.455168  0.947828  0.734091  1
  Si  Si417  1  0.044961  0.552972  0.733774  1
  Si  Si418  1  0.455016  0.552935  0.733787  1
  Si  Si419  1  0.954964  0.052948  0.762769  1
  Si  Si420  1  0.544927  0.052951  0.762771  1
  Si  Si421  1  0.955232  0.447865  0.762455  1
  Si  Si422  1  0.544762  0.447839  0.762469  1
  Si  Si423  1  0.250068  0.834687  0.594893  1
  Si  Si424  1  0.250085  0.665162  0.594887  1
  Si  Si425  1  0.750036  0.079351  0.625538  1
  Si  Si426  1  0.750117  0.420511  0.625528  1
  Si  Si427  1  0.750033  0.164139  0.657632  1
  Si  Si428  1  0.750123  0.335542  0.657598  1
  Si  Si429  1  0.250025  0.164630  0.717753  1
  Si  Si430  1  0.250135  0.334414  0.717688  1
  Si  Si431  1  0.749963  0.834456  0.778873  1
  Si  Si432  1  0.749954  0.664669  0.778816  1
  Si  Si433  1  0.249948  0.165324  0.755192  1
  Si  Si434  1  0.249999  0.335021  0.755115  1
  Si  Si435  1  0.749938  0.835018  0.741447  1
  Si  Si436  1  0.749951  0.665325  0.741379  1
  H  H437  1  0.992415  0.038809  0.060325  1
  H  H438  1  0.507615  0.038797  0.060325  1
  H  H439  1  0.992663  0.460573  0.060316  1
  H  H440  1  0.507559  0.460635  0.060325  1
  H  H441  1  0.007388  0.960656  0.819053  1
  H  H442  1  0.492550  0.960651  0.819053  1
  H  H443  1  0.007601  0.538805  0.819041  1
  H  H444  1  0.492374  0.538805  0.819051  1
