# generated using pymatgen
data_Si12H2O25
_symmetry_space_group_name_H-M   'P 1'
_cell_length_a   9.74992048
_cell_length_b   25.86680922
_cell_length_c   50.55547541
_cell_angle_alpha   118.34243522
_cell_angle_beta   90.00000000
_cell_angle_gamma   90.00000000
_symmetry_Int_Tables_number   1
_chemical_formula_structural   Si12H2O25
_chemical_formula_sum   'Si96 H16 O200'
_cell_volume   11221.6566442
_cell_formula_units_Z   8
loop_
 _symmetry_equiv_pos_site_id
 _symmetry_equiv_pos_as_xyz
  1  'x, y, z'
loop_
 _atom_site_type_symbol
 _atom_site_label
 _atom_site_symmetry_multiplicity
 _atom_site_fract_x
 _atom_site_fract_y
 _atom_site_fract_z
 _atom_site_occupancy
  O  O1  1  0.344696  0.527575  0.136275  1
  O  O2  1  0.155090  0.027575  0.136275  1
  O  O3  1  0.040928  0.190047  0.130174  1
  O  O4  1  0.458857  0.690048  0.130175  1
  O  O5  1  0.671056  0.148582  0.241554  1
  O  O6  1  0.828728  0.648582  0.241554  1
  O  O7  1  0.328728  0.851330  0.290801  1
  O  O8  1  0.171056  0.351330  0.290801  1
  O  O9  1  0.733860  0.075526  0.188607  1
  O  O10  1  0.765924  0.575526  0.188607  1
  O  O11  1  0.733860  0.075525  0.259010  1
  O  O12  1  0.765923  0.575525  0.259010  1
  O  O13  1  0.265924  0.924386  0.343749  1
  O  O14  1  0.233859  0.424386  0.343749  1
  O  O15  1  0.265924  0.924387  0.273346  1
  O  O16  1  0.233860  0.424387  0.273346  1
  O  O17  1  0.494461  0.131978  0.202040  1
  O  O18  1  0.005325  0.631979  0.202040  1
  O  O19  1  0.494460  0.131977  0.273002  1
  O  O20  1  0.005324  0.631977  0.273002  1
  O  O21  1  0.505324  0.867933  0.330316  1
  O  O22  1  0.994460  0.367933  0.330316  1
  O  O23  1  0.505324  0.867935  0.259354  1
  O  O24  1  0.994462  0.367936  0.259354  1
  O  O25  1  0.721126  0.185116  0.203664  1
  O  O26  1  0.778659  0.685116  0.203664  1
  O  O27  1  0.721125  0.185114  0.297192  1
  O  O28  1  0.778659  0.685115  0.297192  1
  O  O29  1  0.278658  0.814796  0.328691  1
  O  O30  1  0.221125  0.314797  0.328691  1
  O  O31  1  0.278659  0.814797  0.235163  1
  O  O32  1  0.221125  0.314797  0.235163  1
  O  O33  1  0.371780  0.478596  0.321715  1
  O  O34  1  0.128005  0.978596  0.321715  1
  O  O35  1  0.628004  0.521316  0.210640  1
  O  O36  1  0.871780  0.021316  0.210640  1
  O  O37  1  0.344698  0.527577  0.288048  1
  O  O38  1  0.155086  0.027577  0.288048  1
  O  O39  1  0.344696  0.527575  0.379177  1
  O  O40  1  0.155090  0.027575  0.379177  1
  O  O41  1  0.655087  0.472336  0.244307  1
  O  O42  1  0.844697  0.972336  0.244308  1
  O  O43  1  0.655090  0.472337  0.153179  1
  O  O44  1  0.844695  0.972337  0.153179  1
  O  O45  1  0.491560  0.435755  0.270859  1
  O  O46  1  0.008225  0.935754  0.270859  1
  O  O47  1  0.491560  0.435754  0.351758  1
  O  O48  1  0.008225  0.935754  0.351758  1
  O  O49  1  0.508224  0.564158  0.261496  1
  O  O50  1  0.991562  0.064158  0.261497  1
  O  O51  1  0.508224  0.564158  0.180597  1
  O  O52  1  0.991559  0.064158  0.180597  1
  O  O53  1  0.058963  0.132879  0.315812  1
  O  O54  1  0.440822  0.632880  0.315812  1
  O  O55  1  0.058967  0.132877  0.159666  1
  O  O56  1  0.440819  0.632879  0.159667  1
  O  O57  1  0.940823  0.867033  0.216543  1
  O  O58  1  0.558963  0.367033  0.216543  1
  O  O59  1  0.940819  0.867034  0.372689  1
  O  O60  1  0.558965  0.367035  0.372690  1
  O  O61  1  0.235135  0.106794  0.274332  1
  O  O62  1  0.264649  0.606794  0.274332  1
  O  O63  1  0.235134  0.106794  0.188475  1
  O  O64  1  0.264648  0.606794  0.188475  1
  O  O65  1  0.764650  0.893119  0.258024  1
  O  O66  1  0.735133  0.393119  0.258023  1
  O  O67  1  0.764649  0.893119  0.343881  1
  O  O68  1  0.735135  0.393119  0.343881  1
  O  O69  1  0.816381  0.343961  0.289012  1
  O  O70  1  0.683404  0.843961  0.289012  1
  O  O71  1  0.183403  0.655951  0.243344  1
  O  O72  1  0.316381  0.155951  0.243345  1
  O  O73  1  0.818366  0.287481  0.318808  1
  O  O74  1  0.681420  0.787480  0.318808  1
  O  O75  1  0.818374  0.287482  0.231778  1
  O  O76  1  0.681415  0.787483  0.231777  1
  O  O77  1  0.181431  0.712430  0.213545  1
  O  O78  1  0.318365  0.212431  0.213547  1
  O  O79  1  0.181423  0.712427  0.300579  1
  O  O80  1  0.318361  0.212427  0.300579  1
  O  O81  1  0.040928  0.190047  0.373076  1
  O  O82  1  0.458857  0.690048  0.373077  1
  O  O83  1  0.958856  0.809865  0.159279  1
  O  O84  1  0.540928  0.309865  0.159279  1
  O  O85  1  0.653242  0.264176  0.350068  1
  O  O86  1  0.846543  0.764176  0.350068  1
  O  O87  1  0.653241  0.264174  0.189194  1
  O  O88  1  0.846543  0.764176  0.189196  1
  O  O89  1  0.346541  0.735731  0.182289  1
  O  O90  1  0.153245  0.235737  0.182288  1
  O  O91  1  0.346543  0.735732  0.343157  1
  O  O92  1  0.153242  0.235732  0.343157  1
  O  O93  1  0.896041  0.220063  0.339947  1
  O  O94  1  0.603743  0.720063  0.339947  1
  O  O95  1  0.896036  0.220062  0.177886  1
  O  O96  1  0.603743  0.720061  0.177886  1
  O  O97  1  0.103742  0.779850  0.192408  1
  O  O98  1  0.396037  0.279848  0.192408  1
  O  O99  1  0.103743  0.779852  0.354470  1
  O  O100  1  0.396042  0.279852  0.354470  1
  O  O101  1  0.671056  0.148582  0.484456  1
  O  O102  1  0.828728  0.648582  0.484456  1
  O  O103  1  0.328728  0.851330  0.533703  1
  O  O104  1  0.171056  0.351330  0.533703  1
  O  O105  1  0.733860  0.075526  0.431509  1
  O  O106  1  0.765924  0.575526  0.431509  1
  O  O107  1  0.733860  0.075525  0.501911  1
  O  O108  1  0.765923  0.575525  0.501911  1
  O  O109  1  0.265924  0.924386  0.586650  1
  O  O110  1  0.233859  0.424386  0.586650  1
  O  O111  1  0.265924  0.924387  0.516248  1
  O  O112  1  0.233860  0.424387  0.516248  1
  O  O113  1  0.494461  0.131978  0.444941  1
  O  O114  1  0.005325  0.631979  0.444942  1
  O  O115  1  0.494460  0.131977  0.515904  1
  O  O116  1  0.005324  0.631977  0.515903  1
  O  O117  1  0.505324  0.867933  0.573218  1
  O  O118  1  0.994460  0.367933  0.573218  1
  O  O119  1  0.505324  0.867935  0.502255  1
  O  O120  1  0.994462  0.367936  0.502256  1
  O  O121  1  0.721126  0.185116  0.446566  1
  O  O122  1  0.778659  0.685116  0.446566  1
  O  O123  1  0.721125  0.185114  0.540094  1
  O  O124  1  0.778659  0.685115  0.540094  1
  O  O125  1  0.278658  0.814796  0.571593  1
  O  O126  1  0.221125  0.314797  0.571593  1
  O  O127  1  0.278659  0.814797  0.478065  1
  O  O128  1  0.221125  0.314797  0.478065  1
  O  O129  1  0.371780  0.478596  0.564617  1
  O  O130  1  0.128005  0.978596  0.564617  1
  O  O131  1  0.628004  0.521316  0.453542  1
  O  O132  1  0.871780  0.021316  0.453542  1
  O  O133  1  0.344698  0.527577  0.530950  1
  O  O134  1  0.155086  0.027577  0.530950  1
  O  O135  1  0.344696  0.527575  0.622079  1
  O  O136  1  0.155090  0.027575  0.622079  1
  O  O137  1  0.655087  0.472336  0.487209  1
  O  O138  1  0.844697  0.972336  0.487209  1
  O  O139  1  0.655090  0.472337  0.396080  1
  O  O140  1  0.844695  0.972337  0.396081  1
  O  O141  1  0.491560  0.435755  0.513761  1
  O  O142  1  0.008225  0.935754  0.513761  1
  O  O143  1  0.491560  0.435754  0.594660  1
  O  O144  1  0.008225  0.935754  0.594660  1
  O  O145  1  0.508224  0.564158  0.504398  1
  O  O146  1  0.991562  0.064158  0.504398  1
  O  O147  1  0.508224  0.564158  0.423499  1
  O  O148  1  0.991559  0.064158  0.423499  1
  O  O149  1  0.058963  0.132879  0.558714  1
  O  O150  1  0.440822  0.632880  0.558714  1
  O  O151  1  0.058967  0.132877  0.402568  1
  O  O152  1  0.440819  0.632879  0.402568  1
  O  O153  1  0.940823  0.867033  0.459445  1
  O  O154  1  0.558963  0.367033  0.459445  1
  O  O155  1  0.940819  0.867034  0.615591  1
  O  O156  1  0.558965  0.367035  0.615591  1
  O  O157  1  0.235135  0.106794  0.517234  1
  O  O158  1  0.264649  0.606794  0.517234  1
  O  O159  1  0.235134  0.106794  0.431377  1
  O  O160  1  0.264648  0.606794  0.431377  1
  O  O161  1  0.764650  0.893119  0.500926  1
  O  O162  1  0.735133  0.393119  0.500925  1
  O  O163  1  0.764649  0.893119  0.586782  1
  O  O164  1  0.735135  0.393119  0.586782  1
  O  O165  1  0.816381  0.343961  0.531914  1
  O  O166  1  0.683404  0.843961  0.531913  1
  O  O167  1  0.183403  0.655951  0.486246  1
  O  O168  1  0.316381  0.155951  0.486246  1
  O  O169  1  0.818366  0.287481  0.561710  1
  O  O170  1  0.681420  0.787480  0.561710  1
  O  O171  1  0.818374  0.287482  0.474679  1
  O  O172  1  0.681415  0.787483  0.474679  1
  O  O173  1  0.181431  0.712430  0.456447  1
  O  O174  1  0.318365  0.212431  0.456449  1
  O  O175  1  0.181423  0.712427  0.543481  1
  O  O176  1  0.318361  0.212427  0.543481  1
  O  O177  1  0.040928  0.190047  0.615977  1
  O  O178  1  0.458857  0.690048  0.615979  1
  O  O179  1  0.958856  0.809865  0.402181  1
  O  O180  1  0.540928  0.309865  0.402180  1
  O  O181  1  0.653242  0.264176  0.592970  1
  O  O182  1  0.846543  0.764176  0.592969  1
  O  O183  1  0.653241  0.264174  0.432096  1
  O  O184  1  0.846543  0.764176  0.432098  1
  O  O185  1  0.346541  0.735731  0.425190  1
  O  O186  1  0.153245  0.235737  0.425190  1
  O  O187  1  0.346543  0.735732  0.586059  1
  O  O188  1  0.153242  0.235732  0.586059  1
  O  O189  1  0.896041  0.220063  0.582849  1
  O  O190  1  0.603743  0.720063  0.582849  1
  O  O191  1  0.896036  0.220062  0.420788  1
  O  O192  1  0.603743  0.720061  0.420787  1
  O  O193  1  0.103742  0.779850  0.435310  1
  O  O194  1  0.396037  0.279848  0.435310  1
  O  O195  1  0.103743  0.779852  0.597372  1
  O  O196  1  0.396042  0.279852  0.597372  1
  O  O197  1  0.655090  0.472337  0.638982  1
  O  O198  1  0.844695  0.972337  0.638982  1
  O  O199  1  0.958856  0.809865  0.645083  1
  O  O200  1  0.540928  0.309865  0.645082  1
  Si  Si201  1  0.653671  0.134764  0.207842  1
  Si  Si202  1  0.846115  0.634763  0.207842  1
  Si  Si203  1  0.653669  0.134762  0.268553  1
  Si  Si204  1  0.846115  0.634761  0.268552  1
  Si  Si205  1  0.346116  0.865150  0.324514  1
  Si  Si206  1  0.153668  0.365150  0.324514  1
  Si  Si207  1  0.346116  0.865151  0.263803  1
  Si  Si208  1  0.153672  0.365150  0.263802  1
  Si  Si209  1  0.358233  0.467576  0.288511  1
  Si  Si210  1  0.141553  0.967576  0.288510  1
  Si  Si211  1  0.358231  0.467575  0.349566  1
  Si  Si212  1  0.141554  0.967574  0.349566  1
  Si  Si213  1  0.641550  0.532337  0.243845  1
  Si  Si214  1  0.858233  0.032337  0.243845  1
  Si  Si215  1  0.641552  0.532338  0.182790  1
  Si  Si216  1  0.858233  0.032338  0.182790  1
  Si  Si217  1  0.111139  0.082805  0.284964  1
  Si  Si218  1  0.388644  0.582805  0.284964  1
  Si  Si219  1  0.111141  0.082804  0.166189  1
  Si  Si220  1  0.388643  0.582804  0.166188  1
  Si  Si221  1  0.888645  0.917108  0.247391  1
  Si  Si222  1  0.611138  0.417108  0.247392  1
  Si  Si223  1  0.888643  0.917108  0.366167  1
  Si  Si224  1  0.611141  0.417108  0.366167  1
  Si  Si225  1  0.840918  0.349200  0.259705  1
  Si  Si226  1  0.658865  0.849200  0.259705  1
  Si  Si227  1  0.840918  0.349199  0.320863  1
  Si  Si228  1  0.658866  0.849200  0.320863  1
  Si  Si229  1  0.158866  0.650713  0.272651  1
  Si  Si230  1  0.340919  0.150713  0.272652  1
  Si  Si231  1  0.158867  0.650714  0.211492  1
  Si  Si232  1  0.340917  0.150713  0.211493  1
  Si  Si233  1  0.036199  0.194799  0.162037  1
  Si  Si234  1  0.463581  0.694799  0.162037  1
  Si  Si235  1  0.036203  0.194801  0.343523  1
  Si  Si236  1  0.463582  0.694800  0.343523  1
  Si  Si237  1  0.963584  0.805114  0.370319  1
  Si  Si238  1  0.536202  0.305113  0.370319  1
  Si  Si239  1  0.963584  0.805113  0.188832  1
  Si  Si240  1  0.536198  0.305112  0.188833  1
  Si  Si241  1  0.772239  0.238550  0.326691  1
  Si  Si242  1  0.727546  0.738550  0.326691  1
  Si  Si243  1  0.772240  0.238550  0.200124  1
  Si  Si244  1  0.727545  0.738550  0.200124  1
  Si  Si245  1  0.227545  0.761363  0.205665  1
  Si  Si246  1  0.272239  0.261362  0.205665  1
  Si  Si247  1  0.227542  0.761363  0.332232  1
  Si  Si248  1  0.272242  0.261363  0.332232  1
  Si  Si249  1  0.653671  0.134764  0.450744  1
  Si  Si250  1  0.846115  0.634763  0.450744  1
  Si  Si251  1  0.653669  0.134762  0.511455  1
  Si  Si252  1  0.846115  0.634761  0.511454  1
  Si  Si253  1  0.346116  0.865150  0.567416  1
  Si  Si254  1  0.153668  0.365150  0.567416  1
  Si  Si255  1  0.346116  0.865151  0.506705  1
  Si  Si256  1  0.153672  0.365150  0.506704  1
  Si  Si257  1  0.358233  0.467576  0.531412  1
  Si  Si258  1  0.141553  0.967576  0.531412  1
  Si  Si259  1  0.358231  0.467575  0.592467  1
  Si  Si260  1  0.141554  0.967574  0.592467  1
  Si  Si261  1  0.641550  0.532337  0.486747  1
  Si  Si262  1  0.858233  0.032337  0.486747  1
  Si  Si263  1  0.641552  0.532338  0.425692  1
  Si  Si264  1  0.858233  0.032338  0.425692  1
  Si  Si265  1  0.111139  0.082805  0.527866  1
  Si  Si266  1  0.388644  0.582805  0.527866  1
  Si  Si267  1  0.111141  0.082804  0.409090  1
  Si  Si268  1  0.388643  0.582804  0.409090  1
  Si  Si269  1  0.888645  0.917108  0.490293  1
  Si  Si270  1  0.611138  0.417108  0.490294  1
  Si  Si271  1  0.888643  0.917108  0.609069  1
  Si  Si272  1  0.611141  0.417108  0.609069  1
  Si  Si273  1  0.840918  0.349200  0.502607  1
  Si  Si274  1  0.658865  0.849200  0.502607  1
  Si  Si275  1  0.840918  0.349199  0.563765  1
  Si  Si276  1  0.658866  0.849200  0.563765  1
  Si  Si277  1  0.158866  0.650713  0.515553  1
  Si  Si278  1  0.340919  0.150713  0.515553  1
  Si  Si279  1  0.158867  0.650714  0.454394  1
  Si  Si280  1  0.340917  0.150713  0.454394  1
  Si  Si281  1  0.036199  0.194799  0.404939  1
  Si  Si282  1  0.463581  0.694799  0.404939  1
  Si  Si283  1  0.036203  0.194801  0.586424  1
  Si  Si284  1  0.463582  0.694800  0.586425  1
  Si  Si285  1  0.963584  0.805114  0.613221  1
  Si  Si286  1  0.536202  0.305113  0.613220  1
  Si  Si287  1  0.963584  0.805113  0.431734  1
  Si  Si288  1  0.536198  0.305112  0.431734  1
  Si  Si289  1  0.772239  0.238550  0.569593  1
  Si  Si290  1  0.727546  0.738550  0.569593  1
  Si  Si291  1  0.772240  0.238550  0.443026  1
  Si  Si292  1  0.727545  0.738550  0.443025  1
  Si  Si293  1  0.227545  0.761363  0.448566  1
  Si  Si294  1  0.272239  0.261362  0.448567  1
  Si  Si295  1  0.227542  0.761363  0.575134  1
  Si  Si296  1  0.272242  0.261363  0.575134  1
  H  H297  1  0.344696  0.527575  0.118473  1
  H  H298  1  0.155090  0.027575  0.118473  1
  H  H299  1  0.040928  0.190047  0.112372  1
  H  H300  1  0.458857  0.690048  0.112373  1
  H  H301  1  0.655090  0.472337  0.135376  1
  H  H302  1  0.844695  0.972337  0.135377  1
  H  H303  1  0.958856  0.809865  0.141477  1
  H  H304  1  0.540928  0.309865  0.141476  1
  H  H305  1  0.344696  0.527575  0.639881  1
  H  H306  1  0.155090  0.027575  0.639881  1
  H  H307  1  0.040928  0.190047  0.633780  1
  H  H308  1  0.458857  0.690048  0.633781  1
  H  H309  1  0.655090  0.472337  0.656784  1
  H  H310  1  0.844695  0.972337  0.656785  1
  H  H311  1  0.958856  0.809865  0.662885  1
  H  H312  1  0.540928  0.309865  0.662884  1
