# generated using pymatgen
data_Si6H2O13
_symmetry_space_group_name_H-M   'P 1'
_cell_length_a   9.74992048
_cell_length_b   25.86680922
_cell_length_c   38.27546147
_cell_angle_alpha   118.34243522
_cell_angle_beta   90.00000000
_cell_angle_gamma   90.00000000
_symmetry_Int_Tables_number   1
_chemical_formula_structural   Si6H2O13
_chemical_formula_sum   'Si48 H16 O104'
_cell_volume   8495.8964985
_cell_formula_units_Z   8
loop_
 _symmetry_equiv_pos_site_id
 _symmetry_equiv_pos_as_xyz
  1  'x, y, z'
loop_
 _atom_site_type_symbol
 _atom_site_label
 _atom_site_symmetry_multiplicity
 _atom_site_fract_x
 _atom_site_fract_y
 _atom_site_fract_z
 _atom_site_occupancy
  O  O1  1  0.344696  0.527575  0.179997  1
  O  O2  1  0.155090  0.027575  0.179997  1
  O  O3  1  0.040928  0.190047  0.171938  1
  O  O4  1  0.458857  0.690048  0.171940  1
  O  O5  1  0.671056  0.148582  0.319053  1
  O  O6  1  0.828728  0.648582  0.319053  1
  O  O7  1  0.328728  0.851330  0.384100  1
  O  O8  1  0.171056  0.351330  0.384100  1
  O  O9  1  0.733860  0.075526  0.249118  1
  O  O10  1  0.765924  0.575526  0.249118  1
  O  O11  1  0.733860  0.075525  0.342108  1
  O  O12  1  0.765923  0.575525  0.342108  1
  O  O13  1  0.265924  0.924386  0.454034  1
  O  O14  1  0.233859  0.424386  0.454034  1
  O  O15  1  0.265924  0.924387  0.361044  1
  O  O16  1  0.233860  0.424387  0.361044  1
  O  O17  1  0.494461  0.131978  0.266860  1
  O  O18  1  0.005325  0.631979  0.266861  1
  O  O19  1  0.494460  0.131977  0.360590  1
  O  O20  1  0.005324  0.631977  0.360589  1
  O  O21  1  0.505324  0.867933  0.436292  1
  O  O22  1  0.994460  0.367933  0.436292  1
  O  O23  1  0.505324  0.867935  0.342563  1
  O  O24  1  0.994462  0.367936  0.342563  1
  O  O25  1  0.721126  0.185116  0.269006  1
  O  O26  1  0.778659  0.685116  0.269006  1
  O  O27  1  0.721125  0.185114  0.392541  1
  O  O28  1  0.778659  0.685115  0.392541  1
  O  O29  1  0.278658  0.814796  0.434146  1
  O  O30  1  0.221125  0.314797  0.434146  1
  O  O31  1  0.278659  0.814797  0.310611  1
  O  O32  1  0.221125  0.314797  0.310611  1
  O  O33  1  0.371780  0.478596  0.424932  1
  O  O34  1  0.128005  0.978596  0.424932  1
  O  O35  1  0.628004  0.521316  0.278221  1
  O  O36  1  0.871780  0.021316  0.278221  1
  O  O37  1  0.344698  0.527577  0.380463  1
  O  O38  1  0.155086  0.027577  0.380463  1
  O  O39  1  0.344696  0.527575  0.500829  1
  O  O40  1  0.155090  0.027575  0.500829  1
  O  O41  1  0.655087  0.472336  0.322689  1
  O  O42  1  0.844697  0.972336  0.322689  1
  O  O43  1  0.655090  0.472337  0.202323  1
  O  O44  1  0.844695  0.972337  0.202324  1
  O  O45  1  0.491560  0.435755  0.357760  1
  O  O46  1  0.008225  0.935754  0.357760  1
  O  O47  1  0.491560  0.435754  0.464613  1
  O  O48  1  0.008225  0.935754  0.464613  1
  O  O49  1  0.508224  0.564158  0.345393  1
  O  O50  1  0.991562  0.064158  0.345393  1
  O  O51  1  0.508224  0.564158  0.238539  1
  O  O52  1  0.991559  0.064158  0.238539  1
  O  O53  1  0.058963  0.132879  0.417135  1
  O  O54  1  0.440822  0.632880  0.417135  1
  O  O55  1  0.058967  0.132877  0.210892  1
  O  O56  1  0.440819  0.632879  0.210893  1
  O  O57  1  0.940823  0.867033  0.286017  1
  O  O58  1  0.558963  0.367033  0.286018  1
  O  O59  1  0.940819  0.867034  0.492260  1
  O  O60  1  0.558965  0.367035  0.492261  1
  O  O61  1  0.235135  0.106794  0.362347  1
  O  O62  1  0.264649  0.606794  0.362347  1
  O  O63  1  0.235134  0.106794  0.248944  1
  O  O64  1  0.264648  0.606794  0.248944  1
  O  O65  1  0.764650  0.893119  0.340806  1
  O  O66  1  0.735133  0.393119  0.340806  1
  O  O67  1  0.764649  0.893119  0.454209  1
  O  O68  1  0.735135  0.393119  0.454209  1
  O  O69  1  0.816381  0.343961  0.381736  1
  O  O70  1  0.683404  0.843961  0.381736  1
  O  O71  1  0.183403  0.655951  0.321417  1
  O  O72  1  0.316381  0.155951  0.321417  1
  O  O73  1  0.818366  0.287481  0.421092  1
  O  O74  1  0.681420  0.787480  0.421092  1
  O  O75  1  0.818374  0.287482  0.306139  1
  O  O76  1  0.681415  0.787483  0.306139  1
  O  O77  1  0.181431  0.712430  0.282058  1
  O  O78  1  0.318365  0.212431  0.282060  1
  O  O79  1  0.181423  0.712427  0.397014  1
  O  O80  1  0.318361  0.212427  0.397015  1
  O  O81  1  0.040928  0.190047  0.492771  1
  O  O82  1  0.458857  0.690048  0.492772  1
  O  O83  1  0.958856  0.809865  0.210381  1
  O  O84  1  0.540928  0.309865  0.210380  1
  O  O85  1  0.653242  0.264176  0.462381  1
  O  O86  1  0.846543  0.764176  0.462381  1
  O  O87  1  0.653241  0.264174  0.249894  1
  O  O88  1  0.846543  0.764176  0.249896  1
  O  O89  1  0.346541  0.735731  0.240773  1
  O  O90  1  0.153245  0.235737  0.240772  1
  O  O91  1  0.346543  0.735732  0.453253  1
  O  O92  1  0.153242  0.235732  0.453254  1
  O  O93  1  0.896041  0.220063  0.449013  1
  O  O94  1  0.603743  0.720063  0.449013  1
  O  O95  1  0.896036  0.220062  0.234958  1
  O  O96  1  0.603743  0.720061  0.234957  1
  O  O97  1  0.103742  0.779850  0.254139  1
  O  O98  1  0.396037  0.279848  0.254139  1
  O  O99  1  0.103743  0.779852  0.468196  1
  O  O100  1  0.396042  0.279852  0.468196  1
  O  O101  1  0.655090  0.472337  0.523156  1
  O  O102  1  0.844695  0.972337  0.523156  1
  O  O103  1  0.958856  0.809865  0.531214  1
  O  O104  1  0.540928  0.309865  0.531213  1
  Si  Si105  1  0.653671  0.134764  0.274524  1
  Si  Si106  1  0.846115  0.634763  0.274524  1
  Si  Si107  1  0.653669  0.134762  0.354714  1
  Si  Si108  1  0.846115  0.634761  0.354713  1
  Si  Si109  1  0.346116  0.865150  0.428628  1
  Si  Si110  1  0.153668  0.365150  0.428628  1
  Si  Si111  1  0.346116  0.865151  0.348440  1
  Si  Si112  1  0.153672  0.365150  0.348439  1
  Si  Si113  1  0.358233  0.467576  0.381074  1
  Si  Si114  1  0.141553  0.967576  0.381074  1
  Si  Si115  1  0.358231  0.467575  0.461718  1
  Si  Si116  1  0.141554  0.967574  0.461718  1
  Si  Si117  1  0.641550  0.532337  0.322079  1
  Si  Si118  1  0.858233  0.032337  0.322079  1
  Si  Si119  1  0.641552  0.532338  0.241435  1
  Si  Si120  1  0.858233  0.032338  0.241435  1
  Si  Si121  1  0.111139  0.082805  0.376390  1
  Si  Si122  1  0.388644  0.582805  0.376390  1
  Si  Si123  1  0.111141  0.082804  0.219507  1
  Si  Si124  1  0.388643  0.582804  0.219507  1
  Si  Si125  1  0.888645  0.917108  0.326762  1
  Si  Si126  1  0.611138  0.417108  0.326763  1
  Si  Si127  1  0.888643  0.917108  0.483645  1
  Si  Si128  1  0.611141  0.417108  0.483645  1
  Si  Si129  1  0.840918  0.349200  0.343027  1
  Si  Si130  1  0.658865  0.849200  0.343027  1
  Si  Si131  1  0.840918  0.349199  0.423807  1
  Si  Si132  1  0.658866  0.849200  0.423807  1
  Si  Si133  1  0.158866  0.650713  0.360126  1
  Si  Si134  1  0.340919  0.150713  0.360127  1
  Si  Si135  1  0.158867  0.650714  0.279346  1
  Si  Si136  1  0.340917  0.150713  0.279346  1
  Si  Si137  1  0.036199  0.194799  0.214024  1
  Si  Si138  1  0.463581  0.694799  0.214024  1
  Si  Si139  1  0.036203  0.194801  0.453736  1
  Si  Si140  1  0.463582  0.694800  0.453736  1
  Si  Si141  1  0.963584  0.805114  0.489130  1
  Si  Si142  1  0.536202  0.305113  0.489129  1
  Si  Si143  1  0.963584  0.805113  0.249416  1
  Si  Si144  1  0.536198  0.305112  0.249416  1
  Si  Si145  1  0.772239  0.238550  0.431504  1
  Si  Si146  1  0.727546  0.738550  0.431504  1
  Si  Si147  1  0.772240  0.238550  0.264330  1
  Si  Si148  1  0.727545  0.738550  0.264330  1
  Si  Si149  1  0.227545  0.761363  0.271649  1
  Si  Si150  1  0.272239  0.261362  0.271649  1
  Si  Si151  1  0.227542  0.761363  0.438823  1
  Si  Si152  1  0.272242  0.261363  0.438823  1
  H  H153  1  0.344696  0.527575  0.156483  1
  H  H154  1  0.155090  0.027575  0.156483  1
  H  H155  1  0.040928  0.190047  0.148424  1
  H  H156  1  0.458857  0.690048  0.148426  1
  H  H157  1  0.344696  0.527575  0.524343  1
  H  H158  1  0.155090  0.027575  0.524343  1
  H  H159  1  0.655090  0.472337  0.178810  1
  H  H160  1  0.844695  0.972337  0.178810  1
  H  H161  1  0.040928  0.190047  0.516284  1
  H  H162  1  0.458857  0.690048  0.516286  1
  H  H163  1  0.958856  0.809865  0.186867  1
  H  H164  1  0.540928  0.309865  0.186867  1
  H  H165  1  0.655090  0.472337  0.546670  1
  H  H166  1  0.844695  0.972337  0.546670  1
  H  H167  1  0.958856  0.809865  0.554727  1
  H  H168  1  0.540928  0.309865  0.554727  1
