# generated using pymatgen
data_Si24H2O49
_symmetry_space_group_name_H-M   'P 1'
_cell_length_a   15.90377525
_cell_length_b   18.27783093
_cell_length_c   41.09759617
_cell_angle_alpha   90.00000000
_cell_angle_beta   90.00000000
_cell_angle_gamma   90.00000000
_symmetry_Int_Tables_number   1
_chemical_formula_structural   Si24H2O49
_chemical_formula_sum   'Si96 H8 O196'
_cell_volume   11946.5170129
_cell_formula_units_Z   4
loop_
 _symmetry_equiv_pos_site_id
 _symmetry_equiv_pos_as_xyz
  1  'x, y, z'
loop_
 _atom_site_type_symbol
 _atom_site_label
 _atom_site_symmetry_multiplicity
 _atom_site_fract_x
 _atom_site_fract_y
 _atom_site_fract_z
 _atom_site_occupancy
  O  O1  1  0.174075  0.053311  0.143561  1
  O  O2  1  0.172342  0.356260  0.329421  1
  O  O3  1  0.827388  0.643783  0.329696  1
  O  O4  1  0.327538  0.856214  0.329408  1
  O  O5  1  0.672362  0.143773  0.329646  1
  O  O6  1  0.827361  0.643869  0.426909  1
  O  O7  1  0.172794  0.356132  0.426980  1
  O  O8  1  0.672523  0.143911  0.426991  1
  O  O9  1  0.327086  0.855993  0.426944  1
  O  O10  1  0.672490  0.356175  0.564152  1
  O  O11  1  0.327670  0.643829  0.564230  1
  O  O12  1  0.827415  0.856209  0.564232  1
  O  O13  1  0.172219  0.143688  0.564189  1
  O  O14  1  0.327208  0.643958  0.192178  1
  O  O15  1  0.672514  0.356092  0.192451  1
  O  O16  1  0.172674  0.143908  0.192155  1
  O  O17  1  0.827207  0.856119  0.192374  1
  O  O18  1  0.234513  0.479957  0.321445  1
  O  O19  1  0.766165  0.519942  0.321251  1
  O  O20  1  0.265779  0.980033  0.321336  1
  O  O21  1  0.734538  0.020165  0.321564  1
  O  O22  1  0.766257  0.519904  0.435371  1
  O  O23  1  0.234841  0.479825  0.435063  1
  O  O24  1  0.733281  0.019847  0.435547  1
  O  O25  1  0.265064  0.979696  0.435072  1
  O  O26  1  0.734872  0.479795  0.556240  1
  O  O27  1  0.266215  0.519951  0.555935  1
  O  O28  1  0.764694  0.979711  0.556430  1
  O  O29  1  0.233670  0.019817  0.555929  1
  O  O30  1  0.265906  0.520068  0.200584  1
  O  O31  1  0.734733  0.479836  0.200380  1
  O  O32  1  0.234390  0.020143  0.200473  1
  O  O33  1  0.765919  0.980084  0.200704  1
  O  O34  1  0.073560  0.466404  0.329921  1
  O  O35  1  0.926677  0.533917  0.329909  1
  O  O36  1  0.426582  0.966250  0.329956  1
  O  O37  1  0.573541  0.033640  0.329993  1
  O  O38  1  0.926910  0.534061  0.426682  1
  O  O39  1  0.073830  0.466404  0.426718  1
  O  O40  1  0.572857  0.034184  0.426649  1
  O  O41  1  0.426006  0.966293  0.426666  1
  O  O42  1  0.573816  0.466476  0.564598  1
  O  O43  1  0.426913  0.533976  0.564635  1
  O  O44  1  0.925874  0.966643  0.564575  1
  O  O45  1  0.072901  0.033879  0.564583  1
  O  O46  1  0.426664  0.534011  0.192005  1
  O  O47  1  0.573626  0.466343  0.191994  1
  O  O48  1  0.073500  0.033838  0.192035  1
  O  O49  1  0.926650  0.966069  0.192076  1
  O  O50  1  0.174319  0.446316  0.378271  1
  O  O51  1  0.825745  0.553167  0.378325  1
  O  O52  1  0.325474  0.946267  0.378237  1
  O  O53  1  0.674295  0.053403  0.378421  1
  O  O54  1  0.674325  0.446105  0.143650  1
  O  O55  1  0.325731  0.553371  0.143602  1
  O  O56  1  0.825676  0.946161  0.143771  1
  O  O57  1  0.174075  0.053311  0.612906  1
  O  O58  1  0.959884  0.440950  0.286547  1
  O  O59  1  0.040530  0.559196  0.286525  1
  O  O60  1  0.540171  0.941028  0.286536  1
  O  O61  1  0.459611  0.059299  0.286661  1
  O  O62  1  0.040424  0.559095  0.470202  1
  O  O63  1  0.959928  0.440991  0.470007  1
  O  O64  1  0.459391  0.058985  0.470181  1
  O  O65  1  0.540129  0.940983  0.469900  1
  O  O66  1  0.459848  0.440914  0.521347  1
  O  O67  1  0.540495  0.559154  0.521154  1
  O  O68  1  0.039929  0.940821  0.521333  1
  O  O69  1  0.959547  0.059166  0.521050  1
  O  O70  1  0.540485  0.559105  0.235404  1
  O  O71  1  0.459938  0.441032  0.235372  1
  O  O72  1  0.959591  0.059207  0.235382  1
  O  O73  1  0.040195  0.941132  0.235514  1
  O  O74  1  0.129986  0.558539  0.234673  1
  O  O75  1  0.870239  0.441903  0.234803  1
  O  O76  1  0.369763  0.058424  0.234894  1
  O  O77  1  0.630164  0.941689  0.234844  1
  O  O78  1  0.870875  0.442108  0.521950  1
  O  O79  1  0.129165  0.558082  0.522297  1
  O  O80  1  0.629445  0.942066  0.521747  1
  O  O81  1  0.370631  0.058059  0.522253  1
  O  O82  1  0.630184  0.558462  0.469343  1
  O  O83  1  0.369838  0.441718  0.469690  1
  O  O84  1  0.870119  0.058431  0.469137  1
  O  O85  1  0.129938  0.941701  0.469653  1
  O  O86  1  0.370681  0.442182  0.287279  1
  O  O87  1  0.629553  0.558263  0.287421  1
  O  O88  1  0.129081  0.942060  0.287499  1
  O  O89  1  0.870858  0.058055  0.287443  1
  O  O90  1  0.987080  0.628387  0.237642  1
  O  O91  1  0.012346  0.371234  0.237555  1
  O  O92  1  0.512338  0.128656  0.237671  1
  O  O93  1  0.487614  0.871401  0.237551  1
  O  O94  1  0.013171  0.371639  0.518915  1
  O  O95  1  0.986673  0.628401  0.519023  1
  O  O96  1  0.486899  0.871815  0.518840  1
  O  O97  1  0.513088  0.128418  0.519008  1
  O  O98  1  0.487502  0.628624  0.472234  1
  O  O99  1  0.512337  0.371444  0.472329  1
  O  O100  1  0.012559  0.128796  0.472156  1
  O  O101  1  0.987408  0.871456  0.472324  1
  O  O102  1  0.512752  0.371403  0.284333  1
  O  O103  1  0.486680  0.628214  0.284251  1
  O  O104  1  0.986666  0.871675  0.284348  1
  O  O105  1  0.013282  0.128385  0.284233  1
  O  O106  1  0.114605  0.679327  0.267682  1
  O  O107  1  0.885081  0.320971  0.267894  1
  O  O108  1  0.385080  0.179322  0.267798  1
  O  O109  1  0.614690  0.820946  0.267912  1
  O  O110  1  0.885557  0.321121  0.488798  1
  O  O111  1  0.114434  0.678979  0.489054  1
  O  O112  1  0.614411  0.821074  0.488732  1
  O  O113  1  0.385463  0.178955  0.489006  1
  O  O114  1  0.614792  0.679236  0.502395  1
  O  O115  1  0.385216  0.320841  0.502637  1
  O  O116  1  0.885168  0.179205  0.502319  1
  O  O117  1  0.114675  0.820838  0.502604  1
  O  O118  1  0.385378  0.321208  0.254088  1
  O  O119  1  0.614314  0.679082  0.254304  1
  O  O120  1  0.114306  0.821186  0.254207  1
  O  O121  1  0.885456  0.179088  0.254319  1
  O  O122  1  0.269822  0.225943  0.232143  1
  O  O123  1  0.729965  0.774192  0.232393  1
  O  O124  1  0.230031  0.726038  0.232151  1
  O  O125  1  0.769696  0.274184  0.232433  1
  O  O126  1  0.730124  0.774751  0.524132  1
  O  O127  1  0.269614  0.225374  0.524270  1
  O  O128  1  0.769768  0.274658  0.524113  1
  O  O129  1  0.230360  0.725465  0.524278  1
  O  O130  1  0.769732  0.226014  0.466879  1
  O  O131  1  0.229989  0.774127  0.467031  1
  O  O132  1  0.730164  0.725905  0.466875  1
  O  O133  1  0.269980  0.274203  0.467026  1
  O  O134  1  0.230205  0.774692  0.289393  1
  O  O135  1  0.769584  0.225447  0.289650  1
  O  O136  1  0.269639  0.274789  0.289392  1
  O  O137  1  0.730091  0.725427  0.289672  1
  O  O138  1  0.160031  0.422484  0.223419  1
  O  O139  1  0.838456  0.577858  0.224163  1
  O  O140  1  0.339816  0.922467  0.223499  1
  O  O141  1  0.660205  0.077768  0.223630  1
  O  O142  1  0.838014  0.578035  0.532397  1
  O  O143  1  0.161685  0.422020  0.532613  1
  O  O144  1  0.661477  0.077959  0.532571  1
  O  O145  1  0.338227  0.921997  0.532514  1
  O  O146  1  0.660205  0.422385  0.458192  1
  O  O147  1  0.339525  0.577664  0.458403  1
  O  O148  1  0.839280  0.922313  0.458356  1
  O  O149  1  0.160389  0.077644  0.458309  1
  O  O150  1  0.337853  0.578129  0.297621  1
  O  O151  1  0.660646  0.422199  0.298374  1
  O  O152  1  0.161986  0.078107  0.297696  1
  O  O153  1  0.838040  0.922116  0.297822  1
  O  O154  1  0.249376  0.498208  0.260920  1
  O  O155  1  0.748610  0.499015  0.260782  1
  O  O156  1  0.249645  0.998121  0.260792  1
  O  O157  1  0.749688  0.001978  0.261045  1
  O  O158  1  0.749269  0.498221  0.495748  1
  O  O159  1  0.248869  0.501377  0.495387  1
  O  O160  1  0.751584  0.000000  0.496045  1
  O  O161  1  0.250762  0.001458  0.495390  1
  O  O162  1  0.130336  0.278522  0.217374  1
  O  O163  1  0.869312  0.721445  0.217692  1
  O  O164  1  0.369597  0.778565  0.217395  1
  O  O165  1  0.630158  0.221732  0.217711  1
  O  O166  1  0.869175  0.721706  0.538851  1
  O  O167  1  0.130445  0.278276  0.538874  1
  O  O168  1  0.630590  0.221745  0.538841  1
  O  O169  1  0.369626  0.778368  0.538841  1
  O  O170  1  0.630132  0.278477  0.452197  1
  O  O171  1  0.369459  0.721503  0.452225  1
  O  O172  1  0.869613  0.778523  0.452189  1
  O  O173  1  0.130598  0.221598  0.452190  1
  O  O174  1  0.369353  0.721747  0.304034  1
  O  O175  1  0.630291  0.278211  0.304357  1
  O  O176  1  0.130576  0.221787  0.304044  1
  O  O177  1  0.869178  0.778504  0.304352  1
  O  O178  1  0.138117  0.338432  0.271140  1
  O  O179  1  0.861815  0.661859  0.271560  1
  O  O180  1  0.361832  0.838399  0.271163  1
  O  O181  1  0.638017  0.161652  0.271400  1
  O  O182  1  0.861596  0.662009  0.485020  1
  O  O183  1  0.138506  0.338092  0.485104  1
  O  O184  1  0.638349  0.161952  0.485094  1
  O  O185  1  0.361542  0.838065  0.485048  1
  O  O186  1  0.638134  0.338379  0.505920  1
  O  O187  1  0.361923  0.661708  0.506010  1
  O  O188  1  0.861774  0.838333  0.505995  1
  O  O189  1  0.138109  0.161688  0.505952  1
  O  O190  1  0.361578  0.662065  0.250240  1
  O  O191  1  0.638370  0.338229  0.250662  1
  O  O192  1  0.138386  0.162028  0.250253  1
  O  O193  1  0.861449  0.838029  0.250475  1
  O  O194  1  0.674325  0.446105  0.612995  1
  O  O195  1  0.325731  0.553371  0.612947  1
  O  O196  1  0.825676  0.946161  0.613116  1
  Si  Si197  1  0.163109  0.438834  0.340665  1
  Si  Si198  1  0.837029  0.561069  0.340717  1
  Si  Si199  1  0.336929  0.938788  0.340636  1
  Si  Si200  1  0.663075  0.061134  0.340809  1
  Si  Si201  1  0.837134  0.561134  0.415930  1
  Si  Si202  1  0.163306  0.438796  0.415886  1
  Si  Si203  1  0.662715  0.061198  0.416011  1
  Si  Si204  1  0.336519  0.938674  0.415852  1
  Si  Si205  1  0.663267  0.438756  0.575384  1
  Si  Si206  1  0.337169  0.561172  0.575346  1
  Si  Si207  1  0.836569  0.938793  0.575483  1
  Si  Si208  1  0.162648  0.061047  0.575305  1
  Si  Si209  1  0.336974  0.561215  0.181211  1
  Si  Si210  1  0.663164  0.438690  0.181256  1
  Si  Si211  1  0.163074  0.061162  0.181175  1
  Si  Si212  1  0.836943  0.938791  0.181364  1
  Si  Si213  1  0.069210  0.606206  0.256558  1
  Si  Si214  1  0.930719  0.393905  0.256664  1
  Si  Si215  1  0.430527  0.106196  0.256717  1
  Si  Si216  1  0.569296  0.893973  0.256659  1
  Si  Si217  1  0.931180  0.394084  0.499995  1
  Si  Si218  1  0.068877  0.605989  0.500240  1
  Si  Si219  1  0.568915  0.894121  0.499890  1
  Si  Si220  1  0.430960  0.105939  0.500202  1
  Si  Si221  1  0.569399  0.606155  0.491222  1
  Si  Si222  1  0.430655  0.393910  0.491460  1
  Si  Si223  1  0.930684  0.106200  0.491114  1
  Si  Si224  1  0.069160  0.893871  0.491432  1
  Si  Si225  1  0.431000  0.394132  0.265334  1
  Si  Si226  1  0.568937  0.605974  0.265447  1
  Si  Si227  1  0.068750  0.894114  0.265490  1
  Si  Si228  1  0.931078  0.106062  0.265428  1
  Si  Si229  1  0.201041  0.500220  0.228025  1
  Si  Si230  1  0.798530  0.499663  0.228235  1
  Si  Si231  1  0.298781  -0.000000  0.228078  1
  Si  Si232  1  0.701192  -0.000000  0.228186  1
  Si  Si233  1  0.798718  0.499580  0.528403  1
  Si  Si234  1  0.201318  0.500355  0.528468  1
  Si  Si235  1  0.701200  -0.000000  0.528485  1
  Si  Si236  1  0.298511  -0.000000  0.528426  1
  Si  Si237  1  0.701271  0.500112  0.462775  1
  Si  Si238  1  0.298763  0.499823  0.462840  1
  Si  Si239  1  0.798628  -0.000000  0.462851  1
  Si  Si240  1  0.201056  -0.000000  0.462802  1
  Si  Si241  1  0.298494  0.499686  0.293651  1
  Si  Si242  1  0.701091  0.500191  0.293868  1
  Si  Si243  1  0.201331  -0.000000  0.293703  1
  Si  Si244  1  0.798660  -0.000000  0.293809  1
  Si  Si245  1  0.108764  0.353619  0.235046  1
  Si  Si246  1  0.890681  0.646393  0.235451  1
  Si  Si247  1  0.391209  0.853644  0.235082  1
  Si  Si248  1  0.608738  0.146501  0.235295  1
  Si  Si249  1  0.890321  0.646549  0.521144  1
  Si  Si250  1  0.109504  0.353523  0.521204  1
  Si  Si251  1  0.609420  0.146526  0.521202  1
  Si  Si252  1  0.390576  0.853577  0.521131  1
  Si  Si253  1  0.608727  0.353647  0.469840  1
  Si  Si254  1  0.391086  0.646431  0.469909  1
  Si  Si255  1  0.890995  0.853631  0.469902  1
  Si  Si256  1  0.108985  0.146486  0.469835  1
  Si  Si257  1  0.390353  0.646527  0.286351  1
  Si  Si258  1  0.609101  0.353475  0.286756  1
  Si  Si259  1  0.109624  0.146550  0.286374  1
  Si  Si260  1  0.890317  0.853586  0.286574  1
  Si  Si261  1  0.178673  0.297785  0.301272  1
  Si  Si262  1  0.821030  0.702510  0.301636  1
  Si  Si263  1  0.321183  0.797719  0.301265  1
  Si  Si264  1  0.678619  0.202327  0.301516  1
  Si  Si265  1  0.821045  0.702726  0.454920  1
  Si  Si266  1  0.179144  0.297376  0.455016  1
  Si  Si267  1  0.678823  0.202757  0.454989  1
  Si  Si268  1  0.320833  0.797263  0.455002  1
  Si  Si269  1  0.678811  0.297677  0.536016  1
  Si  Si270  1  0.321363  0.702427  0.536120  1
  Si  Si271  1  0.821058  0.797704  0.536089  1
  Si  Si272  1  0.178620  0.202312  0.536100  1
  Si  Si273  1  0.320904  0.702834  0.220178  1
  Si  Si274  1  0.678799  0.297467  0.220538  1
  Si  Si275  1  0.178961  0.202769  0.220159  1
  Si  Si276  1  0.820829  0.797281  0.220394  1
  Si  Si277  1  0.330737  0.250302  0.260819  1
  Si  Si278  1  0.669045  0.749907  0.261074  1
  Si  Si279  1  0.169052  0.750296  0.260822  1
  Si  Si280  1  0.830721  0.249919  0.261082  1
  Si  Si281  1  0.669148  0.750246  0.495516  1
  Si  Si282  1  0.330817  0.249852  0.495729  1
  Si  Si283  1  0.830828  0.250255  0.495509  1
  Si  Si284  1  0.169122  0.749863  0.495737  1
  Si  Si285  1  -0.000000  0.500134  0.309254  1
  Si  Si286  1  0.500011  -0.000000  0.309320  1
  Si  Si287  1  0.000000  0.500168  0.447334  1
  Si  Si288  1  0.499496  -0.000000  0.447276  1
  Si  Si289  1  0.500300  0.500159  0.543967  1
  Si  Si290  1  0.000000  -0.000000  0.543915  1
  Si  Si291  1  0.500141  0.500138  0.212619  1
  Si  Si292  1  -0.000000  -0.000000  0.212685  1
  H  H293  1  0.174075  0.053311  0.121662  1
  H  H294  1  0.674325  0.446105  0.121751  1
  H  H295  1  0.325731  0.553371  0.121703  1
  H  H296  1  0.825676  0.946161  0.121872  1
  H  H297  1  0.174075  0.053311  0.634805  1
  H  H298  1  0.674325  0.446105  0.634894  1
  H  H299  1  0.325731  0.553371  0.634846  1
  H  H300  1  0.825676  0.946161  0.635015  1
