# generated using pymatgen
data_Si24H2O49
_symmetry_space_group_name_H-M   'P 1'
_cell_length_a   7.50249860
_cell_length_b   18.12388572
_cell_length_c   63.03043622
_cell_angle_alpha   90.00000000
_cell_angle_beta   90.00000000
_cell_angle_gamma   90.00000000
_symmetry_Int_Tables_number   1
_chemical_formula_structural   Si24H2O49
_chemical_formula_sum   'Si96 H8 O196'
_cell_volume   8570.5274642
_cell_formula_units_Z   4
loop_
 _symmetry_equiv_pos_site_id
 _symmetry_equiv_pos_as_xyz
  1  'x, y, z'
loop_
 _atom_site_type_symbol
 _atom_site_label
 _atom_site_symmetry_multiplicity
 _atom_site_fract_x
 _atom_site_fract_y
 _atom_site_fract_z
 _atom_site_occupancy
  O  O1  1  0.580780  0.151808  0.202227  1
  O  O2  1  0.919277  0.151807  0.202227  1
  O  O3  1  0.580777  0.348054  0.202221  1
  O  O4  1  0.919297  0.348051  0.202217  1
  O  O5  1  0.250030  0.884875  0.198809  1
  O  O6  1  0.250047  0.615036  0.198789  1
  O  O7  1  0.250077  0.749927  0.213216  1
  O  O8  1  0.419160  0.970381  0.172378  1
  O  O9  1  0.080816  0.970373  0.172380  1
  O  O10  1  0.419234  0.529492  0.172372  1
  O  O11  1  0.080915  0.529472  0.172369  1
  O  O12  1  0.249992  0.860888  0.158025  1
  O  O13  1  0.250025  0.638882  0.157987  1
  O  O14  1  0.420093  0.871472  0.123617  1
  O  O15  1  0.079866  0.871468  0.123617  1
  O  O16  1  0.420173  0.628257  0.123572  1
  O  O17  1  0.079945  0.628239  0.123564  1
  O  O18  1  0.249997  0.749862  0.131765  1
  O  O19  1  0.250026  0.156817  0.188114  1
  O  O20  1  0.250037  0.343042  0.188105  1
  O  O21  1  0.000000  0.105529  0.164967  1
  O  O22  1  0.500261  0.105536  0.164967  1
  O  O23  1  -0.000000  0.394321  0.164959  1
  O  O24  1  0.500321  0.394332  0.164964  1
  O  O25  1  0.018213  0.249922  0.176103  1
  O  O26  1  0.481856  0.249929  0.176105  1
  O  O27  1  0.981063  -0.000000  0.134819  1
  O  O28  1  0.518909  0.000000  0.134817  1
  O  O29  1  0.981107  0.500678  0.134805  1
  O  O30  1  0.519014  0.500686  0.134812  1
  O  O31  1  0.749991  0.009995  0.163982  1
  O  O32  1  0.750078  0.489880  0.163977  1
  O  O33  1  0.749977  0.916978  0.117124  1
  O  O34  1  0.750055  0.582700  0.117064  1
  O  O35  1  0.007388  0.960656  0.093622  1
  O  O36  1  0.492550  0.960651  0.093621  1
  O  O37  1  0.007601  0.538805  0.093606  1
  O  O38  1  0.492374  0.538805  0.093619  1
  O  O39  1  0.580780  0.151808  0.608087  1
  O  O40  1  0.919277  0.151807  0.608086  1
  O  O41  1  0.580777  0.348054  0.608081  1
  O  O42  1  0.919297  0.348051  0.608076  1
  O  O43  1  0.419339  0.848043  0.233273  1
  O  O44  1  0.080818  0.848039  0.233276  1
  O  O45  1  0.419346  0.651794  0.233268  1
  O  O46  1  0.080847  0.651794  0.233271  1
  O  O47  1  0.750037  0.115037  0.236704  1
  O  O48  1  0.750079  0.384891  0.236684  1
  O  O49  1  0.250030  0.884875  0.604669  1
  O  O50  1  0.250047  0.615036  0.604649  1
  O  O51  1  0.750046  0.249940  0.222280  1
  O  O52  1  0.250077  0.749927  0.619076  1
  O  O53  1  0.580875  0.029471  0.263121  1
  O  O54  1  0.919195  0.029469  0.263121  1
  O  O55  1  0.580966  0.470387  0.263120  1
  O  O56  1  0.919317  0.470365  0.263117  1
  O  O57  1  0.419160  0.970381  0.578238  1
  O  O58  1  0.080816  0.970373  0.578240  1
  O  O59  1  0.419234  0.529492  0.578232  1
  O  O60  1  0.080915  0.529472  0.578229  1
  O  O61  1  0.750031  0.138867  0.277506  1
  O  O62  1  0.750094  0.360881  0.277466  1
  O  O63  1  0.249992  0.860888  0.563885  1
  O  O64  1  0.250025  0.638882  0.563846  1
  O  O65  1  0.579923  0.128237  0.311926  1
  O  O66  1  0.920150  0.128239  0.311924  1
  O  O67  1  0.580070  0.371475  0.311882  1
  O  O68  1  0.920305  0.371425  0.311868  1
  O  O69  1  0.420093  0.871472  0.529477  1
  O  O70  1  0.079866  0.871468  0.529477  1
  O  O71  1  0.420173  0.628257  0.529432  1
  O  O72  1  0.079945  0.628239  0.529423  1
  O  O73  1  0.750037  0.249848  0.303726  1
  O  O74  1  0.249997  0.749862  0.537625  1
  O  O75  1  0.250026  0.156817  0.593974  1
  O  O76  1  0.250037  0.343042  0.593965  1
  O  O77  1  0.750077  0.843029  0.247388  1
  O  O78  1  0.750101  0.656805  0.247383  1
  O  O79  1  -0.000000  0.105529  0.570827  1
  O  O80  1  0.500261  0.105536  0.570827  1
  O  O81  1  0.000000  0.394321  0.570818  1
  O  O82  1  0.500321  0.394332  0.570823  1
  O  O83  1  0.000000  0.894315  0.270533  1
  O  O84  1  0.499791  0.894317  0.270531  1
  O  O85  1  -0.000000  0.605518  0.270531  1
  O  O86  1  0.499862  0.605534  0.270531  1
  O  O87  1  0.018213  0.249922  0.581963  1
  O  O88  1  0.481856  0.249929  0.581964  1
  O  O89  1  0.981905  0.749913  0.259393  1
  O  O90  1  0.518263  0.749917  0.259389  1
  O  O91  1  0.018990  0.000000  0.300684  1
  O  O92  1  0.481082  -0.000000  0.300684  1
  O  O93  1  0.019072  0.499087  0.300678  1
  O  O94  1  0.481228  0.499118  0.300684  1
  O  O95  1  0.981063  0.000000  0.540678  1
  O  O96  1  0.518909  -0.000000  0.540677  1
  O  O97  1  0.981107  0.500678  0.540665  1
  O  O98  1  0.519014  0.500686  0.540672  1
  O  O99  1  0.250040  0.989868  0.271516  1
  O  O100  1  0.250144  0.509990  0.271517  1
  O  O101  1  0.749991  0.009995  0.569842  1
  O  O102  1  0.750078  0.489880  0.569836  1
  O  O103  1  0.250033  0.082693  0.318428  1
  O  O104  1  0.250181  0.416957  0.318373  1
  O  O105  1  0.749977  0.916978  0.522984  1
  O  O106  1  0.750055  0.582700  0.522924  1
  O  O107  1  0.992415  0.038809  0.341881  1
  O  O108  1  0.507615  0.038797  0.341881  1
  O  O109  1  0.992663  0.460573  0.341869  1
  O  O110  1  0.507559  0.460635  0.341881  1
  O  O111  1  0.007388  0.960656  0.499481  1
  O  O112  1  0.492550  0.960651  0.499481  1
  O  O113  1  0.007601  0.538805  0.499465  1
  O  O114  1  0.492374  0.538805  0.499478  1
  O  O115  1  0.078518  0.123913  0.372235  1
  O  O116  1  0.421497  0.123887  0.372238  1
  O  O117  1  0.078761  0.375189  0.372160  1
  O  O118  1  0.421471  0.375237  0.372169  1
  O  O119  1  0.921301  0.875275  0.469192  1
  O  O120  1  0.578608  0.875269  0.469189  1
  O  O121  1  0.921491  0.623935  0.469119  1
  O  O122  1  0.578501  0.623929  0.469140  1
  O  O123  1  0.250127  0.249491  0.375053  1
  O  O124  1  0.749971  0.749536  0.466314  1
  O  O125  1  0.249988  0.157396  0.405137  1
  O  O126  1  0.250093  0.342154  0.405027  1
  O  O127  1  0.749986  0.842178  0.436333  1
  O  O128  1  0.749770  0.657420  0.436235  1
  O  O129  1  0.080178  0.122216  0.437673  1
  O  O130  1  0.419704  0.122219  0.437679  1
  O  O131  1  0.079512  0.378183  0.437383  1
  O  O132  1  0.420463  0.378164  0.437399  1
  O  O133  1  0.920402  0.878158  0.403960  1
  O  O134  1  0.579456  0.878159  0.403969  1
  O  O135  1  0.919890  0.622313  0.403720  1
  O  O136  1  0.580321  0.622176  0.403677  1
  O  O137  1  0.249944  0.250207  0.435049  1
  O  O138  1  0.749881  0.750201  0.406318  1
  O  O139  1  0.006004  0.990482  0.380844  1
  O  O140  1  0.493969  0.990463  0.380845  1
  O  O141  1  0.003325  0.508485  0.380860  1
  O  O142  1  0.497061  0.508545  0.380883  1
  O  O143  1  0.996939  0.008578  0.460477  1
  O  O144  1  0.502970  0.008572  0.460477  1
  O  O145  1  0.993982  0.490519  0.460494  1
  O  O146  1  0.506065  0.490494  0.460513  1
  O  O147  1  0.750000  0.073382  0.368820  1
  O  O148  1  0.750111  0.425080  0.368666  1
  O  O149  1  0.249955  0.925107  0.472698  1
  O  O150  1  0.249999  0.573395  0.472534  1
  O  O151  1  0.249940  0.930946  0.403642  1
  O  O152  1  0.250002  0.571227  0.402274  1
  O  O153  1  0.749946  0.071211  0.439072  1
  O  O154  1  0.749996  0.430977  0.437704  1
  O  O155  1  0.995152  0.001185  0.420536  1
  O  O156  1  0.504704  0.001200  0.420536  1
  O  O157  1  0.004781  0.501197  0.420797  1
  O  O158  1  0.495140  0.501188  0.420821  1
  O  O159  1  0.419339  0.848043  0.639132  1
  O  O160  1  0.080818  0.848039  0.639136  1
  O  O161  1  0.419346  0.651794  0.639127  1
  O  O162  1  0.080847  0.651794  0.639130  1
  O  O163  1  0.750037  0.115037  0.642564  1
  O  O164  1  0.750079  0.384891  0.642544  1
  O  O165  1  0.750046  0.249940  0.628139  1
  O  O166  1  0.580875  0.029471  0.668981  1
  O  O167  1  0.919195  0.029469  0.668981  1
  O  O168  1  0.580966  0.470387  0.668979  1
  O  O169  1  0.919317  0.470365  0.668976  1
  O  O170  1  0.750031  0.138867  0.683365  1
  O  O171  1  0.750094  0.360881  0.683326  1
  O  O172  1  0.579923  0.128237  0.717785  1
  O  O173  1  0.920150  0.128239  0.717784  1
  O  O174  1  0.580070  0.371475  0.717741  1
  O  O175  1  0.920305  0.371425  0.717727  1
  O  O176  1  0.750037  0.249848  0.709585  1
  O  O177  1  0.750077  0.843029  0.653248  1
  O  O178  1  0.750101  0.656805  0.653242  1
  O  O179  1  -0.000000  0.894315  0.676393  1
  O  O180  1  0.499791  0.894317  0.676391  1
  O  O181  1  0.000000  0.605518  0.676390  1
  O  O182  1  0.499862  0.605534  0.676390  1
  O  O183  1  0.981905  0.749913  0.665252  1
  O  O184  1  0.518263  0.749917  0.665249  1
  O  O185  1  0.018990  0.000000  0.706544  1
  O  O186  1  0.481082  0.000000  0.706543  1
  O  O187  1  0.019072  0.499087  0.706538  1
  O  O188  1  0.481228  0.499118  0.706543  1
  O  O189  1  0.250040  0.989868  0.677376  1
  O  O190  1  0.250144  0.509990  0.677377  1
  O  O191  1  0.250033  0.082693  0.724288  1
  O  O192  1  0.250181  0.416957  0.724232  1
  O  O193  1  0.992415  0.038809  0.747741  1
  O  O194  1  0.507615  0.038797  0.747741  1
  O  O195  1  0.992663  0.460573  0.747729  1
  O  O196  1  0.507559  0.460635  0.747741  1
  Si  Si197  1  0.045265  0.165548  0.182511  1
  Si  Si198  1  0.454787  0.165554  0.182512  1
  Si  Si199  1  0.045280  0.334304  0.182502  1
  Si  Si200  1  0.454800  0.334310  0.182505  1
  Si  Si201  1  0.954688  0.022467  0.158985  1
  Si  Si202  1  0.545298  0.022471  0.158983  1
  Si  Si203  1  0.954757  0.477389  0.158975  1
  Si  Si204  1  0.545386  0.477396  0.158981  1
  Si  Si205  1  0.955065  0.937727  0.116989  1
  Si  Si206  1  0.544891  0.937730  0.116988  1
  Si  Si207  1  0.955147  0.561961  0.116948  1
  Si  Si208  1  0.544954  0.561973  0.116956  1
  Si  Si209  1  0.750031  0.165174  0.216558  1
  Si  Si210  1  0.750049  0.334699  0.216549  1
  Si  Si211  1  0.249998  0.920507  0.176258  1
  Si  Si212  1  0.250054  0.579363  0.176243  1
  Si  Si213  1  0.249983  0.835556  0.134076  1
  Si  Si214  1  0.250029  0.664152  0.134032  1
  Si  Si215  1  0.045265  0.165548  0.588371  1
  Si  Si216  1  0.454787  0.165554  0.588372  1
  Si  Si217  1  0.045280  0.334304  0.588362  1
  Si  Si218  1  0.454800  0.334310  0.588365  1
  Si  Si219  1  0.954834  0.834292  0.252991  1
  Si  Si220  1  0.545314  0.834298  0.252989  1
  Si  Si221  1  0.954859  0.665536  0.252986  1
  Si  Si222  1  0.545337  0.665542  0.252983  1
  Si  Si223  1  0.045355  0.977384  0.276515  1
  Si  Si224  1  0.454726  0.977381  0.276514  1
  Si  Si225  1  0.045444  0.522456  0.276513  1
  Si  Si226  1  0.454833  0.522471  0.276517  1
  Si  Si227  1  0.954688  0.022467  0.564845  1
  Si  Si228  1  0.545298  0.022471  0.564843  1
  Si  Si229  1  0.954757  0.477389  0.564835  1
  Si  Si230  1  0.545386  0.477396  0.564841  1
  Si  Si231  1  0.044938  0.061960  0.318542  1
  Si  Si232  1  0.455127  0.061957  0.318541  1
  Si  Si233  1  0.045082  0.437683  0.318503  1
  Si  Si234  1  0.455257  0.437725  0.318513  1
  Si  Si235  1  0.955065  0.937727  0.522848  1
  Si  Si236  1  0.544891  0.937730  0.522847  1
  Si  Si237  1  0.955147  0.561961  0.522807  1
  Si  Si238  1  0.544954  0.561973  0.522816  1
  Si  Si239  1  0.955289  0.056931  0.366029  1
  Si  Si240  1  0.544719  0.056909  0.366030  1
  Si  Si241  1  0.955187  0.442036  0.365985  1
  Si  Si242  1  0.545047  0.442089  0.365997  1
  Si  Si243  1  0.044891  0.942121  0.475365  1
  Si  Si244  1  0.455022  0.942114  0.475365  1
  Si  Si245  1  0.044708  0.556941  0.475318  1
  Si  Si246  1  0.455276  0.556929  0.475330  1
  Si  Si247  1  0.044713  0.947826  0.402016  1
  Si  Si248  1  0.455168  0.947828  0.402018  1
  Si  Si249  1  0.044961  0.552972  0.401601  1
  Si  Si250  1  0.455016  0.552935  0.401618  1
  Si  Si251  1  0.954964  0.052948  0.439736  1
  Si  Si252  1  0.544927  0.052951  0.439738  1
  Si  Si253  1  0.955232  0.447865  0.439322  1
  Si  Si254  1  0.544762  0.447839  0.439341  1
  Si  Si255  1  0.750031  0.165174  0.622418  1
  Si  Si256  1  0.750049  0.334699  0.622409  1
  Si  Si257  1  0.250068  0.834687  0.218945  1
  Si  Si258  1  0.250085  0.665162  0.218938  1
  Si  Si259  1  0.750036  0.079351  0.259249  1
  Si  Si260  1  0.750117  0.420511  0.259236  1
  Si  Si261  1  0.249998  0.920507  0.582118  1
  Si  Si262  1  0.250054  0.579363  0.582102  1
  Si  Si263  1  0.750033  0.164139  0.301460  1
  Si  Si264  1  0.750123  0.335542  0.301415  1
  Si  Si265  1  0.249983  0.835556  0.539936  1
  Si  Si266  1  0.250029  0.664152  0.539892  1
  Si  Si267  1  0.250025  0.164630  0.380530  1
  Si  Si268  1  0.250135  0.334414  0.380445  1
  Si  Si269  1  0.749963  0.834456  0.460915  1
  Si  Si270  1  0.749954  0.664669  0.460840  1
  Si  Si271  1  0.249948  0.165324  0.429770  1
  Si  Si272  1  0.249999  0.335021  0.429668  1
  Si  Si273  1  0.749938  0.835018  0.411692  1
  Si  Si274  1  0.749951  0.665325  0.411603  1
  Si  Si275  1  0.954834  0.834292  0.658851  1
  Si  Si276  1  0.545314  0.834298  0.658848  1
  Si  Si277  1  0.954859  0.665536  0.658846  1
  Si  Si278  1  0.545337  0.665542  0.658843  1
  Si  Si279  1  0.045355  0.977384  0.682374  1
  Si  Si280  1  0.454726  0.977381  0.682374  1
  Si  Si281  1  0.045444  0.522456  0.682372  1
  Si  Si282  1  0.454833  0.522471  0.682377  1
  Si  Si283  1  0.044938  0.061960  0.724401  1
  Si  Si284  1  0.455127  0.061957  0.724401  1
  Si  Si285  1  0.045082  0.437683  0.724363  1
  Si  Si286  1  0.455257  0.437725  0.724372  1
  Si  Si287  1  0.250068  0.834687  0.624804  1
  Si  Si288  1  0.250085  0.665162  0.624798  1
  Si  Si289  1  0.750036  0.079351  0.665109  1
  Si  Si290  1  0.750117  0.420511  0.665096  1
  Si  Si291  1  0.750033  0.164139  0.707319  1
  Si  Si292  1  0.750123  0.335542  0.707275  1
  H  H293  1  0.007388  0.960656  0.079343  1
  H  H294  1  0.492550  0.960651  0.079342  1
  H  H295  1  0.007601  0.538805  0.079327  1
  H  H296  1  0.492374  0.538805  0.079340  1
  H  H297  1  0.992415  0.038809  0.762020  1
  H  H298  1  0.507615  0.038797  0.762020  1
  H  H299  1  0.992663  0.460573  0.762008  1
  H  H300  1  0.507559  0.460635  0.762020  1
