# generated using pymatgen
data_Si38H2O77
_symmetry_space_group_name_H-M   'P 1'
_cell_length_a   17.29992123
_cell_length_b   17.30415519
_cell_length_c   87.28023219
_cell_angle_alpha   90.00000000
_cell_angle_beta   90.00000000
_cell_angle_gamma   120.00000000
_symmetry_Int_Tables_number   1
_chemical_formula_structural   Si38H2O77
_chemical_formula_sum   'Si228 H12 O462'
_cell_volume   22627.7333193
_cell_formula_units_Z   6
loop_
 _symmetry_equiv_pos_site_id
 _symmetry_equiv_pos_as_xyz
  1  'x, y, z'
loop_
 _atom_site_type_symbol
 _atom_site_label
 _atom_site_symmetry_multiplicity
 _atom_site_fract_x
 _atom_site_fract_y
 _atom_site_fract_z
 _atom_site_occupancy
  O  O1  1  0.049223  0.524808  0.087495  1
  O  O2  1  0.473917  0.525461  0.087510  1
  O  O3  1  0.473211  0.949403  0.087526  1
  O  O4  1  0.433818  0.356472  0.170022  1
  O  O5  1  0.433321  0.078452  0.170018  1
  O  O6  1  0.077349  0.434367  0.067598  1
  O  O7  1  0.354811  0.921405  0.067609  1
  O  O8  1  0.355525  0.434948  0.067607  1
  O  O9  1  0.077261  0.643347  0.067604  1
  O  O10  1  0.066637  0.635463  0.151739  1
  O  O11  1  0.363280  0.432193  0.151761  1
  O  O12  1  0.362761  0.932124  0.151753  1
  O  O13  1  0.066661  0.431741  0.151749  1
  O  O14  1  0.430569  0.067734  0.085875  1
  O  O15  1  0.431076  0.364363  0.085885  1
  O  O16  1  0.403277  0.319671  0.140760  1
  O  O17  1  0.402530  0.084602  0.140760  1
  O  O18  1  0.083509  0.403860  0.096862  1
  O  O19  1  0.317857  0.915252  0.096867  1
  O  O20  1  0.318568  0.404457  0.096878  1
  O  O21  1  0.083543  0.680165  0.096866  1
  O  O22  1  0.295529  0.296706  0.118825  1
  O  O23  1  0.294728  0.000000  0.118815  1
  O  O24  1  0.446812  0.320028  0.112504  1
  O  O25  1  0.446180  0.127692  0.112502  1
  O  O26  1  0.126668  0.447584  0.125127  1
  O  O27  1  0.318432  0.872177  0.125125  1
  O  O28  1  0.318981  0.448004  0.125138  1
  O  O29  1  0.126705  0.679799  0.125120  1
  O  O30  1  0.340924  0.171237  0.125011  1
  O  O31  1  0.170135  0.342267  0.112622  1
  O  O32  1  0.169616  0.828606  0.112617  1
  O  O33  1  0.480042  0.240618  0.091268  1
  O  O34  1  0.239567  0.481238  0.146376  1
  O  O35  1  0.239358  0.759224  0.146358  1
  O  O36  1  0.175617  0.588168  0.141599  1
  O  O37  1  0.410598  0.588524  0.141629  1
  O  O38  1  0.410195  0.823195  0.141570  1
  O  O39  1  0.433795  0.356484  0.229551  1
  O  O40  1  0.433295  0.078464  0.229557  1
  O  O41  1  0.066603  0.635479  0.247840  1
  O  O42  1  0.363247  0.432206  0.247811  1
  O  O43  1  0.362722  0.932140  0.247825  1
  O  O44  1  0.066630  0.431760  0.247830  1
  O  O45  1  0.403244  0.319686  0.258812  1
  O  O46  1  0.402492  0.084617  0.258816  1
  O  O47  1  0.126638  0.447602  0.274451  1
  O  O48  1  0.318399  0.872197  0.274453  1
  O  O49  1  0.318948  0.448016  0.274435  1
  O  O50  1  0.126671  0.679817  0.274459  1
  O  O51  1  0.340891  0.171254  0.274564  1
  O  O52  1  0.239533  0.481256  0.253200  1
  O  O53  1  0.239319  0.759243  0.253221  1
  O  O54  1  0.175586  0.588188  0.257980  1
  O  O55  1  0.410566  0.588536  0.257944  1
  O  O56  1  0.410154  0.823210  0.258008  1
  O  O57  1  0.482056  0.241640  0.178800  1
  O  O58  1  0.482039  0.241648  0.220776  1
  O  O59  1  0.462180  0.333200  0.199787  1
  O  O60  1  0.461769  0.130099  0.199788  1
  O  O61  1  0.295496  0.296722  0.280749  1
  O  O62  1  0.948360  0.474374  0.150115  1
  O  O63  1  0.524326  0.475042  0.150131  1
  O  O64  1  0.523728  0.050440  0.150101  1
  O  O65  1  0.920500  0.564889  0.170018  1
  O  O66  1  0.642212  0.078186  0.170009  1
  O  O67  1  0.642915  0.565491  0.170027  1
  O  O68  1  0.920337  0.355827  0.170014  1
  O  O69  1  0.564453  0.644049  0.067612  1
  O  O70  1  0.563959  0.921652  0.067619  1
  O  O71  1  0.566438  0.932122  0.151729  1
  O  O72  1  0.567015  0.636031  0.151776  1
  O  O73  1  0.930905  0.363827  0.085851  1
  O  O74  1  0.634854  0.568129  0.085875  1
  O  O75  1  0.634233  0.067708  0.085898  1
  O  O76  1  0.930994  0.567622  0.085866  1
  O  O77  1  0.914008  0.595362  0.140747  1
  O  O78  1  0.679154  0.084631  0.140751  1
  O  O79  1  0.679567  0.596004  0.140763  1
  O  O80  1  0.914081  0.319151  0.140739  1
  O  O81  1  0.594871  0.680696  0.096887  1
  O  O82  1  0.594442  0.915202  0.096876  1
  O  O83  1  0.998735  0.703117  0.118802  1
  O  O84  1  0.677278  0.000000  0.118813  1
  O  O85  1  0.702592  0.703695  0.118819  1
  O  O86  1  0.870875  0.551821  0.112489  1
  O  O87  1  0.678733  0.127785  0.112507  1
  O  O88  1  0.678999  0.552274  0.112496  1
  O  O89  1  0.870942  0.319666  0.112473  1
  O  O90  1  0.551209  0.680192  0.125154  1
  O  O91  1  0.550868  0.872034  0.125121  1
  O  O92  1  0.827780  0.657574  0.125003  1
  O  O93  1  0.827589  0.170899  0.124994  1
  O  O94  1  0.656618  0.828942  0.112632  1
  O  O95  1  0.758236  0.518602  0.091250  1
  O  O96  1  0.757945  0.240418  0.091253  1
  O  O97  1  0.517459  0.759423  0.146374  1
  O  O98  1  0.821983  0.411314  0.095998  1
  O  O99  1  0.587359  0.411678  0.096025  1
  O  O100  1  0.586916  0.176649  0.096058  1
  O  O101  1  0.998828  0.296165  0.118805  1
  O  O102  1  0.948326  0.474391  0.249464  1
  O  O103  1  0.524294  0.475058  0.249442  1
  O  O104  1  0.523691  0.050454  0.249476  1
  O  O105  1  0.920475  0.564900  0.229560  1
  O  O106  1  0.642186  0.078195  0.229570  1
  O  O107  1  0.642891  0.565504  0.229547  1
  O  O108  1  0.920312  0.355839  0.229566  1
  O  O109  1  0.566399  0.932136  0.247849  1
  O  O110  1  0.566983  0.636047  0.247797  1
  O  O111  1  0.913977  0.595384  0.258831  1
  O  O112  1  0.679113  0.084649  0.258827  1
  O  O113  1  0.679536  0.596022  0.258811  1
  O  O114  1  0.914047  0.319169  0.258841  1
  O  O115  1  0.551177  0.680210  0.274419  1
  O  O116  1  0.550825  0.872045  0.274456  1
  O  O117  1  0.827748  0.657596  0.274572  1
  O  O118  1  0.827550  0.170916  0.274585  1
  O  O119  1  0.517419  0.759437  0.253201  1
  O  O120  1  0.820856  0.410637  0.181066  1
  O  O121  1  0.588085  0.411148  0.181065  1
  O  O122  1  0.587709  0.177833  0.181068  1
  O  O123  1  0.820837  0.410642  0.218511  1
  O  O124  1  0.588068  0.411158  0.218511  1
  O  O125  1  0.587693  0.177841  0.218508  1
  O  O126  1  0.757510  0.516815  0.178804  1
  O  O127  1  0.757190  0.241167  0.178808  1
  O  O128  1  0.757492  0.516823  0.220773  1
  O  O129  1  0.757173  0.241173  0.220771  1
  O  O130  1  0.868942  0.536548  0.199789  1
  O  O131  1  0.665537  0.129718  0.199789  1
  O  O132  1  0.666151  0.537057  0.199787  1
  O  O133  1  0.868737  0.332619  0.199790  1
  O  O134  1  0.702559  0.703715  0.280754  1
  O  O135  1  0.049193  0.524828  0.312083  1
  O  O136  1  0.473886  0.525480  0.312063  1
  O  O137  1  0.473178  0.949423  0.312052  1
  O  O138  1  0.077325  0.434380  0.331979  1
  O  O139  1  0.354786  0.921418  0.331971  1
  O  O140  1  0.355503  0.434963  0.331966  1
  O  O141  1  0.077241  0.643361  0.331976  1
  O  O142  1  0.430531  0.067751  0.313703  1
  O  O143  1  0.431048  0.364383  0.313687  1
  O  O144  1  0.083478  0.403879  0.302715  1
  O  O145  1  0.317822  0.915271  0.302711  1
  O  O146  1  0.318537  0.404474  0.302695  1
  O  O147  1  0.083511  0.680188  0.302714  1
  O  O148  1  0.446782  0.320046  0.287068  1
  O  O149  1  0.446143  0.127705  0.287074  1
  O  O150  1  0.170102  0.342283  0.286954  1
  O  O151  1  0.169584  0.828626  0.286962  1
  O  O152  1  0.480005  0.240636  0.308306  1
  O  O153  1  0.176850  0.588710  0.343016  1
  O  O154  1  0.410135  0.589228  0.343015  1
  O  O155  1  0.409795  0.822029  0.343019  1
  O  O156  1  0.176866  0.588702  0.380461  1
  O  O157  1  0.410151  0.589217  0.380462  1
  O  O158  1  0.409808  0.822018  0.380459  1
  O  O159  1  0.240611  0.483046  0.340754  1
  O  O160  1  0.240335  0.758218  0.340751  1
  O  O161  1  0.240627  0.483037  0.382723  1
  O  O162  1  0.240350  0.758208  0.382728  1
  O  O163  1  0.129020  0.462809  0.361739  1
  O  O164  1  0.331625  0.869772  0.361740  1
  O  O165  1  0.332314  0.463308  0.361737  1
  O  O166  1  0.128895  0.666624  0.361740  1
  O  O167  1  0.294693  0.000000  0.280763  1
  O  O168  1  0.049223  0.524808  0.411396  1
  O  O169  1  0.473917  0.525461  0.411410  1
  O  O170  1  0.473211  0.949403  0.411427  1
  O  O171  1  0.433818  0.356472  0.493923  1
  O  O172  1  0.433321  0.078452  0.493919  1
  O  O173  1  0.077349  0.434367  0.391499  1
  O  O174  1  0.354811  0.921405  0.391509  1
  O  O175  1  0.355525  0.434948  0.391508  1
  O  O176  1  0.077261  0.643347  0.391504  1
  O  O177  1  0.066637  0.635463  0.475639  1
  O  O178  1  0.363280  0.432193  0.475662  1
  O  O179  1  0.362761  0.932124  0.475653  1
  O  O180  1  0.066661  0.431741  0.475650  1
  O  O181  1  0.430569  0.067734  0.409776  1
  O  O182  1  0.431076  0.364363  0.409786  1
  O  O183  1  0.403277  0.319671  0.464661  1
  O  O184  1  0.402530  0.084602  0.464661  1
  O  O185  1  0.083509  0.403860  0.420763  1
  O  O186  1  0.317857  0.915252  0.420768  1
  O  O187  1  0.318568  0.404457  0.420779  1
  O  O188  1  0.083543  0.680165  0.420766  1
  O  O189  1  0.295529  0.296706  0.442725  1
  O  O190  1  0.294728  0.000000  0.442716  1
  O  O191  1  0.446812  0.320028  0.436405  1
  O  O192  1  0.446180  0.127692  0.436403  1
  O  O193  1  0.126668  0.447584  0.449028  1
  O  O194  1  0.318432  0.872177  0.449026  1
  O  O195  1  0.318981  0.448004  0.449039  1
  O  O196  1  0.126705  0.679799  0.449021  1
  O  O197  1  0.340924  0.171237  0.448911  1
  O  O198  1  0.170135  0.342267  0.436523  1
  O  O199  1  0.169616  0.828606  0.436517  1
  O  O200  1  0.480042  0.240618  0.415169  1
  O  O201  1  0.239567  0.481238  0.470276  1
  O  O202  1  0.239358  0.759224  0.470258  1
  O  O203  1  0.175617  0.588168  0.465499  1
  O  O204  1  0.410598  0.588524  0.465530  1
  O  O205  1  0.410195  0.823195  0.465471  1
  O  O206  1  0.433795  0.356484  0.553451  1
  O  O207  1  0.433295  0.078464  0.553458  1
  O  O208  1  0.066603  0.635479  0.571741  1
  O  O209  1  0.363247  0.432206  0.571712  1
  O  O210  1  0.362722  0.932140  0.571726  1
  O  O211  1  0.066630  0.431760  0.571731  1
  O  O212  1  0.403244  0.319686  0.582713  1
  O  O213  1  0.402492  0.084617  0.582717  1
  O  O214  1  0.126638  0.447602  0.598351  1
  O  O215  1  0.318399  0.872197  0.598354  1
  O  O216  1  0.318948  0.448016  0.598336  1
  O  O217  1  0.126671  0.679817  0.598360  1
  O  O218  1  0.340891  0.171254  0.598465  1
  O  O219  1  0.239533  0.481256  0.577101  1
  O  O220  1  0.239319  0.759243  0.577122  1
  O  O221  1  0.175586  0.588188  0.581881  1
  O  O222  1  0.410566  0.588536  0.581845  1
  O  O223  1  0.410154  0.823210  0.581908  1
  O  O224  1  0.482056  0.241640  0.502700  1
  O  O225  1  0.482039  0.241648  0.544676  1
  O  O226  1  0.462180  0.333200  0.523688  1
  O  O227  1  0.461769  0.130099  0.523688  1
  O  O228  1  0.295496  0.296722  0.604649  1
  O  O229  1  0.564431  0.644063  0.331961  1
  O  O230  1  0.563937  0.921669  0.331958  1
  O  O231  1  0.930874  0.363848  0.313728  1
  O  O232  1  0.634823  0.568146  0.313698  1
  O  O233  1  0.634199  0.067728  0.313680  1
  O  O234  1  0.930965  0.567645  0.313714  1
  O  O235  1  0.594839  0.680715  0.302686  1
  O  O236  1  0.594402  0.915219  0.302701  1
  O  O237  1  0.870849  0.551847  0.287090  1
  O  O238  1  0.678697  0.127807  0.287072  1
  O  O239  1  0.678969  0.552293  0.287077  1
  O  O240  1  0.870907  0.319684  0.287106  1
  O  O241  1  0.656581  0.828961  0.286943  1
  O  O242  1  0.758205  0.518625  0.308326  1
  O  O243  1  0.757909  0.240442  0.308326  1
  O  O244  1  0.821955  0.411339  0.303580  1
  O  O245  1  0.587330  0.411695  0.303548  1
  O  O246  1  0.586877  0.176667  0.303520  1
  O  O247  1  0.515947  0.758699  0.340757  1
  O  O248  1  0.515961  0.758688  0.382719  1
  O  O249  1  0.536069  0.667278  0.361737  1
  O  O250  1  0.535764  0.870132  0.361738  1
  O  O251  1  0.998793  0.296182  0.280774  1
  O  O252  1  0.677236  0.000000  0.280765  1
  O  O253  1  0.998704  0.703140  0.280777  1
  O  O254  1  0.948360  0.474374  0.474016  1
  O  O255  1  0.524326  0.475042  0.474032  1
  O  O256  1  0.523728  0.050440  0.474002  1
  O  O257  1  0.920500  0.564889  0.493918  1
  O  O258  1  0.642212  0.078186  0.493909  1
  O  O259  1  0.642915  0.565491  0.493927  1
  O  O260  1  0.920337  0.355827  0.493915  1
  O  O261  1  0.564453  0.644049  0.391513  1
  O  O262  1  0.563959  0.921652  0.391520  1
  O  O263  1  0.566438  0.932122  0.475630  1
  O  O264  1  0.567015  0.636031  0.475677  1
  O  O265  1  0.930905  0.363827  0.409752  1
  O  O266  1  0.634854  0.568129  0.409775  1
  O  O267  1  0.634233  0.067708  0.409799  1
  O  O268  1  0.930994  0.567622  0.409766  1
  O  O269  1  0.914008  0.595362  0.464648  1
  O  O270  1  0.679154  0.084631  0.464652  1
  O  O271  1  0.679567  0.596004  0.464663  1
  O  O272  1  0.914081  0.319151  0.464639  1
  O  O273  1  0.594871  0.680696  0.420787  1
  O  O274  1  0.594442  0.915202  0.420776  1
  O  O275  1  0.998735  0.703117  0.442703  1
  O  O276  1  0.677278  0.000000  0.442713  1
  O  O277  1  0.702592  0.703695  0.442720  1
  O  O278  1  0.870875  0.551821  0.436389  1
  O  O279  1  0.678733  0.127785  0.436407  1
  O  O280  1  0.678999  0.552274  0.436397  1
  O  O281  1  0.870942  0.319666  0.436374  1
  O  O282  1  0.551209  0.680192  0.449055  1
  O  O283  1  0.550868  0.872034  0.449021  1
  O  O284  1  0.827780  0.657574  0.448904  1
  O  O285  1  0.827589  0.170899  0.448895  1
  O  O286  1  0.656618  0.828942  0.436532  1
  O  O287  1  0.758236  0.518602  0.415150  1
  O  O288  1  0.757945  0.240418  0.415154  1
  O  O289  1  0.517459  0.759423  0.470275  1
  O  O290  1  0.821983  0.411314  0.419899  1
  O  O291  1  0.587359  0.411678  0.419926  1
  O  O292  1  0.586916  0.176649  0.419959  1
  O  O293  1  0.998828  0.296165  0.442706  1
  O  O294  1  0.948326  0.474391  0.573365  1
  O  O295  1  0.524294  0.475058  0.573342  1
  O  O296  1  0.523691  0.050454  0.573377  1
  O  O297  1  0.920475  0.564900  0.553461  1
  O  O298  1  0.642186  0.078195  0.553471  1
  O  O299  1  0.642891  0.565504  0.553447  1
  O  O300  1  0.920312  0.355839  0.553466  1
  O  O301  1  0.566399  0.932136  0.571749  1
  O  O302  1  0.566983  0.636047  0.571698  1
  O  O303  1  0.913977  0.595384  0.582732  1
  O  O304  1  0.679113  0.084649  0.582728  1
  O  O305  1  0.679536  0.596022  0.582711  1
  O  O306  1  0.914047  0.319169  0.582742  1
  O  O307  1  0.551177  0.680210  0.598320  1
  O  O308  1  0.550825  0.872045  0.598357  1
  O  O309  1  0.827748  0.657596  0.598473  1
  O  O310  1  0.827550  0.170916  0.598486  1
  O  O311  1  0.517419  0.759437  0.577102  1
  O  O312  1  0.820856  0.410637  0.504967  1
  O  O313  1  0.588085  0.411148  0.504965  1
  O  O314  1  0.587709  0.177833  0.504969  1
  O  O315  1  0.820837  0.410642  0.542412  1
  O  O316  1  0.588068  0.411158  0.542412  1
  O  O317  1  0.587693  0.177841  0.542409  1
  O  O318  1  0.757510  0.516815  0.502704  1
  O  O319  1  0.757190  0.241167  0.502708  1
  O  O320  1  0.757492  0.516823  0.544674  1
  O  O321  1  0.757173  0.241173  0.544671  1
  O  O322  1  0.868942  0.536548  0.523689  1
  O  O323  1  0.665537  0.129718  0.523690  1
  O  O324  1  0.666151  0.537057  0.523688  1
  O  O325  1  0.868737  0.332619  0.523690  1
  O  O326  1  0.702559  0.703715  0.604655  1
  O  O327  1  0.049193  0.524828  0.635984  1
  O  O328  1  0.473886  0.525480  0.635964  1
  O  O329  1  0.473178  0.949423  0.635953  1
  O  O330  1  0.077325  0.434380  0.655879  1
  O  O331  1  0.354786  0.921418  0.655871  1
  O  O332  1  0.355503  0.434963  0.655866  1
  O  O333  1  0.077241  0.643361  0.655877  1
  O  O334  1  0.430531  0.067751  0.637604  1
  O  O335  1  0.431048  0.364383  0.637588  1
  O  O336  1  0.083478  0.403879  0.626616  1
  O  O337  1  0.317822  0.915271  0.626612  1
  O  O338  1  0.318537  0.404474  0.626596  1
  O  O339  1  0.083511  0.680188  0.626615  1
  O  O340  1  0.446782  0.320046  0.610969  1
  O  O341  1  0.446143  0.127705  0.610975  1
  O  O342  1  0.170102  0.342283  0.610854  1
  O  O343  1  0.169584  0.828626  0.610863  1
  O  O344  1  0.480005  0.240636  0.632207  1
  O  O345  1  0.176850  0.588710  0.666917  1
  O  O346  1  0.410135  0.589228  0.666915  1
  O  O347  1  0.409795  0.822029  0.666920  1
  O  O348  1  0.176866  0.588702  0.704362  1
  O  O349  1  0.410151  0.589217  0.704363  1
  O  O350  1  0.409808  0.822018  0.704360  1
  O  O351  1  0.240611  0.483046  0.664654  1
  O  O352  1  0.240335  0.758218  0.664652  1
  O  O353  1  0.240627  0.483037  0.706624  1
  O  O354  1  0.240350  0.758208  0.706629  1
  O  O355  1  0.129020  0.462809  0.685639  1
  O  O356  1  0.331625  0.869772  0.685641  1
  O  O357  1  0.332314  0.463308  0.685638  1
  O  O358  1  0.128895  0.666624  0.685641  1
  O  O359  1  0.294693  0.000000  0.604664  1
  O  O360  1  0.049223  0.524808  0.735297  1
  O  O361  1  0.473917  0.525461  0.735311  1
  O  O362  1  0.473211  0.949403  0.735328  1
  O  O363  1  0.433818  0.356472  0.817824  1
  O  O364  1  0.433321  0.078452  0.817820  1
  O  O365  1  0.077349  0.434367  0.715400  1
  O  O366  1  0.354811  0.921405  0.715410  1
  O  O367  1  0.355525  0.434948  0.715409  1
  O  O368  1  0.077261  0.643347  0.715405  1
  O  O369  1  0.066637  0.635463  0.799540  1
  O  O370  1  0.363280  0.432193  0.799563  1
  O  O371  1  0.362761  0.932124  0.799554  1
  O  O372  1  0.066661  0.431741  0.799551  1
  O  O373  1  0.430569  0.067734  0.733676  1
  O  O374  1  0.431076  0.364363  0.733687  1
  O  O375  1  0.403277  0.319671  0.788562  1
  O  O376  1  0.402530  0.084602  0.788561  1
  O  O377  1  0.083509  0.403860  0.744664  1
  O  O378  1  0.317857  0.915252  0.744669  1
  O  O379  1  0.318568  0.404457  0.744679  1
  O  O380  1  0.083543  0.680165  0.744667  1
  O  O381  1  0.295529  0.296706  0.766626  1
  O  O382  1  0.294728  0.000000  0.766616  1
  O  O383  1  0.446812  0.320028  0.760306  1
  O  O384  1  0.446180  0.127692  0.760304  1
  O  O385  1  0.126668  0.447584  0.772929  1
  O  O386  1  0.318432  0.872177  0.772926  1
  O  O387  1  0.318981  0.448004  0.772940  1
  O  O388  1  0.126705  0.679799  0.772922  1
  O  O389  1  0.340924  0.171237  0.772812  1
  O  O390  1  0.170135  0.342267  0.760423  1
  O  O391  1  0.169616  0.828606  0.760418  1
  O  O392  1  0.480042  0.240618  0.739070  1
  O  O393  1  0.239567  0.481238  0.794177  1
  O  O394  1  0.239358  0.759224  0.794159  1
  O  O395  1  0.175617  0.588168  0.789400  1
  O  O396  1  0.410598  0.588524  0.789430  1
  O  O397  1  0.410195  0.823195  0.789371  1
  O  O398  1  0.564431  0.644063  0.655862  1
  O  O399  1  0.563937  0.921669  0.655858  1
  O  O400  1  0.930874  0.363848  0.637629  1
  O  O401  1  0.634823  0.568146  0.637598  1
  O  O402  1  0.634199  0.067728  0.637580  1
  O  O403  1  0.930965  0.567645  0.637614  1
  O  O404  1  0.594839  0.680715  0.626587  1
  O  O405  1  0.594402  0.915219  0.626602  1
  O  O406  1  0.870849  0.551847  0.610990  1
  O  O407  1  0.678697  0.127807  0.610973  1
  O  O408  1  0.678969  0.552293  0.610978  1
  O  O409  1  0.870907  0.319684  0.611007  1
  O  O410  1  0.656581  0.828961  0.610844  1
  O  O411  1  0.758205  0.518625  0.632227  1
  O  O412  1  0.757909  0.240442  0.632227  1
  O  O413  1  0.821955  0.411339  0.627481  1
  O  O414  1  0.587330  0.411695  0.627448  1
  O  O415  1  0.586877  0.176667  0.627421  1
  O  O416  1  0.515947  0.758699  0.664658  1
  O  O417  1  0.515961  0.758688  0.706620  1
  O  O418  1  0.536069  0.667278  0.685638  1
  O  O419  1  0.535764  0.870132  0.685639  1
  O  O420  1  0.998793  0.296182  0.604674  1
  O  O421  1  0.677236  0.000000  0.604666  1
  O  O422  1  0.998704  0.703140  0.604677  1
  O  O423  1  0.948360  0.474374  0.797916  1
  O  O424  1  0.524326  0.475042  0.797933  1
  O  O425  1  0.523728  0.050440  0.797902  1
  O  O426  1  0.920500  0.564889  0.817819  1
  O  O427  1  0.642212  0.078186  0.817810  1
  O  O428  1  0.642915  0.565491  0.817828  1
  O  O429  1  0.920337  0.355827  0.817816  1
  O  O430  1  0.564453  0.644049  0.715413  1
  O  O431  1  0.563959  0.921652  0.715420  1
  O  O432  1  0.566438  0.932122  0.799531  1
  O  O433  1  0.567015  0.636031  0.799577  1
  O  O434  1  0.930905  0.363827  0.733652  1
  O  O435  1  0.634854  0.568129  0.733676  1
  O  O436  1  0.634233  0.067708  0.733700  1
  O  O437  1  0.930994  0.567622  0.733667  1
  O  O438  1  0.914008  0.595362  0.788549  1
  O  O439  1  0.679154  0.084631  0.788553  1
  O  O440  1  0.679567  0.596004  0.788564  1
  O  O441  1  0.914081  0.319151  0.788540  1
  O  O442  1  0.594871  0.680696  0.744688  1
  O  O443  1  0.594442  0.915202  0.744677  1
  O  O444  1  0.998735  0.703117  0.766604  1
  O  O445  1  0.677278  0.000000  0.766614  1
  O  O446  1  0.702592  0.703695  0.766620  1
  O  O447  1  0.870875  0.551821  0.760290  1
  O  O448  1  0.678733  0.127785  0.760308  1
  O  O449  1  0.678999  0.552274  0.760298  1
  O  O450  1  0.870942  0.319666  0.760275  1
  O  O451  1  0.551209  0.680192  0.772955  1
  O  O452  1  0.550868  0.872034  0.772922  1
  O  O453  1  0.827780  0.657574  0.772805  1
  O  O454  1  0.827589  0.170899  0.772796  1
  O  O455  1  0.656618  0.828942  0.760433  1
  O  O456  1  0.758236  0.518602  0.739051  1
  O  O457  1  0.757945  0.240418  0.739054  1
  O  O458  1  0.517459  0.759423  0.794176  1
  O  O459  1  0.821983  0.411314  0.743800  1
  O  O460  1  0.587359  0.411678  0.743827  1
  O  O461  1  0.586916  0.176649  0.743859  1
  O  O462  1  0.998828  0.296165  0.766607  1
  Si  Si463  1  0.428589  0.392864  0.153560  1
  Si  Si464  1  0.427957  0.036784  0.153554  1
  Si  Si465  1  0.035591  0.429072  0.084053  1
  Si  Si466  1  0.391111  0.963076  0.084073  1
  Si  Si467  1  0.391795  0.429705  0.084080  1
  Si  Si468  1  0.035646  0.606962  0.084067  1
  Si  Si469  1  0.368958  0.273777  0.124647  1
  Si  Si470  1  0.368319  0.096256  0.124641  1
  Si  Si471  1  0.095190  0.369740  0.112987  1
  Si  Si472  1  0.272004  0.903612  0.112989  1
  Si  Si473  1  0.272675  0.370171  0.112995  1
  Si  Si474  1  0.095104  0.726052  0.112979  1
  Si  Si475  1  0.487453  0.332933  0.095850  1
  Si  Si476  1  0.486984  0.155462  0.095859  1
  Si  Si477  1  0.154436  0.488267  0.141779  1
  Si  Si478  1  0.331468  0.844403  0.141768  1
  Si  Si479  1  0.331895  0.488608  0.141796  1
  Si  Si480  1  0.154449  0.666895  0.141774  1
  Si  Si481  1  0.487580  0.333727  0.217328  1
  Si  Si482  1  0.487235  0.154923  0.217329  1
  Si  Si483  1  0.428559  0.392879  0.246012  1
  Si  Si484  1  0.427921  0.036799  0.246023  1
  Si  Si485  1  0.368927  0.273795  0.274926  1
  Si  Si486  1  0.368283  0.096272  0.274936  1
  Si  Si487  1  0.154407  0.488288  0.257799  1
  Si  Si488  1  0.331430  0.844422  0.257810  1
  Si  Si489  1  0.331863  0.488621  0.257777  1
  Si  Si490  1  0.154414  0.666913  0.257806  1
  Si  Si491  1  0.487596  0.333719  0.182247  1
  Si  Si492  1  0.487250  0.154915  0.182246  1
  Si  Si493  1  0.510100  0.844327  0.141766  1
  Si  Si494  1  0.961996  0.570123  0.153543  1
  Si  Si495  1  0.605832  0.036741  0.153535  1
  Si  Si496  1  0.606440  0.570785  0.153574  1
  Si  Si497  1  0.961978  0.392255  0.153552  1
  Si  Si498  1  0.569660  0.607605  0.084073  1
  Si  Si499  1  0.569012  0.963086  0.084093  1
  Si  Si500  1  0.902397  0.629653  0.124632  1
  Si  Si501  1  0.725079  0.096232  0.124639  1
  Si  Si502  1  0.725362  0.630119  0.124637  1
  Si  Si503  1  0.902441  0.273331  0.124618  1
  Si  Si504  1  0.629043  0.726523  0.113008  1
  Si  Si505  1  0.628763  0.903585  0.112987  1
  Si  Si506  1  0.843182  0.511216  0.095831  1
  Si  Si507  1  0.665671  0.155496  0.095862  1
  Si  Si508  1  0.666081  0.511592  0.095844  1
  Si  Si509  1  0.843128  0.332566  0.095824  1
  Si  Si510  1  0.510502  0.667291  0.141803  1
  Si  Si511  1  0.843841  0.333180  0.217330  1
  Si  Si512  1  0.961964  0.570139  0.246035  1
  Si  Si513  1  0.605795  0.036755  0.246043  1
  Si  Si514  1  0.606408  0.570801  0.245999  1
  Si  Si515  1  0.961947  0.392272  0.246028  1
  Si  Si516  1  0.902368  0.629677  0.274946  1
  Si  Si517  1  0.725040  0.096252  0.274940  1
  Si  Si518  1  0.725330  0.630139  0.274937  1
  Si  Si519  1  0.902405  0.273348  0.274962  1
  Si  Si520  1  0.510468  0.667305  0.257770  1
  Si  Si521  1  0.510058  0.844338  0.257811  1
  Si  Si522  1  0.844004  0.511141  0.182249  1
  Si  Si523  1  0.665059  0.154651  0.182249  1
  Si  Si524  1  0.665556  0.511602  0.182247  1
  Si  Si525  1  0.843857  0.333174  0.182248  1
  Si  Si526  1  0.843987  0.511147  0.217328  1
  Si  Si527  1  0.665043  0.154657  0.217329  1
  Si  Si528  1  0.665540  0.511611  0.217329  1
  Si  Si529  1  0.153802  0.666114  0.379280  1
  Si  Si530  1  0.035561  0.429092  0.315525  1
  Si  Si531  1  0.391077  0.963094  0.315506  1
  Si  Si532  1  0.391765  0.429723  0.315492  1
  Si  Si533  1  0.035618  0.606983  0.315513  1
  Si  Si534  1  0.095157  0.369758  0.286591  1
  Si  Si535  1  0.271972  0.903632  0.286590  1
  Si  Si536  1  0.272640  0.370185  0.286579  1
  Si  Si537  1  0.095071  0.726073  0.286600  1
  Si  Si538  1  0.487423  0.332951  0.303723  1
  Si  Si539  1  0.486944  0.155476  0.303718  1
  Si  Si540  1  0.153874  0.488265  0.344198  1
  Si  Si541  1  0.332267  0.844956  0.344198  1
  Si  Si542  1  0.332777  0.488713  0.344198  1
  Si  Si543  1  0.153788  0.666123  0.344199  1
  Si  Si544  1  0.153890  0.488258  0.379279  1
  Si  Si545  1  0.332281  0.844946  0.379281  1
  Si  Si546  1  0.332792  0.488703  0.379278  1
  Si  Si547  1  0.428589  0.392864  0.477461  1
  Si  Si548  1  0.427957  0.036784  0.477455  1
  Si  Si549  1  0.035591  0.429072  0.407953  1
  Si  Si550  1  0.391111  0.963076  0.407974  1
  Si  Si551  1  0.391795  0.429705  0.407981  1
  Si  Si552  1  0.035646  0.606962  0.407967  1
  Si  Si553  1  0.368958  0.273777  0.448548  1
  Si  Si554  1  0.368319  0.096256  0.448542  1
  Si  Si555  1  0.095190  0.369740  0.436888  1
  Si  Si556  1  0.272004  0.903612  0.436889  1
  Si  Si557  1  0.272675  0.370171  0.436895  1
  Si  Si558  1  0.095104  0.726052  0.436880  1
  Si  Si559  1  0.487453  0.332933  0.419751  1
  Si  Si560  1  0.486984  0.155462  0.419760  1
  Si  Si561  1  0.154436  0.488267  0.465680  1
  Si  Si562  1  0.331468  0.844403  0.465668  1
  Si  Si563  1  0.331895  0.488608  0.465697  1
  Si  Si564  1  0.154449  0.666895  0.465674  1
  Si  Si565  1  0.487580  0.333727  0.541229  1
  Si  Si566  1  0.487235  0.154923  0.541230  1
  Si  Si567  1  0.428559  0.392879  0.569913  1
  Si  Si568  1  0.427921  0.036799  0.569923  1
  Si  Si569  1  0.368927  0.273795  0.598826  1
  Si  Si570  1  0.368283  0.096272  0.598836  1
  Si  Si571  1  0.154407  0.488288  0.581700  1
  Si  Si572  1  0.331430  0.844422  0.581711  1
  Si  Si573  1  0.331863  0.488621  0.581678  1
  Si  Si574  1  0.154414  0.666913  0.581707  1
  Si  Si575  1  0.487596  0.333719  0.506148  1
  Si  Si576  1  0.487250  0.154915  0.506147  1
  Si  Si577  1  0.510344  0.845191  0.379278  1
  Si  Si578  1  0.510628  0.666697  0.379279  1
  Si  Si579  1  0.569630  0.607623  0.315500  1
  Si  Si580  1  0.568979  0.963105  0.315485  1
  Si  Si581  1  0.629010  0.726543  0.286565  1
  Si  Si582  1  0.628722  0.903600  0.286590  1
  Si  Si583  1  0.843156  0.511242  0.303747  1
  Si  Si584  1  0.665636  0.155518  0.303717  1
  Si  Si585  1  0.666051  0.511610  0.303729  1
  Si  Si586  1  0.843095  0.332588  0.303755  1
  Si  Si587  1  0.510613  0.666707  0.344197  1
  Si  Si588  1  0.510331  0.845202  0.344199  1
  Si  Si589  1  0.510100  0.844327  0.465667  1
  Si  Si590  1  0.961996  0.570123  0.477444  1
  Si  Si591  1  0.605832  0.036741  0.477436  1
  Si  Si592  1  0.606440  0.570785  0.477475  1
  Si  Si593  1  0.961978  0.392255  0.477452  1
  Si  Si594  1  0.569660  0.607605  0.407974  1
  Si  Si595  1  0.569012  0.963086  0.407993  1
  Si  Si596  1  0.902397  0.629653  0.448533  1
  Si  Si597  1  0.725079  0.096232  0.448539  1
  Si  Si598  1  0.725362  0.630119  0.448537  1
  Si  Si599  1  0.902441  0.273331  0.448519  1
  Si  Si600  1  0.629043  0.726523  0.436908  1
  Si  Si601  1  0.628763  0.903585  0.436888  1
  Si  Si602  1  0.843182  0.511216  0.419732  1
  Si  Si603  1  0.665671  0.155496  0.419762  1
  Si  Si604  1  0.666081  0.511592  0.419745  1
  Si  Si605  1  0.843128  0.332566  0.419725  1
  Si  Si606  1  0.510502  0.667291  0.465704  1
  Si  Si607  1  0.843841  0.333180  0.541231  1
  Si  Si608  1  0.961964  0.570139  0.569936  1
  Si  Si609  1  0.605795  0.036755  0.569944  1
  Si  Si610  1  0.606408  0.570801  0.569900  1
  Si  Si611  1  0.961947  0.392272  0.569929  1
  Si  Si612  1  0.902368  0.629677  0.598847  1
  Si  Si613  1  0.725040  0.096252  0.598841  1
  Si  Si614  1  0.725330  0.630139  0.598837  1
  Si  Si615  1  0.902405  0.273348  0.598863  1
  Si  Si616  1  0.510468  0.667305  0.581670  1
  Si  Si617  1  0.510058  0.844338  0.581712  1
  Si  Si618  1  0.844004  0.511141  0.506150  1
  Si  Si619  1  0.665059  0.154651  0.506150  1
  Si  Si620  1  0.665556  0.511602  0.506147  1
  Si  Si621  1  0.843857  0.333174  0.506149  1
  Si  Si622  1  0.843987  0.511147  0.541229  1
  Si  Si623  1  0.665043  0.154657  0.541230  1
  Si  Si624  1  0.665540  0.511611  0.541230  1
  Si  Si625  1  0.153802  0.666114  0.703181  1
  Si  Si626  1  0.035561  0.429092  0.639426  1
  Si  Si627  1  0.391077  0.963094  0.639406  1
  Si  Si628  1  0.391765  0.429723  0.639393  1
  Si  Si629  1  0.035618  0.606983  0.639414  1
  Si  Si630  1  0.095157  0.369758  0.610491  1
  Si  Si631  1  0.271972  0.903632  0.610491  1
  Si  Si632  1  0.272640  0.370185  0.610479  1
  Si  Si633  1  0.095071  0.726073  0.610501  1
  Si  Si634  1  0.487423  0.332951  0.627623  1
  Si  Si635  1  0.486944  0.155476  0.627618  1
  Si  Si636  1  0.153874  0.488265  0.668099  1
  Si  Si637  1  0.332267  0.844956  0.668098  1
  Si  Si638  1  0.332777  0.488713  0.668099  1
  Si  Si639  1  0.153788  0.666123  0.668100  1
  Si  Si640  1  0.153890  0.488258  0.703180  1
  Si  Si641  1  0.332281  0.844946  0.703182  1
  Si  Si642  1  0.332792  0.488703  0.703179  1
  Si  Si643  1  0.428589  0.392864  0.801361  1
  Si  Si644  1  0.427957  0.036784  0.801355  1
  Si  Si645  1  0.035591  0.429072  0.731854  1
  Si  Si646  1  0.391111  0.963076  0.731875  1
  Si  Si647  1  0.391795  0.429705  0.731882  1
  Si  Si648  1  0.035646  0.606962  0.731868  1
  Si  Si649  1  0.368958  0.273777  0.772449  1
  Si  Si650  1  0.368319  0.096256  0.772442  1
  Si  Si651  1  0.095190  0.369740  0.760789  1
  Si  Si652  1  0.272004  0.903612  0.760790  1
  Si  Si653  1  0.272675  0.370171  0.760796  1
  Si  Si654  1  0.095104  0.726052  0.760781  1
  Si  Si655  1  0.487453  0.332933  0.743652  1
  Si  Si656  1  0.486984  0.155462  0.743661  1
  Si  Si657  1  0.154436  0.488267  0.789580  1
  Si  Si658  1  0.331468  0.844403  0.789569  1
  Si  Si659  1  0.331895  0.488608  0.789598  1
  Si  Si660  1  0.154449  0.666895  0.789575  1
  Si  Si661  1  0.510344  0.845191  0.703179  1
  Si  Si662  1  0.510628  0.666697  0.703180  1
  Si  Si663  1  0.569630  0.607623  0.639400  1
  Si  Si664  1  0.568979  0.963105  0.639385  1
  Si  Si665  1  0.629010  0.726543  0.610466  1
  Si  Si666  1  0.628722  0.903600  0.610491  1
  Si  Si667  1  0.843156  0.511242  0.627648  1
  Si  Si668  1  0.665636  0.155518  0.627618  1
  Si  Si669  1  0.666051  0.511610  0.627629  1
  Si  Si670  1  0.843095  0.332588  0.627656  1
  Si  Si671  1  0.510613  0.666707  0.668097  1
  Si  Si672  1  0.510331  0.845202  0.668100  1
  Si  Si673  1  0.510100  0.844327  0.789568  1
  Si  Si674  1  0.961996  0.570123  0.801345  1
  Si  Si675  1  0.605832  0.036741  0.801337  1
  Si  Si676  1  0.606440  0.570785  0.801376  1
  Si  Si677  1  0.961978  0.392255  0.801353  1
  Si  Si678  1  0.569660  0.607605  0.731874  1
  Si  Si679  1  0.569012  0.963086  0.731894  1
  Si  Si680  1  0.902397  0.629653  0.772433  1
  Si  Si681  1  0.725079  0.096232  0.772440  1
  Si  Si682  1  0.725362  0.630119  0.772438  1
  Si  Si683  1  0.902441  0.273331  0.772419  1
  Si  Si684  1  0.629043  0.726523  0.760809  1
  Si  Si685  1  0.628763  0.903585  0.760789  1
  Si  Si686  1  0.843182  0.511216  0.743632  1
  Si  Si687  1  0.665671  0.155496  0.743663  1
  Si  Si688  1  0.666081  0.511592  0.743646  1
  Si  Si689  1  0.843128  0.332566  0.743626  1
  Si  Si690  1  0.510502  0.667291  0.789605  1
  H  H691  1  0.077349  0.434367  0.057287  1
  H  H692  1  0.354811  0.921405  0.057297  1
  H  H693  1  0.355525  0.434948  0.057296  1
  H  H694  1  0.077261  0.643347  0.057292  1
  H  H695  1  0.564453  0.644049  0.057300  1
  H  H696  1  0.563959  0.921652  0.057307  1
  H  H697  1  0.433818  0.356472  0.828135  1
  H  H698  1  0.433321  0.078452  0.828131  1
  H  H699  1  0.920500  0.564889  0.828131  1
  H  H700  1  0.642212  0.078186  0.828122  1
  H  H701  1  0.642915  0.565491  0.828140  1
  H  H702  1  0.920337  0.355827  0.828127  1
