# generated using pymatgen
data_Si42H2O85
_symmetry_space_group_name_H-M   'P 1'
_cell_length_a   17.29992123
_cell_length_b   17.30415519
_cell_length_c   97.67397100
_cell_angle_alpha   90.00000000
_cell_angle_beta   90.00000000
_cell_angle_gamma   120.00000000
_symmetry_Int_Tables_number   1
_chemical_formula_structural   Si42H2O85
_chemical_formula_sum   'Si252 H12 O510'
_cell_volume   25322.3497744
_cell_formula_units_Z   6
loop_
 _symmetry_equiv_pos_site_id
 _symmetry_equiv_pos_as_xyz
  1  'x, y, z'
loop_
 _atom_site_type_symbol
 _atom_site_label
 _atom_site_symmetry_multiplicity
 _atom_site_fract_x
 _atom_site_fract_y
 _atom_site_fract_z
 _atom_site_occupancy
  O  O1  1  0.077325  0.434380  0.060424  1
  O  O2  1  0.354786  0.921418  0.060417  1
  O  O3  1  0.355503  0.434963  0.060412  1
  O  O4  1  0.077241  0.643361  0.060421  1
  O  O5  1  0.176850  0.588710  0.070287  1
  O  O6  1  0.410135  0.589228  0.070285  1
  O  O7  1  0.409795  0.822029  0.070289  1
  O  O8  1  0.176866  0.588702  0.103747  1
  O  O9  1  0.410151  0.589217  0.103748  1
  O  O10  1  0.409808  0.822018  0.103745  1
  O  O11  1  0.240611  0.483046  0.068265  1
  O  O12  1  0.240335  0.758218  0.068263  1
  O  O13  1  0.240627  0.483037  0.105768  1
  O  O14  1  0.240350  0.758208  0.105773  1
  O  O15  1  0.129020  0.462809  0.087017  1
  O  O16  1  0.331625  0.869772  0.087018  1
  O  O17  1  0.332314  0.463308  0.087016  1
  O  O18  1  0.128895  0.666624  0.087018  1
  O  O19  1  0.049223  0.524808  0.131390  1
  O  O20  1  0.473917  0.525461  0.131403  1
  O  O21  1  0.473211  0.949403  0.131418  1
  O  O22  1  0.433818  0.356472  0.205135  1
  O  O23  1  0.433321  0.078452  0.205132  1
  O  O24  1  0.077349  0.434367  0.113610  1
  O  O25  1  0.354811  0.921405  0.113620  1
  O  O26  1  0.355525  0.434948  0.113619  1
  O  O27  1  0.077261  0.643347  0.113615  1
  O  O28  1  0.066637  0.635463  0.188797  1
  O  O29  1  0.363280  0.432193  0.188817  1
  O  O30  1  0.362761  0.932124  0.188810  1
  O  O31  1  0.066661  0.431741  0.188807  1
  O  O32  1  0.430569  0.067734  0.129942  1
  O  O33  1  0.431076  0.364363  0.129952  1
  O  O34  1  0.403277  0.319671  0.178987  1
  O  O35  1  0.402530  0.084602  0.178987  1
  O  O36  1  0.083509  0.403860  0.139760  1
  O  O37  1  0.317857  0.915252  0.139765  1
  O  O38  1  0.318568  0.404457  0.139774  1
  O  O39  1  0.083543  0.680165  0.139763  1
  O  O40  1  0.295529  0.296706  0.159386  1
  O  O41  1  0.294728  -0.000000  0.159377  1
  O  O42  1  0.446812  0.320028  0.153738  1
  O  O43  1  0.446180  0.127692  0.153736  1
  O  O44  1  0.126668  0.447584  0.165018  1
  O  O45  1  0.318432  0.872177  0.165016  1
  O  O46  1  0.318981  0.448004  0.165027  1
  O  O47  1  0.126705  0.679799  0.165011  1
  O  O48  1  0.340924  0.171237  0.164913  1
  O  O49  1  0.170135  0.342267  0.153843  1
  O  O50  1  0.169616  0.828606  0.153838  1
  O  O51  1  0.480042  0.240618  0.134762  1
  O  O52  1  0.239567  0.481238  0.184005  1
  O  O53  1  0.239358  0.759224  0.183989  1
  O  O54  1  0.175617  0.588168  0.179736  1
  O  O55  1  0.410598  0.588524  0.179763  1
  O  O56  1  0.410195  0.823195  0.179710  1
  O  O57  1  0.433795  0.356484  0.258329  1
  O  O58  1  0.433295  0.078464  0.258335  1
  O  O59  1  0.066603  0.635479  0.274672  1
  O  O60  1  0.363247  0.432206  0.274646  1
  O  O61  1  0.362722  0.932140  0.274659  1
  O  O62  1  0.066630  0.431760  0.274663  1
  O  O63  1  0.403244  0.319686  0.284477  1
  O  O64  1  0.402492  0.084617  0.284480  1
  O  O65  1  0.126638  0.447602  0.298451  1
  O  O66  1  0.318399  0.872197  0.298453  1
  O  O67  1  0.318948  0.448016  0.298437  1
  O  O68  1  0.126671  0.679817  0.298459  1
  O  O69  1  0.340891  0.171254  0.298552  1
  O  O70  1  0.239533  0.481256  0.279462  1
  O  O71  1  0.239319  0.759243  0.279481  1
  O  O72  1  0.175586  0.588188  0.283733  1
  O  O73  1  0.410566  0.588536  0.283701  1
  O  O74  1  0.410154  0.823210  0.283758  1
  O  O75  1  0.482056  0.241640  0.212979  1
  O  O76  1  0.482039  0.241648  0.250488  1
  O  O77  1  0.462180  0.333200  0.231733  1
  O  O78  1  0.461769  0.130099  0.231733  1
  O  O79  1  0.295496  0.296722  0.304079  1
  O  O80  1  0.564431  0.644063  0.060408  1
  O  O81  1  0.563937  0.921669  0.060405  1
  O  O82  1  0.515947  0.758699  0.068268  1
  O  O83  1  0.515961  0.758688  0.105765  1
  O  O84  1  0.536069  0.667278  0.087016  1
  O  O85  1  0.535764  0.870132  0.087017  1
  O  O86  1  0.948360  0.474374  0.187346  1
  O  O87  1  0.524326  0.475042  0.187361  1
  O  O88  1  0.523728  0.050440  0.187334  1
  O  O89  1  0.920500  0.564889  0.205131  1
  O  O90  1  0.642212  0.078186  0.205123  1
  O  O91  1  0.642915  0.565491  0.205139  1
  O  O92  1  0.920337  0.355827  0.205128  1
  O  O93  1  0.564453  0.644049  0.113623  1
  O  O94  1  0.563959  0.921652  0.113629  1
  O  O95  1  0.566438  0.932122  0.188789  1
  O  O96  1  0.567015  0.636031  0.188830  1
  O  O97  1  0.930905  0.363827  0.129921  1
  O  O98  1  0.634854  0.568129  0.129942  1
  O  O99  1  0.634233  0.067708  0.129963  1
  O  O100  1  0.930994  0.567622  0.129934  1
  O  O101  1  0.914008  0.595362  0.178975  1
  O  O102  1  0.679154  0.084631  0.178979  1
  O  O103  1  0.679567  0.596004  0.178989  1
  O  O104  1  0.914081  0.319151  0.178968  1
  O  O105  1  0.594871  0.680696  0.139782  1
  O  O106  1  0.594442  0.915202  0.139772  1
  O  O107  1  0.998735  0.703117  0.159366  1
  O  O108  1  0.677278  -0.000000  0.159375  1
  O  O109  1  0.702592  0.703695  0.159381  1
  O  O110  1  0.870875  0.551821  0.153724  1
  O  O111  1  0.678733  0.127785  0.153740  1
  O  O112  1  0.678999  0.552274  0.153731  1
  O  O113  1  0.870942  0.319666  0.153710  1
  O  O114  1  0.551209  0.680192  0.165041  1
  O  O115  1  0.550868  0.872034  0.165012  1
  O  O116  1  0.827780  0.657574  0.164907  1
  O  O117  1  0.827589  0.170899  0.164899  1
  O  O118  1  0.656618  0.828942  0.153852  1
  O  O119  1  0.758236  0.518602  0.134745  1
  O  O120  1  0.757945  0.240418  0.134748  1
  O  O121  1  0.517459  0.759423  0.184004  1
  O  O122  1  0.821983  0.411314  0.138988  1
  O  O123  1  0.587359  0.411678  0.139012  1
  O  O124  1  0.586916  0.176649  0.139042  1
  O  O125  1  0.998828  0.296165  0.159368  1
  O  O126  1  0.948326  0.474391  0.276124  1
  O  O127  1  0.524294  0.475058  0.276103  1
  O  O128  1  0.523691  0.050454  0.276134  1
  O  O129  1  0.920475  0.564900  0.258338  1
  O  O130  1  0.642186  0.078195  0.258346  1
  O  O131  1  0.642891  0.565504  0.258326  1
  O  O132  1  0.920312  0.355839  0.258342  1
  O  O133  1  0.566399  0.932136  0.274680  1
  O  O134  1  0.566983  0.636047  0.274634  1
  O  O135  1  0.913977  0.595384  0.284493  1
  O  O136  1  0.679113  0.084649  0.284490  1
  O  O137  1  0.679536  0.596022  0.284475  1
  O  O138  1  0.914047  0.319169  0.284502  1
  O  O139  1  0.551177  0.680210  0.298423  1
  O  O140  1  0.550825  0.872045  0.298456  1
  O  O141  1  0.827748  0.657596  0.298560  1
  O  O142  1  0.827550  0.170916  0.298571  1
  O  O143  1  0.517419  0.759437  0.279463  1
  O  O144  1  0.820856  0.410637  0.215004  1
  O  O145  1  0.588085  0.411148  0.215003  1
  O  O146  1  0.587709  0.177833  0.215006  1
  O  O147  1  0.820837  0.410642  0.248464  1
  O  O148  1  0.588068  0.411158  0.248465  1
  O  O149  1  0.587693  0.177841  0.248462  1
  O  O150  1  0.757510  0.516815  0.212982  1
  O  O151  1  0.757190  0.241167  0.212986  1
  O  O152  1  0.757492  0.516823  0.250485  1
  O  O153  1  0.757173  0.241173  0.250483  1
  O  O154  1  0.868942  0.536548  0.231734  1
  O  O155  1  0.665537  0.129718  0.231735  1
  O  O156  1  0.666151  0.537057  0.231733  1
  O  O157  1  0.868737  0.332619  0.231735  1
  O  O158  1  0.702559  0.703715  0.304084  1
  O  O159  1  0.049193  0.524828  0.332079  1
  O  O160  1  0.473886  0.525480  0.332061  1
  O  O161  1  0.473178  0.949423  0.332051  1
  O  O162  1  0.077325  0.434380  0.349857  1
  O  O163  1  0.354786  0.921418  0.349850  1
  O  O164  1  0.355503  0.434963  0.349846  1
  O  O165  1  0.077241  0.643361  0.349855  1
  O  O166  1  0.430531  0.067751  0.333526  1
  O  O167  1  0.431048  0.364383  0.333512  1
  O  O168  1  0.083478  0.403879  0.323708  1
  O  O169  1  0.317822  0.915271  0.323705  1
  O  O170  1  0.318537  0.404474  0.323690  1
  O  O171  1  0.083511  0.680188  0.323707  1
  O  O172  1  0.446782  0.320046  0.309726  1
  O  O173  1  0.446143  0.127705  0.309732  1
  O  O174  1  0.170102  0.342283  0.309624  1
  O  O175  1  0.169584  0.828626  0.309631  1
  O  O176  1  0.480005  0.240636  0.328704  1
  O  O177  1  0.176850  0.588710  0.359720  1
  O  O178  1  0.410135  0.589228  0.359719  1
  O  O179  1  0.409795  0.822029  0.359723  1
  O  O180  1  0.176866  0.588702  0.393181  1
  O  O181  1  0.410151  0.589217  0.393181  1
  O  O182  1  0.409808  0.822018  0.393179  1
  O  O183  1  0.240611  0.483046  0.357698  1
  O  O184  1  0.240335  0.758218  0.357696  1
  O  O185  1  0.240627  0.483037  0.395202  1
  O  O186  1  0.240350  0.758208  0.395206  1
  O  O187  1  0.129020  0.462809  0.376451  1
  O  O188  1  0.331625  0.869772  0.376452  1
  O  O189  1  0.332314  0.463308  0.376449  1
  O  O190  1  0.128895  0.666624  0.376452  1
  O  O191  1  0.294693  -0.000000  0.304092  1
  O  O192  1  0.049223  0.524808  0.420824  1
  O  O193  1  0.473917  0.525461  0.420836  1
  O  O194  1  0.473211  0.949403  0.420851  1
  O  O195  1  0.433818  0.356472  0.494569  1
  O  O196  1  0.433321  0.078452  0.494565  1
  O  O197  1  0.077349  0.434367  0.403044  1
  O  O198  1  0.354811  0.921405  0.403053  1
  O  O199  1  0.355525  0.434948  0.403052  1
  O  O200  1  0.077261  0.643347  0.403049  1
  O  O201  1  0.066637  0.635463  0.478231  1
  O  O202  1  0.363280  0.432193  0.478251  1
  O  O203  1  0.362761  0.932124  0.478243  1
  O  O204  1  0.066661  0.431741  0.478240  1
  O  O205  1  0.430569  0.067734  0.419376  1
  O  O206  1  0.431076  0.364363  0.419385  1
  O  O207  1  0.403277  0.319671  0.468421  1
  O  O208  1  0.402530  0.084602  0.468420  1
  O  O209  1  0.083509  0.403860  0.429194  1
  O  O210  1  0.317857  0.915252  0.429198  1
  O  O211  1  0.318568  0.404457  0.429208  1
  O  O212  1  0.083543  0.680165  0.429197  1
  O  O213  1  0.295529  0.296706  0.448819  1
  O  O214  1  0.294728  0.000000  0.448810  1
  O  O215  1  0.446812  0.320028  0.443171  1
  O  O216  1  0.446180  0.127692  0.443170  1
  O  O217  1  0.126668  0.447584  0.454451  1
  O  O218  1  0.318432  0.872177  0.454449  1
  O  O219  1  0.318981  0.448004  0.454461  1
  O  O220  1  0.126705  0.679799  0.454445  1
  O  O221  1  0.340924  0.171237  0.454347  1
  O  O222  1  0.170135  0.342267  0.443276  1
  O  O223  1  0.169616  0.828606  0.443272  1
  O  O224  1  0.480042  0.240618  0.424195  1
  O  O225  1  0.239567  0.481238  0.473438  1
  O  O226  1  0.239358  0.759224  0.473422  1
  O  O227  1  0.175617  0.588168  0.469170  1
  O  O228  1  0.410598  0.588524  0.469197  1
  O  O229  1  0.410195  0.823195  0.469144  1
  O  O230  1  0.433795  0.356484  0.547763  1
  O  O231  1  0.433295  0.078464  0.547769  1
  O  O232  1  0.066603  0.635479  0.564106  1
  O  O233  1  0.363247  0.432206  0.564080  1
  O  O234  1  0.362722  0.932140  0.564092  1
  O  O235  1  0.066630  0.431760  0.564097  1
  O  O236  1  0.403244  0.319686  0.573910  1
  O  O237  1  0.402492  0.084617  0.573914  1
  O  O238  1  0.126638  0.447602  0.587885  1
  O  O239  1  0.318399  0.872197  0.587887  1
  O  O240  1  0.318948  0.448016  0.587871  1
  O  O241  1  0.126671  0.679817  0.587893  1
  O  O242  1  0.340891  0.171254  0.587986  1
  O  O243  1  0.239533  0.481256  0.568895  1
  O  O244  1  0.239319  0.759243  0.568914  1
  O  O245  1  0.175586  0.588188  0.573167  1
  O  O246  1  0.410566  0.588536  0.573135  1
  O  O247  1  0.410154  0.823210  0.573191  1
  O  O248  1  0.482056  0.241640  0.502412  1
  O  O249  1  0.482039  0.241648  0.539921  1
  O  O250  1  0.462180  0.333200  0.521166  1
  O  O251  1  0.461769  0.130099  0.521167  1
  O  O252  1  0.295496  0.296722  0.593512  1
  O  O253  1  0.564431  0.644063  0.349842  1
  O  O254  1  0.563937  0.921669  0.349839  1
  O  O255  1  0.930874  0.363848  0.333549  1
  O  O256  1  0.634823  0.568146  0.333522  1
  O  O257  1  0.634199  0.067728  0.333506  1
  O  O258  1  0.930965  0.567645  0.333536  1
  O  O259  1  0.594839  0.680715  0.323682  1
  O  O260  1  0.594402  0.915219  0.323695  1
  O  O261  1  0.870849  0.551847  0.309745  1
  O  O262  1  0.678697  0.127807  0.309730  1
  O  O263  1  0.678969  0.552293  0.309734  1
  O  O264  1  0.870907  0.319684  0.309760  1
  O  O265  1  0.656581  0.828961  0.309614  1
  O  O266  1  0.758205  0.518625  0.328722  1
  O  O267  1  0.757909  0.240442  0.328722  1
  O  O268  1  0.821955  0.411339  0.324481  1
  O  O269  1  0.587330  0.411695  0.324452  1
  O  O270  1  0.586877  0.176667  0.324428  1
  O  O271  1  0.515947  0.758699  0.357702  1
  O  O272  1  0.515961  0.758688  0.395198  1
  O  O273  1  0.536069  0.667278  0.376449  1
  O  O274  1  0.535764  0.870132  0.376450  1
  O  O275  1  0.998793  0.296182  0.304101  1
  O  O276  1  0.677236  -0.000000  0.304094  1
  O  O277  1  0.998704  0.703140  0.304104  1
  O  O278  1  0.948360  0.474374  0.476780  1
  O  O279  1  0.524326  0.475042  0.476794  1
  O  O280  1  0.523728  0.050440  0.476767  1
  O  O281  1  0.920500  0.564889  0.494565  1
  O  O282  1  0.642212  0.078186  0.494557  1
  O  O283  1  0.642915  0.565491  0.494573  1
  O  O284  1  0.920337  0.355827  0.494562  1
  O  O285  1  0.564453  0.644049  0.403056  1
  O  O286  1  0.563959  0.921652  0.403063  1
  O  O287  1  0.566438  0.932122  0.478222  1
  O  O288  1  0.567015  0.636031  0.478264  1
  O  O289  1  0.930905  0.363827  0.419354  1
  O  O290  1  0.634854  0.568129  0.419376  1
  O  O291  1  0.634233  0.067708  0.419397  1
  O  O292  1  0.930994  0.567622  0.419368  1
  O  O293  1  0.914008  0.595362  0.468409  1
  O  O294  1  0.679154  0.084631  0.468413  1
  O  O295  1  0.679567  0.596004  0.468423  1
  O  O296  1  0.914081  0.319151  0.468401  1
  O  O297  1  0.594871  0.680696  0.429216  1
  O  O298  1  0.594442  0.915202  0.429206  1
  O  O299  1  0.998735  0.703117  0.448799  1
  O  O300  1  0.677278  -0.000000  0.448808  1
  O  O301  1  0.702592  0.703695  0.448814  1
  O  O302  1  0.870875  0.551821  0.443158  1
  O  O303  1  0.678733  0.127785  0.443173  1
  O  O304  1  0.678999  0.552274  0.443164  1
  O  O305  1  0.870942  0.319666  0.443144  1
  O  O306  1  0.551209  0.680192  0.454475  1
  O  O307  1  0.550868  0.872034  0.454445  1
  O  O308  1  0.827780  0.657574  0.454340  1
  O  O309  1  0.827589  0.170899  0.454332  1
  O  O310  1  0.656618  0.828942  0.443285  1
  O  O311  1  0.758236  0.518602  0.424178  1
  O  O312  1  0.757945  0.240418  0.424181  1
  O  O313  1  0.517459  0.759423  0.473437  1
  O  O314  1  0.821983  0.411314  0.428422  1
  O  O315  1  0.587359  0.411678  0.428446  1
  O  O316  1  0.586916  0.176649  0.428475  1
  O  O317  1  0.998828  0.296165  0.448802  1
  O  O318  1  0.948326  0.474391  0.565557  1
  O  O319  1  0.524294  0.475058  0.565537  1
  O  O320  1  0.523691  0.050454  0.565568  1
  O  O321  1  0.920475  0.564900  0.547771  1
  O  O322  1  0.642186  0.078195  0.547780  1
  O  O323  1  0.642891  0.565504  0.547759  1
  O  O324  1  0.920312  0.355839  0.547776  1
  O  O325  1  0.566399  0.932136  0.564114  1
  O  O326  1  0.566983  0.636047  0.564067  1
  O  O327  1  0.913977  0.595384  0.573927  1
  O  O328  1  0.679113  0.084649  0.573924  1
  O  O329  1  0.679536  0.596022  0.573909  1
  O  O330  1  0.914047  0.319169  0.573936  1
  O  O331  1  0.551177  0.680210  0.587857  1
  O  O332  1  0.550825  0.872045  0.587890  1
  O  O333  1  0.827748  0.657596  0.587993  1
  O  O334  1  0.827550  0.170916  0.588005  1
  O  O335  1  0.517419  0.759437  0.568896  1
  O  O336  1  0.820856  0.410637  0.504437  1
  O  O337  1  0.588085  0.411148  0.504436  1
  O  O338  1  0.587709  0.177833  0.504439  1
  O  O339  1  0.820837  0.410642  0.537898  1
  O  O340  1  0.588068  0.411158  0.537898  1
  O  O341  1  0.587693  0.177841  0.537895  1
  O  O342  1  0.757510  0.516815  0.502416  1
  O  O343  1  0.757190  0.241167  0.502419  1
  O  O344  1  0.757492  0.516823  0.539919  1
  O  O345  1  0.757173  0.241173  0.539917  1
  O  O346  1  0.868942  0.536548  0.521168  1
  O  O347  1  0.665537  0.129718  0.521168  1
  O  O348  1  0.666151  0.537057  0.521167  1
  O  O349  1  0.868737  0.332619  0.521169  1
  O  O350  1  0.702559  0.703715  0.593517  1
  O  O351  1  0.049193  0.524828  0.621513  1
  O  O352  1  0.473886  0.525480  0.621495  1
  O  O353  1  0.473178  0.949423  0.621485  1
  O  O354  1  0.077325  0.434380  0.639291  1
  O  O355  1  0.354786  0.921418  0.639284  1
  O  O356  1  0.355503  0.434963  0.639279  1
  O  O357  1  0.077241  0.643361  0.639288  1
  O  O358  1  0.430531  0.067751  0.622960  1
  O  O359  1  0.431048  0.364383  0.622946  1
  O  O360  1  0.083478  0.403879  0.613142  1
  O  O361  1  0.317822  0.915271  0.613138  1
  O  O362  1  0.318537  0.404474  0.613123  1
  O  O363  1  0.083511  0.680188  0.613140  1
  O  O364  1  0.446782  0.320046  0.599160  1
  O  O365  1  0.446143  0.127705  0.599165  1
  O  O366  1  0.170102  0.342283  0.599057  1
  O  O367  1  0.169584  0.828626  0.599065  1
  O  O368  1  0.480005  0.240636  0.618137  1
  O  O369  1  0.176850  0.588710  0.649154  1
  O  O370  1  0.410135  0.589228  0.649153  1
  O  O371  1  0.409795  0.822029  0.649156  1
  O  O372  1  0.176866  0.588702  0.682614  1
  O  O373  1  0.410151  0.589217  0.682615  1
  O  O374  1  0.409808  0.822018  0.682612  1
  O  O375  1  0.240611  0.483046  0.647132  1
  O  O376  1  0.240335  0.758218  0.647130  1
  O  O377  1  0.240627  0.483037  0.684635  1
  O  O378  1  0.240350  0.758208  0.684640  1
  O  O379  1  0.129020  0.462809  0.665884  1
  O  O380  1  0.331625  0.869772  0.665885  1
  O  O381  1  0.332314  0.463308  0.665883  1
  O  O382  1  0.128895  0.666624  0.665885  1
  O  O383  1  0.294693  -0.000000  0.593525  1
  O  O384  1  0.049223  0.524808  0.710257  1
  O  O385  1  0.473917  0.525461  0.710270  1
  O  O386  1  0.473211  0.949403  0.710285  1
  O  O387  1  0.433818  0.356472  0.784002  1
  O  O388  1  0.433321  0.078452  0.783999  1
  O  O389  1  0.077349  0.434367  0.692478  1
  O  O390  1  0.354811  0.921405  0.692487  1
  O  O391  1  0.355525  0.434948  0.692486  1
  O  O392  1  0.077261  0.643347  0.692482  1
  O  O393  1  0.066637  0.635463  0.767664  1
  O  O394  1  0.363280  0.432193  0.767685  1
  O  O395  1  0.362761  0.932124  0.767677  1
  O  O396  1  0.066661  0.431741  0.767674  1
  O  O397  1  0.430569  0.067734  0.708810  1
  O  O398  1  0.431076  0.364363  0.708819  1
  O  O399  1  0.403277  0.319671  0.757854  1
  O  O400  1  0.402530  0.084602  0.757854  1
  O  O401  1  0.083509  0.403860  0.718628  1
  O  O402  1  0.317857  0.915252  0.718632  1
  O  O403  1  0.318568  0.404457  0.718642  1
  O  O404  1  0.083543  0.680165  0.718631  1
  O  O405  1  0.295529  0.296706  0.738253  1
  O  O406  1  0.294728  -0.000000  0.738244  1
  O  O407  1  0.446812  0.320028  0.732605  1
  O  O408  1  0.446180  0.127692  0.732603  1
  O  O409  1  0.126668  0.447584  0.743885  1
  O  O410  1  0.318432  0.872177  0.743883  1
  O  O411  1  0.318981  0.448004  0.743895  1
  O  O412  1  0.126705  0.679799  0.743878  1
  O  O413  1  0.340924  0.171237  0.743781  1
  O  O414  1  0.170135  0.342267  0.732710  1
  O  O415  1  0.169616  0.828606  0.732705  1
  O  O416  1  0.480042  0.240618  0.713629  1
  O  O417  1  0.239567  0.481238  0.762872  1
  O  O418  1  0.239358  0.759224  0.762856  1
  O  O419  1  0.175617  0.588168  0.758603  1
  O  O420  1  0.410598  0.588524  0.758631  1
  O  O421  1  0.410195  0.823195  0.758578  1
  O  O422  1  0.433795  0.356484  0.837196  1
  O  O423  1  0.433295  0.078464  0.837202  1
  O  O424  1  0.482056  0.241640  0.791846  1
  O  O425  1  0.482039  0.241648  0.829355  1
  O  O426  1  0.462180  0.333200  0.810600  1
  O  O427  1  0.461769  0.130099  0.810600  1
  O  O428  1  0.564431  0.644063  0.639275  1
  O  O429  1  0.563937  0.921669  0.639272  1
  O  O430  1  0.930874  0.363848  0.622982  1
  O  O431  1  0.634823  0.568146  0.622955  1
  O  O432  1  0.634199  0.067728  0.622939  1
  O  O433  1  0.930965  0.567645  0.622970  1
  O  O434  1  0.594839  0.680715  0.613116  1
  O  O435  1  0.594402  0.915219  0.613129  1
  O  O436  1  0.870849  0.551847  0.599179  1
  O  O437  1  0.678697  0.127807  0.599163  1
  O  O438  1  0.678969  0.552293  0.599167  1
  O  O439  1  0.870907  0.319684  0.599193  1
  O  O440  1  0.656581  0.828961  0.599048  1
  O  O441  1  0.758205  0.518625  0.618155  1
  O  O442  1  0.757909  0.240442  0.618155  1
  O  O443  1  0.821955  0.411339  0.613914  1
  O  O444  1  0.587330  0.411695  0.613885  1
  O  O445  1  0.586877  0.176667  0.613861  1
  O  O446  1  0.515947  0.758699  0.647135  1
  O  O447  1  0.515961  0.758688  0.684632  1
  O  O448  1  0.536069  0.667278  0.665883  1
  O  O449  1  0.535764  0.870132  0.665884  1
  O  O450  1  0.998793  0.296182  0.593535  1
  O  O451  1  0.677236  -0.000000  0.593527  1
  O  O452  1  0.998704  0.703140  0.593537  1
  O  O453  1  0.948360  0.474374  0.766213  1
  O  O454  1  0.524326  0.475042  0.766228  1
  O  O455  1  0.523728  0.050440  0.766201  1
  O  O456  1  0.920500  0.564889  0.783998  1
  O  O457  1  0.642212  0.078186  0.783990  1
  O  O458  1  0.642915  0.565491  0.784006  1
  O  O459  1  0.920337  0.355827  0.783995  1
  O  O460  1  0.564453  0.644049  0.692490  1
  O  O461  1  0.563959  0.921652  0.692496  1
  O  O462  1  0.566438  0.932122  0.767656  1
  O  O463  1  0.567015  0.636031  0.767698  1
  O  O464  1  0.930905  0.363827  0.708788  1
  O  O465  1  0.634854  0.568129  0.708809  1
  O  O466  1  0.634233  0.067708  0.708830  1
  O  O467  1  0.930994  0.567622  0.708801  1
  O  O468  1  0.914008  0.595362  0.757842  1
  O  O469  1  0.679154  0.084631  0.757846  1
  O  O470  1  0.679567  0.596004  0.757856  1
  O  O471  1  0.914081  0.319151  0.757835  1
  O  O472  1  0.594871  0.680696  0.718649  1
  O  O473  1  0.594442  0.915202  0.718640  1
  O  O474  1  0.998735  0.703117  0.738233  1
  O  O475  1  0.677278  -0.000000  0.738242  1
  O  O476  1  0.702592  0.703695  0.738248  1
  O  O477  1  0.870875  0.551821  0.732591  1
  O  O478  1  0.678733  0.127785  0.732607  1
  O  O479  1  0.678999  0.552274  0.732598  1
  O  O480  1  0.870942  0.319666  0.732578  1
  O  O481  1  0.551209  0.680192  0.743909  1
  O  O482  1  0.550868  0.872034  0.743879  1
  O  O483  1  0.827780  0.657574  0.743774  1
  O  O484  1  0.827589  0.170899  0.743766  1
  O  O485  1  0.656618  0.828942  0.732719  1
  O  O486  1  0.758236  0.518602  0.713612  1
  O  O487  1  0.757945  0.240418  0.713615  1
  O  O488  1  0.517459  0.759423  0.762871  1
  O  O489  1  0.821983  0.411314  0.717855  1
  O  O490  1  0.587359  0.411678  0.717879  1
  O  O491  1  0.586916  0.176649  0.717909  1
  O  O492  1  0.998828  0.296165  0.738236  1
  O  O493  1  0.920475  0.564900  0.837205  1
  O  O494  1  0.642186  0.078195  0.837214  1
  O  O495  1  0.642891  0.565504  0.837193  1
  O  O496  1  0.920312  0.355839  0.837209  1
  O  O497  1  0.820856  0.410637  0.793871  1
  O  O498  1  0.588085  0.411148  0.793870  1
  O  O499  1  0.587709  0.177833  0.793873  1
  O  O500  1  0.820837  0.410642  0.827331  1
  O  O501  1  0.588068  0.411158  0.827332  1
  O  O502  1  0.587693  0.177841  0.827329  1
  O  O503  1  0.757510  0.516815  0.791849  1
  O  O504  1  0.757190  0.241167  0.791853  1
  O  O505  1  0.757492  0.516823  0.829353  1
  O  O506  1  0.757173  0.241173  0.829350  1
  O  O507  1  0.868942  0.536548  0.810601  1
  O  O508  1  0.665537  0.129718  0.810602  1
  O  O509  1  0.666151  0.537057  0.810600  1
  O  O510  1  0.868737  0.332619  0.810602  1
  Si  Si511  1  0.153802  0.666114  0.102692  1
  Si  Si512  1  0.153874  0.488265  0.071343  1
  Si  Si513  1  0.332267  0.844956  0.071342  1
  Si  Si514  1  0.332777  0.488713  0.071343  1
  Si  Si515  1  0.153788  0.666123  0.071344  1
  Si  Si516  1  0.153890  0.488258  0.102691  1
  Si  Si517  1  0.332281  0.844946  0.102693  1
  Si  Si518  1  0.332792  0.488703  0.102690  1
  Si  Si519  1  0.428589  0.392864  0.190425  1
  Si  Si520  1  0.427957  0.036784  0.190419  1
  Si  Si521  1  0.035591  0.429072  0.128314  1
  Si  Si522  1  0.391111  0.963076  0.128332  1
  Si  Si523  1  0.391795  0.429705  0.128339  1
  Si  Si524  1  0.035646  0.606962  0.128326  1
  Si  Si525  1  0.368958  0.273777  0.164589  1
  Si  Si526  1  0.368319  0.096256  0.164583  1
  Si  Si527  1  0.095190  0.369740  0.154169  1
  Si  Si528  1  0.272004  0.903612  0.154171  1
  Si  Si529  1  0.272675  0.370171  0.154176  1
  Si  Si530  1  0.095104  0.726052  0.154162  1
  Si  Si531  1  0.487453  0.332933  0.138856  1
  Si  Si532  1  0.486984  0.155462  0.138864  1
  Si  Si533  1  0.154436  0.488267  0.179897  1
  Si  Si534  1  0.331468  0.844403  0.179887  1
  Si  Si535  1  0.331895  0.488608  0.179913  1
  Si  Si536  1  0.154449  0.666895  0.179892  1
  Si  Si537  1  0.487580  0.333727  0.247407  1
  Si  Si538  1  0.487235  0.154923  0.247408  1
  Si  Si539  1  0.428559  0.392879  0.273039  1
  Si  Si540  1  0.427921  0.036799  0.273048  1
  Si  Si541  1  0.368927  0.273795  0.298875  1
  Si  Si542  1  0.368283  0.096272  0.298884  1
  Si  Si543  1  0.154407  0.488288  0.283571  1
  Si  Si544  1  0.331430  0.844422  0.283581  1
  Si  Si545  1  0.331863  0.488621  0.283552  1
  Si  Si546  1  0.154414  0.666913  0.283578  1
  Si  Si547  1  0.487596  0.333719  0.216059  1
  Si  Si548  1  0.487250  0.154915  0.216058  1
  Si  Si549  1  0.510344  0.845191  0.102690  1
  Si  Si550  1  0.510628  0.666697  0.102691  1
  Si  Si551  1  0.510613  0.666707  0.071342  1
  Si  Si552  1  0.510331  0.845202  0.071344  1
  Si  Si553  1  0.510100  0.844327  0.179886  1
  Si  Si554  1  0.961996  0.570123  0.190410  1
  Si  Si555  1  0.605832  0.036741  0.190403  1
  Si  Si556  1  0.606440  0.570785  0.190437  1
  Si  Si557  1  0.961978  0.392255  0.190417  1
  Si  Si558  1  0.569660  0.607605  0.128332  1
  Si  Si559  1  0.569012  0.963086  0.128350  1
  Si  Si560  1  0.902397  0.629653  0.164575  1
  Si  Si561  1  0.725079  0.096232  0.164581  1
  Si  Si562  1  0.725362  0.630119  0.164579  1
  Si  Si563  1  0.902441  0.273331  0.164562  1
  Si  Si564  1  0.629043  0.726523  0.154188  1
  Si  Si565  1  0.628763  0.903585  0.154169  1
  Si  Si566  1  0.843182  0.511216  0.138839  1
  Si  Si567  1  0.665671  0.155496  0.138866  1
  Si  Si568  1  0.666081  0.511592  0.138851  1
  Si  Si569  1  0.843128  0.332566  0.138833  1
  Si  Si570  1  0.510502  0.667291  0.179919  1
  Si  Si571  1  0.843841  0.333180  0.247409  1
  Si  Si572  1  0.961964  0.570139  0.273059  1
  Si  Si573  1  0.605795  0.036755  0.273066  1
  Si  Si574  1  0.606408  0.570801  0.273027  1
  Si  Si575  1  0.961947  0.392272  0.273053  1
  Si  Si576  1  0.902368  0.629677  0.298894  1
  Si  Si577  1  0.725040  0.096252  0.298889  1
  Si  Si578  1  0.725330  0.630139  0.298885  1
  Si  Si579  1  0.902405  0.273348  0.298908  1
  Si  Si580  1  0.510468  0.667305  0.283545  1
  Si  Si581  1  0.510058  0.844338  0.283582  1
  Si  Si582  1  0.844004  0.511141  0.216061  1
  Si  Si583  1  0.665059  0.154651  0.216061  1
  Si  Si584  1  0.665556  0.511602  0.216059  1
  Si  Si585  1  0.843857  0.333174  0.216060  1
  Si  Si586  1  0.843987  0.511147  0.247407  1
  Si  Si587  1  0.665043  0.154657  0.247408  1
  Si  Si588  1  0.665540  0.511611  0.247408  1
  Si  Si589  1  0.153802  0.666114  0.392125  1
  Si  Si590  1  0.035561  0.429092  0.335155  1
  Si  Si591  1  0.391077  0.963094  0.335137  1
  Si  Si592  1  0.391765  0.429723  0.335125  1
  Si  Si593  1  0.035618  0.606983  0.335144  1
  Si  Si594  1  0.095157  0.369758  0.309299  1
  Si  Si595  1  0.271972  0.903632  0.309299  1
  Si  Si596  1  0.272640  0.370185  0.309288  1
  Si  Si597  1  0.095071  0.726073  0.309308  1
  Si  Si598  1  0.487423  0.332951  0.324608  1
  Si  Si599  1  0.486944  0.155476  0.324604  1
  Si  Si600  1  0.153874  0.488265  0.360776  1
  Si  Si601  1  0.332267  0.844956  0.360776  1
  Si  Si602  1  0.332777  0.488713  0.360776  1
  Si  Si603  1  0.153788  0.666123  0.360777  1
  Si  Si604  1  0.153890  0.488258  0.392125  1
  Si  Si605  1  0.332281  0.844946  0.392126  1
  Si  Si606  1  0.332792  0.488703  0.392123  1
  Si  Si607  1  0.428589  0.392864  0.479858  1
  Si  Si608  1  0.427957  0.036784  0.479853  1
  Si  Si609  1  0.035591  0.429072  0.417747  1
  Si  Si610  1  0.391111  0.963076  0.417766  1
  Si  Si611  1  0.391795  0.429705  0.417772  1
  Si  Si612  1  0.035646  0.606962  0.417760  1
  Si  Si613  1  0.368958  0.273777  0.454022  1
  Si  Si614  1  0.368319  0.096256  0.454016  1
  Si  Si615  1  0.095190  0.369740  0.443603  1
  Si  Si616  1  0.272004  0.903612  0.443604  1
  Si  Si617  1  0.272675  0.370171  0.443610  1
  Si  Si618  1  0.095104  0.726052  0.443596  1
  Si  Si619  1  0.487453  0.332933  0.428290  1
  Si  Si620  1  0.486984  0.155462  0.428298  1
  Si  Si621  1  0.154436  0.488267  0.469331  1
  Si  Si622  1  0.331468  0.844403  0.469321  1
  Si  Si623  1  0.331895  0.488608  0.469346  1
  Si  Si624  1  0.154449  0.666895  0.469326  1
  Si  Si625  1  0.487580  0.333727  0.536841  1
  Si  Si626  1  0.487235  0.154923  0.536842  1
  Si  Si627  1  0.428559  0.392879  0.562472  1
  Si  Si628  1  0.427921  0.036799  0.562482  1
  Si  Si629  1  0.368927  0.273795  0.588309  1
  Si  Si630  1  0.368283  0.096272  0.588318  1
  Si  Si631  1  0.154407  0.488288  0.573005  1
  Si  Si632  1  0.331430  0.844422  0.573015  1
  Si  Si633  1  0.331863  0.488621  0.572985  1
  Si  Si634  1  0.154414  0.666913  0.573011  1
  Si  Si635  1  0.487596  0.333719  0.505493  1
  Si  Si636  1  0.487250  0.154915  0.505492  1
  Si  Si637  1  0.510344  0.845191  0.392124  1
  Si  Si638  1  0.510628  0.666697  0.392124  1
  Si  Si639  1  0.569630  0.607623  0.335132  1
  Si  Si640  1  0.568979  0.963105  0.335119  1
  Si  Si641  1  0.629010  0.726543  0.309277  1
  Si  Si642  1  0.628722  0.903600  0.309299  1
  Si  Si643  1  0.843156  0.511242  0.324630  1
  Si  Si644  1  0.665636  0.155518  0.324603  1
  Si  Si645  1  0.666051  0.511610  0.324614  1
  Si  Si646  1  0.843095  0.332588  0.324637  1
  Si  Si647  1  0.510613  0.666707  0.360775  1
  Si  Si648  1  0.510331  0.845202  0.360777  1
  Si  Si649  1  0.510100  0.844327  0.469319  1
  Si  Si650  1  0.961996  0.570123  0.479844  1
  Si  Si651  1  0.605832  0.036741  0.479836  1
  Si  Si652  1  0.606440  0.570785  0.479871  1
  Si  Si653  1  0.961978  0.392255  0.479851  1
  Si  Si654  1  0.569660  0.607605  0.417766  1
  Si  Si655  1  0.569012  0.963086  0.417783  1
  Si  Si656  1  0.902397  0.629653  0.454009  1
  Si  Si657  1  0.725079  0.096232  0.454014  1
  Si  Si658  1  0.725362  0.630119  0.454013  1
  Si  Si659  1  0.902441  0.273331  0.453996  1
  Si  Si660  1  0.629043  0.726523  0.443621  1
  Si  Si661  1  0.628763  0.903585  0.443603  1
  Si  Si662  1  0.843182  0.511216  0.428272  1
  Si  Si663  1  0.665671  0.155496  0.428300  1
  Si  Si664  1  0.666081  0.511592  0.428284  1
  Si  Si665  1  0.843128  0.332566  0.428266  1
  Si  Si666  1  0.510502  0.667291  0.469353  1
  Si  Si667  1  0.843841  0.333180  0.536843  1
  Si  Si668  1  0.961964  0.570139  0.562493  1
  Si  Si669  1  0.605795  0.036755  0.562500  1
  Si  Si670  1  0.606408  0.570801  0.562461  1
  Si  Si671  1  0.961947  0.392272  0.562487  1
  Si  Si672  1  0.902368  0.629677  0.588327  1
  Si  Si673  1  0.725040  0.096252  0.588322  1
  Si  Si674  1  0.725330  0.630139  0.588319  1
  Si  Si675  1  0.902405  0.273348  0.588341  1
  Si  Si676  1  0.510468  0.667305  0.572979  1
  Si  Si677  1  0.510058  0.844338  0.573016  1
  Si  Si678  1  0.844004  0.511141  0.505494  1
  Si  Si679  1  0.665059  0.154651  0.505494  1
  Si  Si680  1  0.665556  0.511602  0.505492  1
  Si  Si681  1  0.843857  0.333174  0.505494  1
  Si  Si682  1  0.843987  0.511147  0.536841  1
  Si  Si683  1  0.665043  0.154657  0.536841  1
  Si  Si684  1  0.665540  0.511611  0.536841  1
  Si  Si685  1  0.153802  0.666114  0.681559  1
  Si  Si686  1  0.035561  0.429092  0.624588  1
  Si  Si687  1  0.391077  0.963094  0.624571  1
  Si  Si688  1  0.391765  0.429723  0.624559  1
  Si  Si689  1  0.035618  0.606983  0.624577  1
  Si  Si690  1  0.095157  0.369758  0.598733  1
  Si  Si691  1  0.271972  0.903632  0.598732  1
  Si  Si692  1  0.272640  0.370185  0.598722  1
  Si  Si693  1  0.095071  0.726073  0.598741  1
  Si  Si694  1  0.487423  0.332951  0.614042  1
  Si  Si695  1  0.486944  0.155476  0.614037  1
  Si  Si696  1  0.153874  0.488265  0.650210  1
  Si  Si697  1  0.332267  0.844956  0.650210  1
  Si  Si698  1  0.332777  0.488713  0.650210  1
  Si  Si699  1  0.153788  0.666123  0.650211  1
  Si  Si700  1  0.153890  0.488258  0.681558  1
  Si  Si701  1  0.332281  0.844946  0.681560  1
  Si  Si702  1  0.332792  0.488703  0.681557  1
  Si  Si703  1  0.428589  0.392864  0.769292  1
  Si  Si704  1  0.427957  0.036784  0.769286  1
  Si  Si705  1  0.035591  0.429072  0.707181  1
  Si  Si706  1  0.391111  0.963076  0.707199  1
  Si  Si707  1  0.391795  0.429705  0.707206  1
  Si  Si708  1  0.035646  0.606962  0.707194  1
  Si  Si709  1  0.368958  0.273777  0.743456  1
  Si  Si710  1  0.368319  0.096256  0.743450  1
  Si  Si711  1  0.095190  0.369740  0.733037  1
  Si  Si712  1  0.272004  0.903612  0.733038  1
  Si  Si713  1  0.272675  0.370171  0.733043  1
  Si  Si714  1  0.095104  0.726052  0.733029  1
  Si  Si715  1  0.487453  0.332933  0.717723  1
  Si  Si716  1  0.486984  0.155462  0.717731  1
  Si  Si717  1  0.154436  0.488267  0.758765  1
  Si  Si718  1  0.331468  0.844403  0.758754  1
  Si  Si719  1  0.331895  0.488608  0.758780  1
  Si  Si720  1  0.154449  0.666895  0.758760  1
  Si  Si721  1  0.487580  0.333727  0.826274  1
  Si  Si722  1  0.487235  0.154923  0.826275  1
  Si  Si723  1  0.487596  0.333719  0.794926  1
  Si  Si724  1  0.487250  0.154915  0.794926  1
  Si  Si725  1  0.510344  0.845191  0.681557  1
  Si  Si726  1  0.510628  0.666697  0.681558  1
  Si  Si727  1  0.569630  0.607623  0.624566  1
  Si  Si728  1  0.568979  0.963105  0.624552  1
  Si  Si729  1  0.629010  0.726543  0.598710  1
  Si  Si730  1  0.628722  0.903600  0.598732  1
  Si  Si731  1  0.843156  0.511242  0.614064  1
  Si  Si732  1  0.665636  0.155518  0.614037  1
  Si  Si733  1  0.666051  0.511610  0.614047  1
  Si  Si734  1  0.843095  0.332588  0.614071  1
  Si  Si735  1  0.510613  0.666707  0.650209  1
  Si  Si736  1  0.510331  0.845202  0.650211  1
  Si  Si737  1  0.510100  0.844327  0.758753  1
  Si  Si738  1  0.961996  0.570123  0.769277  1
  Si  Si739  1  0.605832  0.036741  0.769270  1
  Si  Si740  1  0.606440  0.570785  0.769305  1
  Si  Si741  1  0.961978  0.392255  0.769284  1
  Si  Si742  1  0.569660  0.607605  0.707199  1
  Si  Si743  1  0.569012  0.963086  0.707217  1
  Si  Si744  1  0.902397  0.629653  0.743442  1
  Si  Si745  1  0.725079  0.096232  0.743448  1
  Si  Si746  1  0.725362  0.630119  0.743446  1
  Si  Si747  1  0.902441  0.273331  0.743430  1
  Si  Si748  1  0.629043  0.726523  0.733055  1
  Si  Si749  1  0.628763  0.903585  0.733037  1
  Si  Si750  1  0.843182  0.511216  0.717706  1
  Si  Si751  1  0.665671  0.155496  0.717733  1
  Si  Si752  1  0.666081  0.511592  0.717718  1
  Si  Si753  1  0.843128  0.332566  0.717700  1
  Si  Si754  1  0.510502  0.667291  0.758786  1
  Si  Si755  1  0.843841  0.333180  0.826276  1
  Si  Si756  1  0.844004  0.511141  0.794928  1
  Si  Si757  1  0.665059  0.154651  0.794928  1
  Si  Si758  1  0.665556  0.511602  0.794926  1
  Si  Si759  1  0.843857  0.333174  0.794927  1
  Si  Si760  1  0.843987  0.511147  0.826274  1
  Si  Si761  1  0.665043  0.154657  0.826275  1
  Si  Si762  1  0.665540  0.511611  0.826275  1
  H  H763  1  0.077325  0.434380  0.051210  1
  H  H764  1  0.354786  0.921418  0.051202  1
  H  H765  1  0.355503  0.434963  0.051198  1
  H  H766  1  0.077241  0.643361  0.051207  1
  H  H767  1  0.564431  0.644063  0.051194  1
  H  H768  1  0.563937  0.921669  0.051191  1
  H  H769  1  0.433795  0.356484  0.846411  1
  H  H770  1  0.433295  0.078464  0.846417  1
  H  H771  1  0.920475  0.564900  0.846419  1
  H  H772  1  0.642186  0.078195  0.846428  1
  H  H773  1  0.642891  0.565504  0.846407  1
  H  H774  1  0.920312  0.355839  0.846424  1
