# generated using pymatgen
data_Si10H2O21
_symmetry_space_group_name_H-M   'P 1'
_cell_length_a   17.29992123
_cell_length_b   17.30415519
_cell_length_c   41.13371454
_cell_angle_alpha   90.00000000
_cell_angle_beta   90.00000000
_cell_angle_gamma   120.00000000
_symmetry_Int_Tables_number   1
_chemical_formula_structural   Si10H2O21
_chemical_formula_sum   'Si60 H12 O126'
_cell_volume   10664.072489
_cell_formula_units_Z   6
loop_
 _symmetry_equiv_pos_site_id
 _symmetry_equiv_pos_as_xyz
  1  'x, y, z'
loop_
 _atom_site_type_symbol
 _atom_site_label
 _atom_site_symmetry_multiplicity
 _atom_site_fract_x
 _atom_site_fract_y
 _atom_site_fract_z
 _atom_site_occupancy
  O  O1  1  0.077325  0.434380  0.143479  1
  O  O2  1  0.354786  0.921418  0.143462  1
  O  O3  1  0.355503  0.434963  0.143452  1
  O  O4  1  0.077241  0.643361  0.143473  1
  O  O5  1  0.176850  0.588710  0.166900  1
  O  O6  1  0.410135  0.589228  0.166896  1
  O  O7  1  0.409795  0.822029  0.166905  1
  O  O8  1  0.176866  0.588702  0.246353  1
  O  O9  1  0.410151  0.589217  0.246354  1
  O  O10  1  0.409808  0.822018  0.246348  1
  O  O11  1  0.240611  0.483046  0.162098  1
  O  O12  1  0.240335  0.758218  0.162093  1
  O  O13  1  0.240627  0.483037  0.251152  1
  O  O14  1  0.240350  0.758208  0.251162  1
  O  O15  1  0.129020  0.462809  0.206626  1
  O  O16  1  0.331625  0.869772  0.206629  1
  O  O17  1  0.332314  0.463308  0.206623  1
  O  O18  1  0.128895  0.666624  0.206629  1
  O  O19  1  0.049223  0.524808  0.311992  1
  O  O20  1  0.473917  0.525461  0.312022  1
  O  O21  1  0.473211  0.949403  0.312058  1
  O  O22  1  0.433818  0.356472  0.487103  1
  O  O23  1  0.433321  0.078452  0.487095  1
  O  O24  1  0.077349  0.434367  0.269773  1
  O  O25  1  0.354811  0.921405  0.269795  1
  O  O26  1  0.355525  0.434948  0.269793  1
  O  O27  1  0.077261  0.643347  0.269784  1
  O  O28  1  0.066637  0.635463  0.448308  1
  O  O29  1  0.363280  0.432193  0.448356  1
  O  O30  1  0.362761  0.932124  0.448338  1
  O  O31  1  0.066661  0.431741  0.448331  1
  O  O32  1  0.430569  0.067734  0.308554  1
  O  O33  1  0.431076  0.364363  0.308576  1
  O  O34  1  0.403277  0.319671  0.425014  1
  O  O35  1  0.402530  0.084602  0.425013  1
  O  O36  1  0.083509  0.403860  0.331868  1
  O  O37  1  0.317857  0.915252  0.331878  1
  O  O38  1  0.318568  0.404457  0.331901  1
  O  O39  1  0.083543  0.680165  0.331875  1
  O  O40  1  0.295529  0.296706  0.378469  1
  O  O41  1  0.294728  -0.000000  0.378448  1
  O  O42  1  0.446812  0.320028  0.365058  1
  O  O43  1  0.446180  0.127692  0.365054  1
  O  O44  1  0.126668  0.447584  0.391842  1
  O  O45  1  0.318432  0.872177  0.391837  1
  O  O46  1  0.318981  0.448004  0.391866  1
  O  O47  1  0.126705  0.679799  0.391827  1
  O  O48  1  0.340924  0.171237  0.391595  1
  O  O49  1  0.170135  0.342267  0.365307  1
  O  O50  1  0.169616  0.828606  0.365296  1
  O  O51  1  0.480042  0.240618  0.319998  1
  O  O52  1  0.239567  0.481238  0.436928  1
  O  O53  1  0.239358  0.759224  0.436890  1
  O  O54  1  0.175617  0.588168  0.426792  1
  O  O55  1  0.410598  0.588524  0.426857  1
  O  O56  1  0.410195  0.823195  0.426731  1
  O  O57  1  0.433795  0.356484  0.613415  1
  O  O58  1  0.433295  0.078464  0.613429  1
  O  O59  1  0.482056  0.241640  0.505728  1
  O  O60  1  0.482039  0.241648  0.594795  1
  O  O61  1  0.462180  0.333200  0.550260  1
  O  O62  1  0.461769  0.130099  0.550262  1
  O  O63  1  0.564431  0.644063  0.143442  1
  O  O64  1  0.563937  0.921669  0.143435  1
  O  O65  1  0.515947  0.758699  0.162106  1
  O  O66  1  0.515961  0.758688  0.251144  1
  O  O67  1  0.536069  0.667278  0.206623  1
  O  O68  1  0.535764  0.870132  0.206625  1
  O  O69  1  0.948360  0.474374  0.444863  1
  O  O70  1  0.524326  0.475042  0.444897  1
  O  O71  1  0.523728  0.050440  0.444833  1
  O  O72  1  0.920500  0.564889  0.487094  1
  O  O73  1  0.642212  0.078186  0.487074  1
  O  O74  1  0.642915  0.565491  0.487113  1
  O  O75  1  0.920337  0.355827  0.487086  1
  O  O76  1  0.564453  0.644049  0.269802  1
  O  O77  1  0.563959  0.921652  0.269817  1
  O  O78  1  0.566438  0.932122  0.448288  1
  O  O79  1  0.567015  0.636031  0.448387  1
  O  O80  1  0.930905  0.363827  0.308503  1
  O  O81  1  0.634854  0.568129  0.308554  1
  O  O82  1  0.634233  0.067708  0.308604  1
  O  O83  1  0.930994  0.567622  0.308534  1
  O  O84  1  0.914008  0.595362  0.424985  1
  O  O85  1  0.679154  0.084631  0.424994  1
  O  O86  1  0.679567  0.596004  0.425018  1
  O  O87  1  0.914081  0.319151  0.424967  1
  O  O88  1  0.594871  0.680696  0.331920  1
  O  O89  1  0.594442  0.915202  0.331896  1
  O  O90  1  0.998735  0.703117  0.378421  1
  O  O91  1  0.677278  -0.000000  0.378443  1
  O  O92  1  0.702592  0.703695  0.378457  1
  O  O93  1  0.870875  0.551821  0.365025  1
  O  O94  1  0.678733  0.127785  0.365063  1
  O  O95  1  0.678999  0.552274  0.365041  1
  O  O96  1  0.870942  0.319666  0.364993  1
  O  O97  1  0.551209  0.680192  0.391899  1
  O  O98  1  0.550868  0.872034  0.391828  1
  O  O99  1  0.827780  0.657574  0.391579  1
  O  O100  1  0.827589  0.170899  0.391560  1
  O  O101  1  0.656618  0.828942  0.365328  1
  O  O102  1  0.758236  0.518602  0.319958  1
  O  O103  1  0.757945  0.240418  0.319965  1
  O  O104  1  0.517459  0.759423  0.436925  1
  O  O105  1  0.821983  0.411314  0.330034  1
  O  O106  1  0.587359  0.411678  0.330091  1
  O  O107  1  0.586916  0.176649  0.330161  1
  O  O108  1  0.998828  0.296165  0.378428  1
  O  O109  1  0.920475  0.564900  0.613435  1
  O  O110  1  0.642186  0.078195  0.613456  1
  O  O111  1  0.642891  0.565504  0.613406  1
  O  O112  1  0.920312  0.355839  0.613446  1
  O  O113  1  0.820856  0.410637  0.510537  1
  O  O114  1  0.588085  0.411148  0.510534  1
  O  O115  1  0.587709  0.177833  0.510541  1
  O  O116  1  0.820837  0.410642  0.589989  1
  O  O117  1  0.588068  0.411158  0.589991  1
  O  O118  1  0.587693  0.177841  0.589984  1
  O  O119  1  0.757510  0.516815  0.505736  1
  O  O120  1  0.757190  0.241167  0.505745  1
  O  O121  1  0.757492  0.516823  0.594789  1
  O  O122  1  0.757173  0.241173  0.594785  1
  O  O123  1  0.868942  0.536548  0.550264  1
  O  O124  1  0.665537  0.129718  0.550265  1
  O  O125  1  0.666151  0.537057  0.550261  1
  O  O126  1  0.868737  0.332619  0.550266  1
  Si  Si127  1  0.153802  0.666114  0.243846  1
  Si  Si128  1  0.153874  0.488265  0.169407  1
  Si  Si129  1  0.332267  0.844956  0.169406  1
  Si  Si130  1  0.332777  0.488713  0.169407  1
  Si  Si131  1  0.153788  0.666123  0.169409  1
  Si  Si132  1  0.153890  0.488258  0.243845  1
  Si  Si133  1  0.332281  0.844946  0.243849  1
  Si  Si134  1  0.332792  0.488703  0.243842  1
  Si  Si135  1  0.428589  0.392864  0.452173  1
  Si  Si136  1  0.427957  0.036784  0.452159  1
  Si  Si137  1  0.035591  0.429072  0.304687  1
  Si  Si138  1  0.391111  0.963076  0.304731  1
  Si  Si139  1  0.391795  0.429705  0.304746  1
  Si  Si140  1  0.035646  0.606962  0.304717  1
  Si  Si141  1  0.368958  0.273777  0.390824  1
  Si  Si142  1  0.368319  0.096256  0.390810  1
  Si  Si143  1  0.095190  0.369740  0.366083  1
  Si  Si144  1  0.272004  0.903612  0.366085  1
  Si  Si145  1  0.272675  0.370171  0.366098  1
  Si  Si146  1  0.095104  0.726052  0.366065  1
  Si  Si147  1  0.487453  0.332933  0.329720  1
  Si  Si148  1  0.486984  0.155462  0.329739  1
  Si  Si149  1  0.154436  0.488267  0.427175  1
  Si  Si150  1  0.331468  0.844403  0.427151  1
  Si  Si151  1  0.331895  0.488608  0.427211  1
  Si  Si152  1  0.154449  0.666895  0.427163  1
  Si  Si153  1  0.487580  0.333727  0.587480  1
  Si  Si154  1  0.487235  0.154923  0.587482  1
  Si  Si155  1  0.487596  0.333719  0.513042  1
  Si  Si156  1  0.487250  0.154915  0.513041  1
  Si  Si157  1  0.510344  0.845191  0.243843  1
  Si  Si158  1  0.510628  0.666697  0.243844  1
  Si  Si159  1  0.510613  0.666707  0.169404  1
  Si  Si160  1  0.510331  0.845202  0.169409  1
  Si  Si161  1  0.510100  0.844327  0.427148  1
  Si  Si162  1  0.961996  0.570123  0.452137  1
  Si  Si163  1  0.605832  0.036741  0.452120  1
  Si  Si164  1  0.606440  0.570785  0.452203  1
  Si  Si165  1  0.961978  0.392255  0.452155  1
  Si  Si166  1  0.569660  0.607605  0.304730  1
  Si  Si167  1  0.569012  0.963086  0.304772  1
  Si  Si168  1  0.902397  0.629653  0.390791  1
  Si  Si169  1  0.725079  0.096232  0.390805  1
  Si  Si170  1  0.725362  0.630119  0.390801  1
  Si  Si171  1  0.902441  0.273331  0.390761  1
  Si  Si172  1  0.629043  0.726523  0.366126  1
  Si  Si173  1  0.628763  0.903585  0.366083  1
  Si  Si174  1  0.843182  0.511216  0.329679  1
  Si  Si175  1  0.665671  0.155496  0.329744  1
  Si  Si176  1  0.666081  0.511592  0.329708  1
  Si  Si177  1  0.843128  0.332566  0.329665  1
  Si  Si178  1  0.510502  0.667291  0.427227  1
  Si  Si179  1  0.843841  0.333180  0.587484  1
  Si  Si180  1  0.844004  0.511141  0.513046  1
  Si  Si181  1  0.665059  0.154651  0.513046  1
  Si  Si182  1  0.665556  0.511602  0.513042  1
  Si  Si183  1  0.843857  0.333174  0.513045  1
  Si  Si184  1  0.843987  0.511147  0.587480  1
  Si  Si185  1  0.665043  0.154657  0.587482  1
  Si  Si186  1  0.665540  0.511611  0.587482  1
  H  H187  1  0.077325  0.434380  0.121599  1
  H  H188  1  0.354786  0.921418  0.121582  1
  H  H189  1  0.355503  0.434963  0.121572  1
  H  H190  1  0.077241  0.643361  0.121593  1
  H  H191  1  0.433795  0.356484  0.635294  1
  H  H192  1  0.433295  0.078464  0.635309  1
  H  H193  1  0.564431  0.644063  0.121562  1
  H  H194  1  0.563937  0.921669  0.121555  1
  H  H195  1  0.920475  0.564900  0.635315  1
  H  H196  1  0.642186  0.078195  0.635336  1
  H  H197  1  0.642891  0.565504  0.635286  1
  H  H198  1  0.920312  0.355839  0.635326  1
