# generated using pymatgen
data_Si21H2O43
_symmetry_space_group_name_H-M   'P 1'
_cell_length_a   7.50249860
_cell_length_b   18.12388572
_cell_length_c   57.31588499
_cell_angle_alpha   90.00000000
_cell_angle_beta   90.00000000
_cell_angle_gamma   90.00000000
_symmetry_Int_Tables_number   1
_chemical_formula_structural   Si21H2O43
_chemical_formula_sum   'Si84 H8 O172'
_cell_volume   7793.49463365
_cell_formula_units_Z   4
loop_
 _symmetry_equiv_pos_site_id
 _symmetry_equiv_pos_as_xyz
  1  'x, y, z'
loop_
 _atom_site_type_symbol
 _atom_site_label
 _atom_site_symmetry_multiplicity
 _atom_site_fract_x
 _atom_site_fract_y
 _atom_site_fract_z
 _atom_site_occupancy
  O  O1  1  0.580780  0.151808  0.395698  1
  O  O2  1  0.919277  0.151807  0.395698  1
  O  O3  1  0.580777  0.348054  0.395692  1
  O  O4  1  0.919297  0.348051  0.395687  1
  O  O5  1  0.250030  0.884875  0.391940  1
  O  O6  1  0.250047  0.615036  0.391918  1
  O  O7  1  0.250077  0.749927  0.407784  1
  O  O8  1  0.419160  0.970381  0.362873  1
  O  O9  1  0.080816  0.970373  0.362876  1
  O  O10  1  0.419234  0.529492  0.362867  1
  O  O11  1  0.080915  0.529472  0.362864  1
  O  O12  1  0.249992  0.860888  0.347090  1
  O  O13  1  0.250025  0.638882  0.347047  1
  O  O14  1  0.420093  0.871472  0.309251  1
  O  O15  1  0.079866  0.871468  0.309251  1
  O  O16  1  0.420173  0.628257  0.309202  1
  O  O17  1  0.079945  0.628239  0.309192  1
  O  O18  1  0.249997  0.749862  0.318211  1
  O  O19  1  0.250026  0.156817  0.380178  1
  O  O20  1  0.250037  0.343042  0.380169  1
  O  O21  1  0.000000  0.105529  0.354724  1
  O  O22  1  0.500261  0.105536  0.354724  1
  O  O23  1  0.000000  0.394321  0.354714  1
  O  O24  1  0.500321  0.394332  0.354720  1
  O  O25  1  0.018213  0.249922  0.366970  1
  O  O26  1  0.481856  0.249929  0.366972  1
  O  O27  1  0.981063  0.000000  0.321569  1
  O  O28  1  0.518909  0.000000  0.321567  1
  O  O29  1  0.981107  0.500678  0.321555  1
  O  O30  1  0.519014  0.500686  0.321562  1
  O  O31  1  0.749991  0.009995  0.353640  1
  O  O32  1  0.750078  0.489880  0.353635  1
  O  O33  1  0.749977  0.916978  0.302110  1
  O  O34  1  0.750055  0.582700  0.302045  1
  O  O35  1  0.992415  0.038809  0.102952  1
  O  O36  1  0.507615  0.038797  0.102952  1
  O  O37  1  0.992663  0.460573  0.102938  1
  O  O38  1  0.507559  0.460635  0.102952  1
  O  O39  1  0.007388  0.960656  0.276265  1
  O  O40  1  0.492550  0.960651  0.276264  1
  O  O41  1  0.007601  0.538805  0.276247  1
  O  O42  1  0.492374  0.538805  0.276261  1
  O  O43  1  0.078518  0.123913  0.136331  1
  O  O44  1  0.421497  0.123887  0.136335  1
  O  O45  1  0.078761  0.375189  0.136250  1
  O  O46  1  0.421471  0.375237  0.136259  1
  O  O47  1  0.921301  0.875275  0.242956  1
  O  O48  1  0.578608  0.875269  0.242953  1
  O  O49  1  0.921491  0.623935  0.242876  1
  O  O50  1  0.578501  0.623929  0.242898  1
  O  O51  1  0.250127  0.249491  0.139431  1
  O  O52  1  0.749971  0.749536  0.239790  1
  O  O53  1  0.249988  0.157396  0.172515  1
  O  O54  1  0.250093  0.342154  0.172393  1
  O  O55  1  0.749986  0.842178  0.206820  1
  O  O56  1  0.749770  0.657420  0.206712  1
  O  O57  1  0.080178  0.122216  0.208295  1
  O  O58  1  0.419704  0.122219  0.208301  1
  O  O59  1  0.079512  0.378183  0.207975  1
  O  O60  1  0.420463  0.378164  0.207993  1
  O  O61  1  0.920402  0.878158  0.171220  1
  O  O62  1  0.579456  0.878159  0.171230  1
  O  O63  1  0.919890  0.622313  0.170956  1
  O  O64  1  0.580321  0.622176  0.170908  1
  O  O65  1  0.249944  0.250207  0.205409  1
  O  O66  1  0.749881  0.750201  0.173812  1
  O  O67  1  0.006004  0.990482  0.145799  1
  O  O68  1  0.493969  0.990463  0.145800  1
  O  O69  1  0.003325  0.508485  0.145817  1
  O  O70  1  0.497061  0.508545  0.145842  1
  O  O71  1  0.996939  0.008578  0.233371  1
  O  O72  1  0.502970  0.008572  0.233372  1
  O  O73  1  0.993982  0.490519  0.233391  1
  O  O74  1  0.506065  0.490494  0.233412  1
  O  O75  1  0.750000  0.073382  0.132576  1
  O  O76  1  0.750111  0.425080  0.132406  1
  O  O77  1  0.249955  0.925107  0.246811  1
  O  O78  1  0.249999  0.573395  0.246630  1
  O  O79  1  0.249940  0.930946  0.170870  1
  O  O80  1  0.250002  0.571227  0.169366  1
  O  O81  1  0.749946  0.071211  0.209833  1
  O  O82  1  0.749996  0.430977  0.208328  1
  O  O83  1  0.995152  0.001185  0.189449  1
  O  O84  1  0.504704  0.001200  0.189449  1
  O  O85  1  0.004781  0.501197  0.189736  1
  O  O86  1  0.495140  0.501188  0.189762  1
  O  O87  1  0.419339  0.848043  0.429840  1
  O  O88  1  0.080818  0.848039  0.429844  1
  O  O89  1  0.419346  0.651794  0.429834  1
  O  O90  1  0.080847  0.651794  0.429837  1
  O  O91  1  0.750037  0.115037  0.433613  1
  O  O92  1  0.750079  0.384891  0.433591  1
  O  O93  1  0.750046  0.249940  0.417750  1
  O  O94  1  0.580875  0.029471  0.462664  1
  O  O95  1  0.919195  0.029469  0.462664  1
  O  O96  1  0.580966  0.470387  0.462662  1
  O  O97  1  0.919317  0.470365  0.462659  1
  O  O98  1  0.750031  0.138867  0.478483  1
  O  O99  1  0.750094  0.360881  0.478440  1
  O  O100  1  0.579923  0.128237  0.516334  1
  O  O101  1  0.920150  0.128239  0.516333  1
  O  O102  1  0.580070  0.371475  0.516286  1
  O  O103  1  0.920305  0.371425  0.516270  1
  O  O104  1  0.750037  0.249848  0.507317  1
  O  O105  1  0.750077  0.843029  0.445362  1
  O  O106  1  0.750101  0.656805  0.445356  1
  O  O107  1  -0.000000  0.894315  0.470815  1
  O  O108  1  0.499791  0.894317  0.470813  1
  O  O109  1  -0.000000  0.605518  0.470812  1
  O  O110  1  0.499862  0.605534  0.470812  1
  O  O111  1  0.981905  0.749913  0.458564  1
  O  O112  1  0.518263  0.749917  0.458560  1
  O  O113  1  0.018990  0.000000  0.503972  1
  O  O114  1  0.481082  0.000000  0.503972  1
  O  O115  1  0.019072  0.499087  0.503966  1
  O  O116  1  0.481228  0.499118  0.503972  1
  O  O117  1  0.250040  0.989868  0.471896  1
  O  O118  1  0.250144  0.509990  0.471897  1
  O  O119  1  0.250033  0.082693  0.523485  1
  O  O120  1  0.250181  0.416957  0.523424  1
  O  O121  1  0.992415  0.038809  0.549277  1
  O  O122  1  0.507615  0.038797  0.549277  1
  O  O123  1  0.992663  0.460573  0.549263  1
  O  O124  1  0.507559  0.460635  0.549277  1
  O  O125  1  0.007388  0.960656  0.722590  1
  O  O126  1  0.492550  0.960651  0.722589  1
  O  O127  1  0.007601  0.538805  0.722572  1
  O  O128  1  0.492374  0.538805  0.722586  1
  O  O129  1  0.078518  0.123913  0.582656  1
  O  O130  1  0.421497  0.123887  0.582660  1
  O  O131  1  0.078761  0.375189  0.582575  1
  O  O132  1  0.421471  0.375237  0.582584  1
  O  O133  1  0.921301  0.875275  0.689281  1
  O  O134  1  0.578608  0.875269  0.689278  1
  O  O135  1  0.921491  0.623935  0.689201  1
  O  O136  1  0.578501  0.623929  0.689223  1
  O  O137  1  0.250127  0.249491  0.585756  1
  O  O138  1  0.749971  0.749536  0.686115  1
  O  O139  1  0.249988  0.157396  0.618840  1
  O  O140  1  0.250093  0.342154  0.618718  1
  O  O141  1  0.749986  0.842178  0.653145  1
  O  O142  1  0.749770  0.657420  0.653037  1
  O  O143  1  0.080178  0.122216  0.654620  1
  O  O144  1  0.419704  0.122219  0.654626  1
  O  O145  1  0.079512  0.378183  0.654300  1
  O  O146  1  0.420463  0.378164  0.654318  1
  O  O147  1  0.920402  0.878158  0.617545  1
  O  O148  1  0.579456  0.878159  0.617555  1
  O  O149  1  0.919890  0.622313  0.617281  1
  O  O150  1  0.580321  0.622176  0.617233  1
  O  O151  1  0.249944  0.250207  0.651734  1
  O  O152  1  0.749881  0.750201  0.620137  1
  O  O153  1  0.006004  0.990482  0.592124  1
  O  O154  1  0.493969  0.990463  0.592125  1
  O  O155  1  0.003325  0.508485  0.592142  1
  O  O156  1  0.497061  0.508545  0.592167  1
  O  O157  1  0.996939  0.008578  0.679696  1
  O  O158  1  0.502970  0.008572  0.679697  1
  O  O159  1  0.993982  0.490519  0.679716  1
  O  O160  1  0.506065  0.490494  0.679737  1
  O  O161  1  0.750000  0.073382  0.578901  1
  O  O162  1  0.750111  0.425080  0.578731  1
  O  O163  1  0.249955  0.925107  0.693136  1
  O  O164  1  0.249999  0.573395  0.692955  1
  O  O165  1  0.249940  0.930946  0.617195  1
  O  O166  1  0.250002  0.571227  0.615691  1
  O  O167  1  0.749946  0.071211  0.656158  1
  O  O168  1  0.749996  0.430977  0.654653  1
  O  O169  1  0.995152  0.001185  0.635774  1
  O  O170  1  0.504704  0.001200  0.635774  1
  O  O171  1  0.004781  0.501197  0.636061  1
  O  O172  1  0.495140  0.501188  0.636087  1
  Si  Si173  1  0.045265  0.165548  0.374017  1
  Si  Si174  1  0.454787  0.165554  0.374018  1
  Si  Si175  1  0.045280  0.334304  0.374007  1
  Si  Si176  1  0.454800  0.334310  0.374010  1
  Si  Si177  1  0.954688  0.022467  0.348145  1
  Si  Si178  1  0.545298  0.022471  0.348143  1
  Si  Si179  1  0.954757  0.477389  0.348135  1
  Si  Si180  1  0.545386  0.477396  0.348141  1
  Si  Si181  1  0.955065  0.937727  0.301962  1
  Si  Si182  1  0.544891  0.937730  0.301960  1
  Si  Si183  1  0.955147  0.561961  0.301917  1
  Si  Si184  1  0.544954  0.561973  0.301926  1
  Si  Si185  1  0.955289  0.056931  0.129507  1
  Si  Si186  1  0.544719  0.056909  0.129508  1
  Si  Si187  1  0.955187  0.442036  0.129459  1
  Si  Si188  1  0.545047  0.442089  0.129472  1
  Si  Si189  1  0.044891  0.942121  0.249744  1
  Si  Si190  1  0.455022  0.942114  0.249744  1
  Si  Si191  1  0.044708  0.556941  0.249692  1
  Si  Si192  1  0.455276  0.556929  0.249706  1
  Si  Si193  1  0.044713  0.947826  0.169082  1
  Si  Si194  1  0.455168  0.947828  0.169084  1
  Si  Si195  1  0.044961  0.552972  0.168626  1
  Si  Si196  1  0.455016  0.552935  0.168644  1
  Si  Si197  1  0.954964  0.052948  0.210562  1
  Si  Si198  1  0.544927  0.052951  0.210565  1
  Si  Si199  1  0.955232  0.447865  0.210108  1
  Si  Si200  1  0.544762  0.447839  0.210128  1
  Si  Si201  1  0.750031  0.165174  0.411459  1
  Si  Si202  1  0.750049  0.334699  0.411448  1
  Si  Si203  1  0.249998  0.920507  0.367140  1
  Si  Si204  1  0.250054  0.579363  0.367123  1
  Si  Si205  1  0.249983  0.835556  0.320752  1
  Si  Si206  1  0.250029  0.664152  0.320705  1
  Si  Si207  1  0.250025  0.164630  0.145454  1
  Si  Si208  1  0.250135  0.334414  0.145360  1
  Si  Si209  1  0.749963  0.834456  0.233854  1
  Si  Si210  1  0.749954  0.664669  0.233771  1
  Si  Si211  1  0.249948  0.165324  0.199603  1
  Si  Si212  1  0.249999  0.335021  0.199491  1
  Si  Si213  1  0.749938  0.835018  0.179723  1
  Si  Si214  1  0.749951  0.665325  0.179625  1
  Si  Si215  1  0.954834  0.834292  0.451524  1
  Si  Si216  1  0.545314  0.834298  0.451521  1
  Si  Si217  1  0.954859  0.665536  0.451519  1
  Si  Si218  1  0.545337  0.665542  0.451515  1
  Si  Si219  1  0.045355  0.977384  0.477393  1
  Si  Si220  1  0.454726  0.977381  0.477392  1
  Si  Si221  1  0.045444  0.522456  0.477391  1
  Si  Si222  1  0.454833  0.522471  0.477396  1
  Si  Si223  1  0.044938  0.061960  0.523610  1
  Si  Si224  1  0.455127  0.061957  0.523609  1
  Si  Si225  1  0.045082  0.437683  0.523568  1
  Si  Si226  1  0.455257  0.437725  0.523578  1
  Si  Si227  1  0.955289  0.056931  0.575832  1
  Si  Si228  1  0.544719  0.056909  0.575833  1
  Si  Si229  1  0.955187  0.442036  0.575784  1
  Si  Si230  1  0.545047  0.442089  0.575797  1
  Si  Si231  1  0.044891  0.942121  0.696069  1
  Si  Si232  1  0.455022  0.942114  0.696069  1
  Si  Si233  1  0.044708  0.556941  0.696017  1
  Si  Si234  1  0.455276  0.556929  0.696031  1
  Si  Si235  1  0.044713  0.947826  0.615407  1
  Si  Si236  1  0.455168  0.947828  0.615409  1
  Si  Si237  1  0.044961  0.552972  0.614951  1
  Si  Si238  1  0.455016  0.552935  0.614969  1
  Si  Si239  1  0.954964  0.052948  0.656887  1
  Si  Si240  1  0.544927  0.052951  0.656890  1
  Si  Si241  1  0.955232  0.447865  0.656433  1
  Si  Si242  1  0.544762  0.447839  0.656453  1
  Si  Si243  1  0.250068  0.834687  0.414083  1
  Si  Si244  1  0.250085  0.665162  0.414075  1
  Si  Si245  1  0.750036  0.079351  0.458406  1
  Si  Si246  1  0.750117  0.420511  0.458392  1
  Si  Si247  1  0.750033  0.164139  0.504825  1
  Si  Si248  1  0.750123  0.335542  0.504776  1
  Si  Si249  1  0.250025  0.164630  0.591779  1
  Si  Si250  1  0.250135  0.334414  0.591685  1
  Si  Si251  1  0.749963  0.834456  0.680179  1
  Si  Si252  1  0.749954  0.664669  0.680096  1
  Si  Si253  1  0.249948  0.165324  0.645928  1
  Si  Si254  1  0.249999  0.335021  0.645816  1
  Si  Si255  1  0.749938  0.835018  0.626048  1
  Si  Si256  1  0.749951  0.665325  0.625950  1
  H  H257  1  0.992415  0.038809  0.087249  1
  H  H258  1  0.507615  0.038797  0.087249  1
  H  H259  1  0.992663  0.460573  0.087236  1
  H  H260  1  0.507559  0.460635  0.087249  1
  H  H261  1  0.007388  0.960656  0.738292  1
  H  H262  1  0.492550  0.960651  0.738292  1
  H  H263  1  0.007601  0.538805  0.738275  1
  H  H264  1  0.492374  0.538805  0.738289  1
