# generated using pymatgen
data_Si26H2O53
_symmetry_space_group_name_H-M   'P 1'
_cell_length_a   17.29992123
_cell_length_b   17.30415519
_cell_length_c   69.40384277
_cell_angle_alpha   90.00000000
_cell_angle_beta   90.00000000
_cell_angle_gamma   120.00000000
_symmetry_Int_Tables_number   1
_chemical_formula_structural   Si26H2O53
_chemical_formula_sum   'Si156 H12 O318'
_cell_volume   17993.2111317
_cell_formula_units_Z   6
loop_
 _symmetry_equiv_pos_site_id
 _symmetry_equiv_pos_as_xyz
  1  'x, y, z'
loop_
 _atom_site_type_symbol
 _atom_site_label
 _atom_site_symmetry_multiplicity
 _atom_site_fract_x
 _atom_site_fract_y
 _atom_site_fract_z
 _atom_site_occupancy
  O  O1  1  0.077325  0.434380  0.085036  1
  O  O2  1  0.354786  0.921418  0.085026  1
  O  O3  1  0.355503  0.434963  0.085020  1
  O  O4  1  0.077241  0.643361  0.085033  1
  O  O5  1  0.176850  0.588710  0.098917  1
  O  O6  1  0.410135  0.589228  0.098915  1
  O  O7  1  0.409795  0.822029  0.098920  1
  O  O8  1  0.176866  0.588702  0.146006  1
  O  O9  1  0.410151  0.589217  0.146007  1
  O  O10  1  0.409808  0.822018  0.146003  1
  O  O11  1  0.240611  0.483046  0.096071  1
  O  O12  1  0.240335  0.758218  0.096068  1
  O  O13  1  0.240627  0.483037  0.148851  1
  O  O14  1  0.240350  0.758208  0.148857  1
  O  O15  1  0.129020  0.462809  0.122461  1
  O  O16  1  0.331625  0.869772  0.122463  1
  O  O17  1  0.332314  0.463308  0.122460  1
  O  O18  1  0.128895  0.666624  0.122463  1
  O  O19  1  0.049223  0.524808  0.184909  1
  O  O20  1  0.473917  0.525461  0.184927  1
  O  O21  1  0.473211  0.949403  0.184948  1
  O  O22  1  0.433818  0.356472  0.288692  1
  O  O23  1  0.433321  0.078452  0.288688  1
  O  O24  1  0.077349  0.434367  0.159887  1
  O  O25  1  0.354811  0.921405  0.159900  1
  O  O26  1  0.355525  0.434948  0.159899  1
  O  O27  1  0.077261  0.643347  0.159894  1
  O  O28  1  0.066637  0.635463  0.265700  1
  O  O29  1  0.363280  0.432193  0.265728  1
  O  O30  1  0.362761  0.932124  0.265717  1
  O  O31  1  0.066661  0.431741  0.265713  1
  O  O32  1  0.430569  0.067734  0.182871  1
  O  O33  1  0.431076  0.364363  0.182885  1
  O  O34  1  0.403277  0.319671  0.251894  1
  O  O35  1  0.402530  0.084602  0.251893  1
  O  O36  1  0.083509  0.403860  0.196689  1
  O  O37  1  0.317857  0.915252  0.196695  1
  O  O38  1  0.318568  0.404457  0.196708  1
  O  O39  1  0.083543  0.680165  0.196693  1
  O  O40  1  0.295529  0.296706  0.224308  1
  O  O41  1  0.294728  0.000000  0.224296  1
  O  O42  1  0.446812  0.320028  0.216360  1
  O  O43  1  0.446180  0.127692  0.216357  1
  O  O44  1  0.126668  0.447584  0.232234  1
  O  O45  1  0.318432  0.872177  0.232231  1
  O  O46  1  0.318981  0.448004  0.232248  1
  O  O47  1  0.126705  0.679799  0.232225  1
  O  O48  1  0.340924  0.171237  0.232087  1
  O  O49  1  0.170135  0.342267  0.216507  1
  O  O50  1  0.169616  0.828606  0.216501  1
  O  O51  1  0.480042  0.240618  0.189654  1
  O  O52  1  0.239567  0.481238  0.258955  1
  O  O53  1  0.239358  0.759224  0.258933  1
  O  O54  1  0.175617  0.588168  0.252948  1
  O  O55  1  0.410598  0.588524  0.252986  1
  O  O56  1  0.410195  0.823195  0.252912  1
  O  O57  1  0.433795  0.356484  0.363554  1
  O  O58  1  0.433295  0.078464  0.363562  1
  O  O59  1  0.066603  0.635479  0.386554  1
  O  O60  1  0.363247  0.432206  0.386518  1
  O  O61  1  0.362722  0.932140  0.386535  1
  O  O62  1  0.066630  0.431760  0.386541  1
  O  O63  1  0.403244  0.319686  0.400352  1
  O  O64  1  0.402492  0.084617  0.400357  1
  O  O65  1  0.126638  0.447602  0.420019  1
  O  O66  1  0.318399  0.872197  0.420022  1
  O  O67  1  0.318948  0.448016  0.419999  1
  O  O68  1  0.126671  0.679817  0.420030  1
  O  O69  1  0.340891  0.171254  0.420161  1
  O  O70  1  0.239533  0.481256  0.393294  1
  O  O71  1  0.239319  0.759243  0.393321  1
  O  O72  1  0.175586  0.588188  0.399306  1
  O  O73  1  0.410566  0.588536  0.399261  1
  O  O74  1  0.410154  0.823210  0.399340  1
  O  O75  1  0.482056  0.241640  0.299731  1
  O  O76  1  0.482039  0.241648  0.352518  1
  O  O77  1  0.462180  0.333200  0.326124  1
  O  O78  1  0.461769  0.130099  0.326125  1
  O  O79  1  0.295496  0.296722  0.427939  1
  O  O80  1  0.564431  0.644063  0.085014  1
  O  O81  1  0.563937  0.921669  0.085010  1
  O  O82  1  0.515947  0.758699  0.096076  1
  O  O83  1  0.515961  0.758688  0.148846  1
  O  O84  1  0.536069  0.667278  0.122460  1
  O  O85  1  0.535764  0.870132  0.122461  1
  O  O86  1  0.948360  0.474374  0.263658  1
  O  O87  1  0.524326  0.475042  0.263678  1
  O  O88  1  0.523728  0.050440  0.263640  1
  O  O89  1  0.920500  0.564889  0.288687  1
  O  O90  1  0.642212  0.078186  0.288675  1
  O  O91  1  0.642915  0.565491  0.288698  1
  O  O92  1  0.920337  0.355827  0.288682  1
  O  O93  1  0.564453  0.644049  0.159904  1
  O  O94  1  0.563959  0.921652  0.159913  1
  O  O95  1  0.566438  0.932122  0.265688  1
  O  O96  1  0.567015  0.636031  0.265746  1
  O  O97  1  0.930905  0.363827  0.182841  1
  O  O98  1  0.634854  0.568129  0.182871  1
  O  O99  1  0.634233  0.067708  0.182901  1
  O  O100  1  0.930994  0.567622  0.182860  1
  O  O101  1  0.914008  0.595362  0.251877  1
  O  O102  1  0.679154  0.084631  0.251882  1
  O  O103  1  0.679567  0.596004  0.251896  1
  O  O104  1  0.914081  0.319151  0.251866  1
  O  O105  1  0.594871  0.680696  0.196719  1
  O  O106  1  0.594442  0.915202  0.196706  1
  O  O107  1  0.998735  0.703117  0.224280  1
  O  O108  1  0.677278  0.000000  0.224293  1
  O  O109  1  0.702592  0.703695  0.224301  1
  O  O110  1  0.870875  0.551821  0.216340  1
  O  O111  1  0.678733  0.127785  0.216362  1
  O  O112  1  0.678999  0.552274  0.216350  1
  O  O113  1  0.870942  0.319666  0.216321  1
  O  O114  1  0.551209  0.680192  0.232267  1
  O  O115  1  0.550868  0.872034  0.232225  1
  O  O116  1  0.827780  0.657574  0.232078  1
  O  O117  1  0.827589  0.170899  0.232067  1
  O  O118  1  0.656618  0.828942  0.216520  1
  O  O119  1  0.758236  0.518602  0.189630  1
  O  O120  1  0.757945  0.240418  0.189634  1
  O  O121  1  0.517459  0.759423  0.258953  1
  O  O122  1  0.821983  0.411314  0.195602  1
  O  O123  1  0.587359  0.411678  0.195636  1
  O  O124  1  0.586916  0.176649  0.195677  1
  O  O125  1  0.998828  0.296165  0.224284  1
  O  O126  1  0.948326  0.474391  0.388597  1
  O  O127  1  0.524294  0.475058  0.388568  1
  O  O128  1  0.523691  0.050454  0.388612  1
  O  O129  1  0.920475  0.564900  0.363566  1
  O  O130  1  0.642186  0.078195  0.363578  1
  O  O131  1  0.642891  0.565504  0.363549  1
  O  O132  1  0.920312  0.355839  0.363572  1
  O  O133  1  0.566399  0.932136  0.386565  1
  O  O134  1  0.566983  0.636047  0.386500  1
  O  O135  1  0.913977  0.595384  0.400376  1
  O  O136  1  0.679113  0.084649  0.400371  1
  O  O137  1  0.679536  0.596022  0.400350  1
  O  O138  1  0.914047  0.319169  0.400388  1
  O  O139  1  0.551177  0.680210  0.419979  1
  O  O140  1  0.550825  0.872045  0.420026  1
  O  O141  1  0.827748  0.657596  0.420171  1
  O  O142  1  0.827550  0.170916  0.420187  1
  O  O143  1  0.517419  0.759437  0.393295  1
  O  O144  1  0.820856  0.410637  0.302581  1
  O  O145  1  0.588085  0.411148  0.302579  1
  O  O146  1  0.587709  0.177833  0.302584  1
  O  O147  1  0.820837  0.410642  0.349670  1
  O  O148  1  0.588068  0.411158  0.349671  1
  O  O149  1  0.587693  0.177841  0.349667  1
  O  O150  1  0.757510  0.516815  0.299736  1
  O  O151  1  0.757190  0.241167  0.299741  1
  O  O152  1  0.757492  0.516823  0.352515  1
  O  O153  1  0.757173  0.241173  0.352512  1
  O  O154  1  0.868942  0.536548  0.326126  1
  O  O155  1  0.665537  0.129718  0.326127  1
  O  O156  1  0.666151  0.537057  0.326124  1
  O  O157  1  0.868737  0.332619  0.326127  1
  O  O158  1  0.702559  0.703715  0.427945  1
  O  O159  1  0.049193  0.524828  0.467344  1
  O  O160  1  0.473886  0.525480  0.467319  1
  O  O161  1  0.473178  0.949423  0.467305  1
  O  O162  1  0.077325  0.434380  0.492364  1
  O  O163  1  0.354786  0.921418  0.492354  1
  O  O164  1  0.355503  0.434963  0.492348  1
  O  O165  1  0.077241  0.643361  0.492361  1
  O  O166  1  0.430531  0.067751  0.469381  1
  O  O167  1  0.431048  0.364383  0.469361  1
  O  O168  1  0.083478  0.403879  0.455563  1
  O  O169  1  0.317822  0.915271  0.455558  1
  O  O170  1  0.318537  0.404474  0.455538  1
  O  O171  1  0.083511  0.680188  0.455562  1
  O  O172  1  0.446782  0.320046  0.435886  1
  O  O173  1  0.446143  0.127705  0.435894  1
  O  O174  1  0.170102  0.342283  0.435742  1
  O  O175  1  0.169584  0.828626  0.435753  1
  O  O176  1  0.480005  0.240636  0.462594  1
  O  O177  1  0.176850  0.588710  0.506245  1
  O  O178  1  0.410135  0.589228  0.506243  1
  O  O179  1  0.409795  0.822029  0.506248  1
  O  O180  1  0.176866  0.588702  0.553334  1
  O  O181  1  0.410151  0.589217  0.553335  1
  O  O182  1  0.409808  0.822018  0.553331  1
  O  O183  1  0.240611  0.483046  0.503399  1
  O  O184  1  0.240335  0.758218  0.503396  1
  O  O185  1  0.240627  0.483037  0.556179  1
  O  O186  1  0.240350  0.758208  0.556185  1
  O  O187  1  0.129020  0.462809  0.529789  1
  O  O188  1  0.331625  0.869772  0.529791  1
  O  O189  1  0.332314  0.463308  0.529788  1
  O  O190  1  0.128895  0.666624  0.529791  1
  O  O191  1  0.294693  0.000000  0.427957  1
  O  O192  1  0.049223  0.524808  0.592237  1
  O  O193  1  0.473917  0.525461  0.592255  1
  O  O194  1  0.473211  0.949403  0.592276  1
  O  O195  1  0.433818  0.356472  0.696020  1
  O  O196  1  0.433321  0.078452  0.696016  1
  O  O197  1  0.077349  0.434367  0.567215  1
  O  O198  1  0.354811  0.921405  0.567228  1
  O  O199  1  0.355525  0.434948  0.567227  1
  O  O200  1  0.077261  0.643347  0.567222  1
  O  O201  1  0.066637  0.635463  0.673028  1
  O  O202  1  0.363280  0.432193  0.673056  1
  O  O203  1  0.362761  0.932124  0.673045  1
  O  O204  1  0.066661  0.431741  0.673041  1
  O  O205  1  0.430569  0.067734  0.590199  1
  O  O206  1  0.431076  0.364363  0.590213  1
  O  O207  1  0.403277  0.319671  0.659222  1
  O  O208  1  0.402530  0.084602  0.659221  1
  O  O209  1  0.083509  0.403860  0.604017  1
  O  O210  1  0.317857  0.915252  0.604023  1
  O  O211  1  0.318568  0.404457  0.604036  1
  O  O212  1  0.083543  0.680165  0.604021  1
  O  O213  1  0.295529  0.296706  0.631636  1
  O  O214  1  0.294728  0.000000  0.631624  1
  O  O215  1  0.446812  0.320028  0.623688  1
  O  O216  1  0.446180  0.127692  0.623685  1
  O  O217  1  0.126668  0.447584  0.639562  1
  O  O218  1  0.318432  0.872177  0.639559  1
  O  O219  1  0.318981  0.448004  0.639576  1
  O  O220  1  0.126705  0.679799  0.639553  1
  O  O221  1  0.340924  0.171237  0.639415  1
  O  O222  1  0.170135  0.342267  0.623835  1
  O  O223  1  0.169616  0.828606  0.623829  1
  O  O224  1  0.480042  0.240618  0.596982  1
  O  O225  1  0.239567  0.481238  0.666283  1
  O  O226  1  0.239358  0.759224  0.666261  1
  O  O227  1  0.175617  0.588168  0.660276  1
  O  O228  1  0.410598  0.588524  0.660314  1
  O  O229  1  0.410195  0.823195  0.660240  1
  O  O230  1  0.433795  0.356484  0.770882  1
  O  O231  1  0.433295  0.078464  0.770890  1
  O  O232  1  0.482056  0.241640  0.707059  1
  O  O233  1  0.482039  0.241648  0.759846  1
  O  O234  1  0.462180  0.333200  0.733452  1
  O  O235  1  0.461769  0.130099  0.733453  1
  O  O236  1  0.564431  0.644063  0.492342  1
  O  O237  1  0.563937  0.921669  0.492338  1
  O  O238  1  0.930874  0.363848  0.469412  1
  O  O239  1  0.634823  0.568146  0.469375  1
  O  O240  1  0.634199  0.067728  0.469352  1
  O  O241  1  0.930965  0.567645  0.469395  1
  O  O242  1  0.594839  0.680715  0.455527  1
  O  O243  1  0.594402  0.915219  0.455545  1
  O  O244  1  0.870849  0.551847  0.435913  1
  O  O245  1  0.678697  0.127807  0.435891  1
  O  O246  1  0.678969  0.552293  0.435897  1
  O  O247  1  0.870907  0.319684  0.435934  1
  O  O248  1  0.656581  0.828961  0.435729  1
  O  O249  1  0.758205  0.518625  0.462619  1
  O  O250  1  0.757909  0.240442  0.462619  1
  O  O251  1  0.821955  0.411339  0.456651  1
  O  O252  1  0.587330  0.411695  0.456610  1
  O  O253  1  0.586877  0.176667  0.456576  1
  O  O254  1  0.515947  0.758699  0.503404  1
  O  O255  1  0.515961  0.758688  0.556174  1
  O  O256  1  0.536069  0.667278  0.529788  1
  O  O257  1  0.535764  0.870132  0.529789  1
  O  O258  1  0.998793  0.296182  0.427970  1
  O  O259  1  0.677236  0.000000  0.427960  1
  O  O260  1  0.998704  0.703140  0.427974  1
  O  O261  1  0.948360  0.474374  0.670986  1
  O  O262  1  0.524326  0.475042  0.671006  1
  O  O263  1  0.523728  0.050440  0.670968  1
  O  O264  1  0.920500  0.564889  0.696015  1
  O  O265  1  0.642212  0.078186  0.696003  1
  O  O266  1  0.642915  0.565491  0.696026  1
  O  O267  1  0.920337  0.355827  0.696010  1
  O  O268  1  0.564453  0.644049  0.567232  1
  O  O269  1  0.563959  0.921652  0.567241  1
  O  O270  1  0.566438  0.932122  0.673016  1
  O  O271  1  0.567015  0.636031  0.673074  1
  O  O272  1  0.930905  0.363827  0.590169  1
  O  O273  1  0.634854  0.568129  0.590199  1
  O  O274  1  0.634233  0.067708  0.590229  1
  O  O275  1  0.930994  0.567622  0.590188  1
  O  O276  1  0.914008  0.595362  0.659205  1
  O  O277  1  0.679154  0.084631  0.659210  1
  O  O278  1  0.679567  0.596004  0.659224  1
  O  O279  1  0.914081  0.319151  0.659194  1
  O  O280  1  0.594871  0.680696  0.604047  1
  O  O281  1  0.594442  0.915202  0.604034  1
  O  O282  1  0.998735  0.703117  0.631608  1
  O  O283  1  0.677278  -0.000000  0.631621  1
  O  O284  1  0.702592  0.703695  0.631629  1
  O  O285  1  0.870875  0.551821  0.623668  1
  O  O286  1  0.678733  0.127785  0.623690  1
  O  O287  1  0.678999  0.552274  0.623678  1
  O  O288  1  0.870942  0.319666  0.623649  1
  O  O289  1  0.551209  0.680192  0.639595  1
  O  O290  1  0.550868  0.872034  0.639553  1
  O  O291  1  0.827780  0.657574  0.639406  1
  O  O292  1  0.827589  0.170899  0.639395  1
  O  O293  1  0.656618  0.828942  0.623848  1
  O  O294  1  0.758236  0.518602  0.596958  1
  O  O295  1  0.757945  0.240418  0.596962  1
  O  O296  1  0.517459  0.759423  0.666281  1
  O  O297  1  0.821983  0.411314  0.602930  1
  O  O298  1  0.587359  0.411678  0.602964  1
  O  O299  1  0.586916  0.176649  0.603005  1
  O  O300  1  0.998828  0.296165  0.631612  1
  O  O301  1  0.920475  0.564900  0.770894  1
  O  O302  1  0.642186  0.078195  0.770906  1
  O  O303  1  0.642891  0.565504  0.770877  1
  O  O304  1  0.920312  0.355839  0.770900  1
  O  O305  1  0.820856  0.410637  0.709909  1
  O  O306  1  0.588085  0.411148  0.709907  1
  O  O307  1  0.587709  0.177833  0.709912  1
  O  O308  1  0.820837  0.410642  0.756998  1
  O  O309  1  0.588068  0.411158  0.756999  1
  O  O310  1  0.587693  0.177841  0.756995  1
  O  O311  1  0.757510  0.516815  0.707064  1
  O  O312  1  0.757190  0.241167  0.707069  1
  O  O313  1  0.757492  0.516823  0.759843  1
  O  O314  1  0.757173  0.241173  0.759840  1
  O  O315  1  0.868942  0.536548  0.733454  1
  O  O316  1  0.665537  0.129718  0.733455  1
  O  O317  1  0.666151  0.537057  0.733452  1
  O  O318  1  0.868737  0.332619  0.733455  1
  Si  Si319  1  0.153802  0.666114  0.144521  1
  Si  Si320  1  0.153874  0.488265  0.100403  1
  Si  Si321  1  0.332267  0.844956  0.100402  1
  Si  Si322  1  0.332777  0.488713  0.100403  1
  Si  Si323  1  0.153788  0.666123  0.100404  1
  Si  Si324  1  0.153890  0.488258  0.144520  1
  Si  Si325  1  0.332281  0.844946  0.144522  1
  Si  Si326  1  0.332792  0.488703  0.144518  1
  Si  Si327  1  0.428589  0.392864  0.267990  1
  Si  Si328  1  0.427957  0.036784  0.267982  1
  Si  Si329  1  0.035591  0.429072  0.180579  1
  Si  Si330  1  0.391111  0.963076  0.180606  1
  Si  Si331  1  0.391795  0.429705  0.180614  1
  Si  Si332  1  0.035646  0.606962  0.180597  1
  Si  Si333  1  0.368958  0.273777  0.231630  1
  Si  Si334  1  0.368319  0.096256  0.231622  1
  Si  Si335  1  0.095190  0.369740  0.216967  1
  Si  Si336  1  0.272004  0.903612  0.216968  1
  Si  Si337  1  0.272675  0.370171  0.216976  1
  Si  Si338  1  0.095104  0.726052  0.216957  1
  Si  Si339  1  0.487453  0.332933  0.195416  1
  Si  Si340  1  0.486984  0.155462  0.195427  1
  Si  Si341  1  0.154436  0.488267  0.253175  1
  Si  Si342  1  0.331468  0.844403  0.253160  1
  Si  Si343  1  0.331895  0.488608  0.253196  1
  Si  Si344  1  0.154449  0.666895  0.253168  1
  Si  Si345  1  0.487580  0.333727  0.348183  1
  Si  Si346  1  0.487235  0.154923  0.348184  1
  Si  Si347  1  0.428559  0.392879  0.384255  1
  Si  Si348  1  0.427921  0.036799  0.384268  1
  Si  Si349  1  0.368927  0.273795  0.420616  1
  Si  Si350  1  0.368283  0.096272  0.420628  1
  Si  Si351  1  0.154407  0.488288  0.399078  1
  Si  Si352  1  0.331430  0.844422  0.399092  1
  Si  Si353  1  0.331863  0.488621  0.399050  1
  Si  Si354  1  0.154414  0.666913  0.399087  1
  Si  Si355  1  0.487596  0.333719  0.304066  1
  Si  Si356  1  0.487250  0.154915  0.304065  1
  Si  Si357  1  0.510344  0.845191  0.144519  1
  Si  Si358  1  0.510628  0.666697  0.144520  1
  Si  Si359  1  0.510613  0.666707  0.100401  1
  Si  Si360  1  0.510331  0.845202  0.100404  1
  Si  Si361  1  0.510100  0.844327  0.253158  1
  Si  Si362  1  0.961996  0.570123  0.267969  1
  Si  Si363  1  0.605832  0.036741  0.267959  1
  Si  Si364  1  0.606440  0.570785  0.268008  1
  Si  Si365  1  0.961978  0.392255  0.267979  1
  Si  Si366  1  0.569660  0.607605  0.180605  1
  Si  Si367  1  0.569012  0.963086  0.180630  1
  Si  Si368  1  0.902397  0.629653  0.231611  1
  Si  Si369  1  0.725079  0.096232  0.231619  1
  Si  Si370  1  0.725362  0.630119  0.231617  1
  Si  Si371  1  0.902441  0.273331  0.231593  1
  Si  Si372  1  0.629043  0.726523  0.216993  1
  Si  Si373  1  0.628763  0.903585  0.216967  1
  Si  Si374  1  0.843182  0.511216  0.195392  1
  Si  Si375  1  0.665671  0.155496  0.195430  1
  Si  Si376  1  0.666081  0.511592  0.195409  1
  Si  Si377  1  0.843128  0.332566  0.195383  1
  Si  Si378  1  0.510502  0.667291  0.253205  1
  Si  Si379  1  0.843841  0.333180  0.348186  1
  Si  Si380  1  0.961964  0.570139  0.384284  1
  Si  Si381  1  0.605795  0.036755  0.384294  1
  Si  Si382  1  0.606408  0.570801  0.384239  1
  Si  Si383  1  0.961947  0.392272  0.384275  1
  Si  Si384  1  0.902368  0.629677  0.420641  1
  Si  Si385  1  0.725040  0.096252  0.420635  1
  Si  Si386  1  0.725330  0.630139  0.420630  1
  Si  Si387  1  0.902405  0.273348  0.420661  1
  Si  Si388  1  0.510468  0.667305  0.399041  1
  Si  Si389  1  0.510058  0.844338  0.399093  1
  Si  Si390  1  0.844004  0.511141  0.304068  1
  Si  Si391  1  0.665059  0.154651  0.304068  1
  Si  Si392  1  0.665556  0.511602  0.304065  1
  Si  Si393  1  0.843857  0.333174  0.304067  1
  Si  Si394  1  0.843987  0.511147  0.348183  1
  Si  Si395  1  0.665043  0.154657  0.348184  1
  Si  Si396  1  0.665540  0.511611  0.348184  1
  Si  Si397  1  0.153802  0.666114  0.551849  1
  Si  Si398  1  0.035561  0.429092  0.471673  1
  Si  Si399  1  0.391077  0.963094  0.471648  1
  Si  Si400  1  0.391765  0.429723  0.471631  1
  Si  Si401  1  0.035618  0.606983  0.471657  1
  Si  Si402  1  0.095157  0.369758  0.435285  1
  Si  Si403  1  0.271972  0.903632  0.435285  1
  Si  Si404  1  0.272640  0.370185  0.435270  1
  Si  Si405  1  0.095071  0.726073  0.435298  1
  Si  Si406  1  0.487423  0.332951  0.456830  1
  Si  Si407  1  0.486944  0.155476  0.456824  1
  Si  Si408  1  0.153874  0.488265  0.507731  1
  Si  Si409  1  0.332267  0.844956  0.507730  1
  Si  Si410  1  0.332777  0.488713  0.507731  1
  Si  Si411  1  0.153788  0.666123  0.507732  1
  Si  Si412  1  0.153890  0.488258  0.551848  1
  Si  Si413  1  0.332281  0.844946  0.551850  1
  Si  Si414  1  0.332792  0.488703  0.551846  1
  Si  Si415  1  0.428589  0.392864  0.675318  1
  Si  Si416  1  0.427957  0.036784  0.675310  1
  Si  Si417  1  0.035591  0.429072  0.587907  1
  Si  Si418  1  0.391111  0.963076  0.587934  1
  Si  Si419  1  0.391795  0.429705  0.587942  1
  Si  Si420  1  0.035646  0.606962  0.587925  1
  Si  Si421  1  0.368958  0.273777  0.638958  1
  Si  Si422  1  0.368319  0.096256  0.638950  1
  Si  Si423  1  0.095190  0.369740  0.624295  1
  Si  Si424  1  0.272004  0.903612  0.624296  1
  Si  Si425  1  0.272675  0.370171  0.624304  1
  Si  Si426  1  0.095104  0.726052  0.624285  1
  Si  Si427  1  0.487453  0.332933  0.602744  1
  Si  Si428  1  0.486984  0.155462  0.602755  1
  Si  Si429  1  0.154436  0.488267  0.660503  1
  Si  Si430  1  0.331468  0.844403  0.660488  1
  Si  Si431  1  0.331895  0.488608  0.660524  1
  Si  Si432  1  0.154449  0.666895  0.660496  1
  Si  Si433  1  0.487580  0.333727  0.755511  1
  Si  Si434  1  0.487235  0.154923  0.755512  1
  Si  Si435  1  0.487596  0.333719  0.711394  1
  Si  Si436  1  0.487250  0.154915  0.711393  1
  Si  Si437  1  0.510344  0.845191  0.551847  1
  Si  Si438  1  0.510628  0.666697  0.551848  1
  Si  Si439  1  0.569630  0.607623  0.471641  1
  Si  Si440  1  0.568979  0.963105  0.471622  1
  Si  Si441  1  0.629010  0.726543  0.435254  1
  Si  Si442  1  0.628722  0.903600  0.435284  1
  Si  Si443  1  0.843156  0.511242  0.456861  1
  Si  Si444  1  0.665636  0.155518  0.456823  1
  Si  Si445  1  0.666051  0.511610  0.456838  1
  Si  Si446  1  0.843095  0.332588  0.456871  1
  Si  Si447  1  0.510613  0.666707  0.507729  1
  Si  Si448  1  0.510331  0.845202  0.507732  1
  Si  Si449  1  0.510100  0.844327  0.660486  1
  Si  Si450  1  0.961996  0.570123  0.675297  1
  Si  Si451  1  0.605832  0.036741  0.675287  1
  Si  Si452  1  0.606440  0.570785  0.675336  1
  Si  Si453  1  0.961978  0.392255  0.675307  1
  Si  Si454  1  0.569660  0.607605  0.587933  1
  Si  Si455  1  0.569012  0.963086  0.587958  1
  Si  Si456  1  0.902397  0.629653  0.638939  1
  Si  Si457  1  0.725079  0.096232  0.638947  1
  Si  Si458  1  0.725362  0.630119  0.638945  1
  Si  Si459  1  0.902441  0.273331  0.638921  1
  Si  Si460  1  0.629043  0.726523  0.624321  1
  Si  Si461  1  0.628763  0.903585  0.624295  1
  Si  Si462  1  0.843182  0.511216  0.602720  1
  Si  Si463  1  0.665671  0.155496  0.602758  1
  Si  Si464  1  0.666081  0.511592  0.602737  1
  Si  Si465  1  0.843128  0.332566  0.602711  1
  Si  Si466  1  0.510502  0.667291  0.660533  1
  Si  Si467  1  0.843841  0.333180  0.755514  1
  Si  Si468  1  0.844004  0.511141  0.711396  1
  Si  Si469  1  0.665059  0.154651  0.711396  1
  Si  Si470  1  0.665556  0.511602  0.711393  1
  Si  Si471  1  0.843857  0.333174  0.711395  1
  Si  Si472  1  0.843987  0.511147  0.755511  1
  Si  Si473  1  0.665043  0.154657  0.755512  1
  Si  Si474  1  0.665540  0.511611  0.755512  1
  H  H475  1  0.077325  0.434380  0.072069  1
  H  H476  1  0.354786  0.921418  0.072058  1
  H  H477  1  0.355503  0.434963  0.072052  1
  H  H478  1  0.077241  0.643361  0.072065  1
  H  H479  1  0.564431  0.644063  0.072046  1
  H  H480  1  0.563937  0.921669  0.072042  1
  H  H481  1  0.433795  0.356484  0.783849  1
  H  H482  1  0.433295  0.078464  0.783858  1
  H  H483  1  0.920475  0.564900  0.783861  1
  H  H484  1  0.642186  0.078195  0.783874  1
  H  H485  1  0.642891  0.565504  0.783844  1
  H  H486  1  0.920312  0.355839  0.783868  1
