# generated using pymatgen
data_Si16H2O33
_symmetry_space_group_name_H-M   'P 1'
_cell_length_a   20.93009487
_cell_length_b   8.49563914
_cell_length_c   57.10565088
_cell_angle_alpha   90.00000000
_cell_angle_beta   120.00000000
_cell_angle_gamma   90.00000000
_symmetry_Int_Tables_number   1
_chemical_formula_structural   Si16H2O33
_chemical_formula_sum   'Si64 H8 O132'
_cell_volume   8793.80784551
_cell_formula_units_Z   4
loop_
 _symmetry_equiv_pos_site_id
 _symmetry_equiv_pos_as_xyz
  1  'x, y, z'
loop_
 _atom_site_type_symbol
 _atom_site_label
 _atom_site_symmetry_multiplicity
 _atom_site_fract_x
 _atom_site_fract_y
 _atom_site_fract_z
 _atom_site_occupancy
  O  O1  1  0.651204  0.844301  0.188105  1
  O  O2  1  0.273532  0.844312  0.188106  1
  O  O3  1  0.171464  0.040616  0.152767  1
  O  O4  1  0.656850  0.040605  0.152767  1
  O  O5  1  0.550308  0.049809  0.162339  1
  O  O6  1  0.304126  0.049828  0.162339  1
  O  O7  1  0.671973  0.136460  0.201106  1
  O  O8  1  0.288234  0.136475  0.201107  1
  O  O9  1  0.269425  0.172391  0.116863  1
  O  O10  1  0.460931  0.172377  0.116862  1
  O  O11  1  0.410039  0.113031  0.149749  1
  O  O12  1  0.506454  0.326743  0.161466  1
  O  O13  1  0.345597  0.326753  0.161465  1
  O  O14  1  0.346939  0.583729  0.189540  1
  O  O15  1  0.581713  0.583713  0.189540  1
  O  O16  1  0.591691  0.317650  0.210646  1
  O  O17  1  0.394542  0.317663  0.210646  1
  O  O18  1  0.468416  0.466347  0.192538  1
  O  O19  1  0.075049  0.844307  0.481877  1
  O  O20  1  0.651204  0.844301  0.554624  1
  O  O21  1  0.273531  0.844310  0.343453  1
  O  O22  1  0.924806  0.344304  0.315921  1
  O  O23  1  0.348656  0.344312  0.243172  1
  O  O24  1  0.726323  0.344299  0.454342  1
  O  O25  1  0.273532  0.844312  0.554624  1
  O  O26  1  0.075046  0.844302  0.343453  1
  O  O27  1  0.651203  0.844298  0.481877  1
  O  O28  1  0.726321  0.344302  0.243172  1
  O  O29  1  0.924806  0.344307  0.454343  1
  O  O30  1  0.348655  0.344313  0.315921  1
  O  O31  1  0.171464  0.040616  0.519286  1
  O  O32  1  0.656850  0.040605  0.519285  1
  O  O33  1  0.171464  0.040615  0.341382  1
  O  O34  1  0.828388  0.540605  0.278511  1
  O  O35  1  0.343003  0.540616  0.278511  1
  O  O36  1  0.828391  0.540605  0.456414  1
  O  O37  1  0.145349  0.049819  0.470663  1
  O  O38  1  0.550308  0.049809  0.528857  1
  O  O39  1  0.304123  0.049829  0.380433  1
  O  O40  1  0.854503  0.549824  0.327134  1
  O  O41  1  0.449551  0.549834  0.268940  1
  O  O42  1  0.695729  0.549817  0.417363  1
  O  O43  1  0.304126  0.049828  0.528857  1
  O  O44  1  0.145350  0.049825  0.380434  1
  O  O45  1  0.550306  0.049809  0.470662  1
  O  O46  1  0.695728  0.549817  0.268939  1
  O  O47  1  0.854506  0.549820  0.417364  1
  O  O48  1  0.449549  0.549831  0.327133  1
  O  O49  1  0.039574  0.136467  0.476488  1
  O  O50  1  0.671973  0.136460  0.567625  1
  O  O51  1  0.288232  0.136475  0.335840  1
  O  O52  1  0.960280  0.636465  0.321308  1
  O  O53  1  0.327880  0.636470  0.230170  1
  O  O54  1  0.711622  0.636456  0.461957  1
  O  O55  1  0.288234  0.136475  0.567626  1
  O  O56  1  0.039571  0.136469  0.335840  1
  O  O57  1  0.671973  0.136459  0.476487  1
  O  O58  1  0.711622  0.636457  0.230170  1
  O  O59  1  0.960280  0.636463  0.461957  1
  O  O60  1  0.327880  0.636471  0.321308  1
  O  O61  1  0.269425  0.172391  0.483382  1
  O  O62  1  0.460931  0.172377  0.483381  1
  O  O63  1  0.269422  0.172393  0.413190  1
  O  O64  1  0.730431  0.672396  0.314415  1
  O  O65  1  0.538920  0.672408  0.314415  1
  O  O66  1  0.730429  0.672393  0.384606  1
  O  O67  1  0.179697  0.113035  0.431843  1
  O  O68  1  0.410039  0.113031  0.516268  1
  O  O69  1  0.410039  0.113031  0.431842  1
  O  O70  1  0.820154  0.613037  0.365953  1
  O  O71  1  0.589813  0.613039  0.281529  1
  O  O72  1  0.589813  0.613039  0.365953  1
  O  O73  1  0.147728  0.326750  0.455462  1
  O  O74  1  0.506454  0.326743  0.527984  1
  O  O75  1  0.345597  0.326758  0.396506  1
  O  O76  1  0.852126  0.826749  0.342334  1
  O  O77  1  0.493401  0.826757  0.269811  1
  O  O78  1  0.654255  0.826742  0.401291  1
  O  O79  1  0.345597  0.326753  0.527984  1
  O  O80  1  0.147727  0.326750  0.396506  1
  O  O81  1  0.506453  0.326737  0.455462  1
  O  O82  1  0.654254  0.826747  0.269809  1
  O  O83  1  0.852127  0.826749  0.401291  1
  O  O84  1  0.493400  0.826760  0.342335  1
  O  O85  1  0.928725  0.083718  0.428873  1
  O  O86  1  0.652912  0.083714  0.241735  1
  O  O87  1  0.418147  0.083727  0.342828  1
  O  O88  1  0.071130  0.583718  0.368923  1
  O  O89  1  0.346939  0.583729  0.556059  1
  O  O90  1  0.581713  0.583713  0.454972  1
  O  O91  1  0.418146  0.083732  0.241735  1
  O  O92  1  0.928724  0.083720  0.342827  1
  O  O93  1  0.652913  0.083710  0.428873  1
  O  O94  1  0.581713  0.583713  0.556059  1
  O  O95  1  0.071132  0.583717  0.454971  1
  O  O96  1  0.346940  0.583728  0.368924  1
  O  O97  1  0.013547  0.317654  0.437524  1
  O  O98  1  0.591691  0.317650  0.577164  1
  O  O99  1  0.394540  0.317665  0.365265  1
  O  O100  1  0.986308  0.817649  0.360272  1
  O  O101  1  0.408158  0.817654  0.220630  1
  O  O102  1  0.605314  0.817640  0.432533  1
  O  O103  1  0.394542  0.317663  0.577165  1
  O  O104  1  0.013545  0.317653  0.365264  1
  O  O105  1  0.591694  0.317644  0.437524  1
  O  O106  1  0.605314  0.817642  0.220630  1
  O  O107  1  0.986307  0.817653  0.432532  1
  O  O108  1  0.408160  0.817659  0.360272  1
  O  O109  1  0.062949  0.466344  0.410448  1
  O  O110  1  0.468416  0.466347  0.559057  1
  O  O111  1  0.468413  0.466344  0.410447  1
  O  O112  1  0.936907  0.966336  0.387350  1
  O  O113  1  0.531439  0.966337  0.238736  1
  O  O114  1  0.531436  0.966337  0.387350  1
  O  O115  1  0.348656  0.344312  0.609691  1
  O  O116  1  0.726321  0.344302  0.609691  1
  O  O117  1  0.828388  0.540605  0.645030  1
  O  O118  1  0.343003  0.540616  0.645030  1
  O  O119  1  0.449551  0.549834  0.635458  1
  O  O120  1  0.695728  0.549817  0.635457  1
  O  O121  1  0.327880  0.636470  0.596689  1
  O  O122  1  0.711622  0.636457  0.596689  1
  O  O123  1  0.730431  0.672396  0.680933  1
  O  O124  1  0.538920  0.672408  0.680933  1
  O  O125  1  0.589813  0.613039  0.648048  1
  O  O126  1  0.493401  0.826757  0.636329  1
  O  O127  1  0.654254  0.826747  0.636328  1
  O  O128  1  0.652912  0.083714  0.608253  1
  O  O129  1  0.418146  0.083732  0.608254  1
  O  O130  1  0.408158  0.817654  0.587148  1
  O  O131  1  0.605314  0.817642  0.587148  1
  O  O132  1  0.531439  0.966337  0.605254  1
  Si  Si133  1  0.636578  0.018080  0.175969  1
  Si  Si134  1  0.255045  0.018086  0.175971  1
  Si  Si135  1  0.480067  0.159444  0.147236  1
  Si  Si136  1  0.333161  0.159455  0.147238  1
  Si  Si137  1  0.334375  0.717985  0.206176  1
  Si  Si138  1  0.639662  0.717966  0.206176  1
  Si  Si139  1  0.535514  0.432006  0.187779  1
  Si  Si140  1  0.388332  0.432022  0.187780  1
  Si  Si141  1  0.108159  0.018085  0.488653  1
  Si  Si142  1  0.636578  0.018080  0.542487  1
  Si  Si143  1  0.255040  0.018085  0.348812  1
  Si  Si144  1  0.891688  0.518083  0.309142  1
  Si  Si145  1  0.363273  0.518086  0.255308  1
  Si  Si146  1  0.744807  0.518081  0.448983  1
  Si  Si147  1  0.255045  0.018086  0.542490  1
  Si  Si148  1  0.108158  0.018081  0.348812  1
  Si  Si149  1  0.636577  0.018084  0.488652  1
  Si  Si150  1  0.744810  0.518077  0.255308  1
  Si  Si151  1  0.891692  0.518088  0.448983  1
  Si  Si152  1  0.363272  0.518085  0.309141  1
  Si  Si153  1  0.186551  0.159448  0.460020  1
  Si  Si154  1  0.480067  0.159444  0.513755  1
  Si  Si155  1  0.333164  0.159454  0.406177  1
  Si  Si156  1  0.813301  0.659451  0.337776  1
  Si  Si157  1  0.519784  0.659465  0.284041  1
  Si  Si158  1  0.666692  0.659446  0.391620  1
  Si  Si159  1  0.333161  0.159455  0.513756  1
  Si  Si160  1  0.186549  0.159447  0.406177  1
  Si  Si161  1  0.480068  0.159443  0.460021  1
  Si  Si162  1  0.666693  0.659452  0.284040  1
  Si  Si163  1  0.813306  0.659450  0.391619  1
  Si  Si164  1  0.519788  0.659462  0.337775  1
  Si  Si165  1  0.974116  0.217962  0.450114  1
  Si  Si166  1  0.665475  0.217970  0.225100  1
  Si  Si167  1  0.360193  0.217995  0.338221  1
  Si  Si168  1  0.025746  0.717984  0.347683  1
  Si  Si169  1  0.334375  0.717985  0.572695  1
  Si  Si170  1  0.639662  0.717957  0.459575  1
  Si  Si171  1  0.360196  0.217995  0.225101  1
  Si  Si172  1  0.974111  0.217974  0.338222  1
  Si  Si173  1  0.665472  0.217960  0.450114  1
  Si  Si174  1  0.639662  0.717966  0.572695  1
  Si  Si175  1  0.025745  0.717976  0.459577  1
  Si  Si176  1  0.334370  0.717988  0.347683  1
  Si  Si177  1  0.075934  0.432015  0.439800  1
  Si  Si178  1  0.535514  0.432006  0.554298  1
  Si  Si179  1  0.388335  0.432017  0.385857  1
  Si  Si180  1  0.923921  0.932017  0.357998  1
  Si  Si181  1  0.464339  0.932020  0.243495  1
  Si  Si182  1  0.611522  0.932007  0.411945  1
  Si  Si183  1  0.388332  0.432022  0.554298  1
  Si  Si184  1  0.075933  0.432016  0.385855  1
  Si  Si185  1  0.535516  0.432003  0.439800  1
  Si  Si186  1  0.611520  0.932004  0.243495  1
  Si  Si187  1  0.923925  0.932011  0.411943  1
  Si  Si188  1  0.464341  0.932025  0.357998  1
  Si  Si189  1  0.363273  0.518086  0.621826  1
  Si  Si190  1  0.744810  0.518077  0.621827  1
  Si  Si191  1  0.519784  0.659465  0.650559  1
  Si  Si192  1  0.666693  0.659452  0.650559  1
  Si  Si193  1  0.665475  0.217970  0.591618  1
  Si  Si194  1  0.360196  0.217995  0.591620  1
  Si  Si195  1  0.464339  0.932020  0.610014  1
  Si  Si196  1  0.611520  0.932004  0.610013  1
  H  H197  1  0.171464  0.040616  0.137007  1
  H  H198  1  0.656850  0.040605  0.137007  1
  H  H199  1  0.269425  0.172391  0.101103  1
  H  H200  1  0.460931  0.172377  0.101102  1
  H  H201  1  0.828388  0.540605  0.660790  1
  H  H202  1  0.343003  0.540616  0.660790  1
  H  H203  1  0.730431  0.672396  0.696694  1
  H  H204  1  0.538920  0.672408  0.696694  1
