# generated using pymatgen
data_Si20H2O41
_symmetry_space_group_name_H-M   'P 1'
_cell_length_a   20.93009487
_cell_length_b   8.49563914
_cell_length_c   59.57389616
_cell_angle_alpha   90.00000000
_cell_angle_beta   120.00000000
_cell_angle_gamma   90.00000000
_symmetry_Int_Tables_number   1
_chemical_formula_structural   Si20H2O41
_chemical_formula_sum   'Si80 H8 O164'
_cell_volume   9173.89763326
_cell_formula_units_Z   4
loop_
 _symmetry_equiv_pos_site_id
 _symmetry_equiv_pos_as_xyz
  1  'x, y, z'
loop_
 _atom_site_type_symbol
 _atom_site_label
 _atom_site_symmetry_multiplicity
 _atom_site_fract_x
 _atom_site_fract_y
 _atom_site_fract_z
 _atom_site_occupancy
  O  O1  1  0.075049  0.844307  0.306961  1
  O  O2  1  0.651204  0.844301  0.376694  1
  O  O3  1  0.273531  0.844310  0.174272  1
  O  O4  1  0.924806  0.344304  0.147880  1
  O  O5  1  0.726323  0.344299  0.280567  1
  O  O6  1  0.273532  0.844312  0.376694  1
  O  O7  1  0.075046  0.844302  0.174272  1
  O  O8  1  0.651203  0.844298  0.306961  1
  O  O9  1  0.924806  0.344307  0.280568  1
  O  O10  1  0.348655  0.344313  0.147881  1
  O  O11  1  0.171464  0.040616  0.342820  1
  O  O12  1  0.656850  0.040605  0.342819  1
  O  O13  1  0.171464  0.040615  0.172287  1
  O  O14  1  0.828388  0.540605  0.112021  1
  O  O15  1  0.343003  0.540616  0.112021  1
  O  O16  1  0.828391  0.540605  0.282553  1
  O  O17  1  0.145349  0.049819  0.296212  1
  O  O18  1  0.550308  0.049809  0.351995  1
  O  O19  1  0.304123  0.049829  0.209720  1
  O  O20  1  0.854503  0.549824  0.158629  1
  O  O21  1  0.695729  0.549817  0.245119  1
  O  O22  1  0.304126  0.049828  0.351994  1
  O  O23  1  0.145350  0.049825  0.209721  1
  O  O24  1  0.550306  0.049809  0.296211  1
  O  O25  1  0.854506  0.549820  0.245120  1
  O  O26  1  0.449549  0.549831  0.158628  1
  O  O27  1  0.039574  0.136467  0.301795  1
  O  O28  1  0.671973  0.136460  0.389156  1
  O  O29  1  0.288232  0.136475  0.166974  1
  O  O30  1  0.960280  0.636465  0.153045  1
  O  O31  1  0.711622  0.636456  0.287866  1
  O  O32  1  0.288234  0.136475  0.389157  1
  O  O33  1  0.039571  0.136469  0.166974  1
  O  O34  1  0.671973  0.136459  0.301795  1
  O  O35  1  0.960280  0.636463  0.287866  1
  O  O36  1  0.327880  0.636471  0.153045  1
  O  O37  1  0.269425  0.172391  0.308403  1
  O  O38  1  0.460931  0.172377  0.308402  1
  O  O39  1  0.269422  0.172393  0.241120  1
  O  O40  1  0.730431  0.672396  0.146437  1
  O  O41  1  0.538920  0.672408  0.146437  1
  O  O42  1  0.730429  0.672393  0.213720  1
  O  O43  1  0.179697  0.113035  0.258999  1
  O  O44  1  0.410039  0.113031  0.339926  1
  O  O45  1  0.410039  0.113031  0.258999  1
  O  O46  1  0.820154  0.613037  0.195840  1
  O  O47  1  0.589813  0.613039  0.195840  1
  O  O48  1  0.147728  0.326750  0.281640  1
  O  O49  1  0.506454  0.326743  0.351158  1
  O  O50  1  0.345597  0.326758  0.225127  1
  O  O51  1  0.852126  0.826749  0.173200  1
  O  O52  1  0.654255  0.826742  0.229713  1
  O  O53  1  0.345597  0.326753  0.351158  1
  O  O54  1  0.147727  0.326750  0.225127  1
  O  O55  1  0.506453  0.326737  0.281640  1
  O  O56  1  0.852127  0.826749  0.229713  1
  O  O57  1  0.493400  0.826760  0.173200  1
  O  O58  1  0.928725  0.083718  0.256153  1
  O  O59  1  0.418147  0.083727  0.173673  1
  O  O60  1  0.071130  0.583718  0.198687  1
  O  O61  1  0.346939  0.583729  0.378069  1
  O  O62  1  0.581713  0.583713  0.281171  1
  O  O63  1  0.928724  0.083720  0.173671  1
  O  O64  1  0.652913  0.083710  0.256153  1
  O  O65  1  0.581713  0.583713  0.378069  1
  O  O66  1  0.071132  0.583717  0.281170  1
  O  O67  1  0.346940  0.583728  0.198687  1
  O  O68  1  0.013547  0.317654  0.264445  1
  O  O69  1  0.591691  0.317650  0.398300  1
  O  O70  1  0.394540  0.317665  0.195180  1
  O  O71  1  0.986308  0.817649  0.190394  1
  O  O72  1  0.605314  0.817640  0.259661  1
  O  O73  1  0.394542  0.317663  0.398301  1
  O  O74  1  0.013545  0.317653  0.195179  1
  O  O75  1  0.591694  0.317644  0.264445  1
  O  O76  1  0.986307  0.817653  0.259661  1
  O  O77  1  0.408160  0.817659  0.190395  1
  O  O78  1  0.062949  0.466344  0.238491  1
  O  O79  1  0.468416  0.466347  0.380943  1
  O  O80  1  0.468413  0.466344  0.238491  1
  O  O81  1  0.936907  0.966336  0.216350  1
  O  O82  1  0.531436  0.966337  0.216350  1
  O  O83  1  0.075049  0.844307  0.658294  1
  O  O84  1  0.273531  0.844310  0.525605  1
  O  O85  1  0.924806  0.344304  0.499214  1
  O  O86  1  0.348656  0.344312  0.429479  1
  O  O87  1  0.726323  0.344299  0.631900  1
  O  O88  1  0.075046  0.844302  0.525605  1
  O  O89  1  0.651203  0.844298  0.658294  1
  O  O90  1  0.726321  0.344302  0.429479  1
  O  O91  1  0.924806  0.344307  0.631901  1
  O  O92  1  0.348655  0.344313  0.499214  1
  O  O93  1  0.171464  0.040616  0.694153  1
  O  O94  1  0.656850  0.040605  0.694152  1
  O  O95  1  0.171464  0.040615  0.523620  1
  O  O96  1  0.828388  0.540605  0.463354  1
  O  O97  1  0.343003  0.540616  0.463354  1
  O  O98  1  0.828391  0.540605  0.633886  1
  O  O99  1  0.145349  0.049819  0.647545  1
  O  O100  1  0.304123  0.049829  0.561053  1
  O  O101  1  0.854503  0.549824  0.509962  1
  O  O102  1  0.449551  0.549834  0.454179  1
  O  O103  1  0.695729  0.549817  0.596452  1
  O  O104  1  0.145350  0.049825  0.561054  1
  O  O105  1  0.550306  0.049809  0.647544  1
  O  O106  1  0.695728  0.549817  0.454178  1
  O  O107  1  0.854506  0.549820  0.596453  1
  O  O108  1  0.449549  0.549831  0.509962  1
  O  O109  1  0.039574  0.136467  0.653128  1
  O  O110  1  0.288232  0.136475  0.518307  1
  O  O111  1  0.960280  0.636465  0.504378  1
  O  O112  1  0.327880  0.636470  0.417016  1
  O  O113  1  0.711622  0.636456  0.639199  1
  O  O114  1  0.039571  0.136469  0.518307  1
  O  O115  1  0.671973  0.136459  0.653128  1
  O  O116  1  0.711622  0.636457  0.417016  1
  O  O117  1  0.960280  0.636463  0.639199  1
  O  O118  1  0.327880  0.636471  0.504378  1
  O  O119  1  0.269425  0.172391  0.659736  1
  O  O120  1  0.460931  0.172377  0.659736  1
  O  O121  1  0.269422  0.172393  0.592453  1
  O  O122  1  0.730431  0.672396  0.497770  1
  O  O123  1  0.538920  0.672408  0.497770  1
  O  O124  1  0.730429  0.672393  0.565053  1
  O  O125  1  0.179697  0.113035  0.610332  1
  O  O126  1  0.410039  0.113031  0.610332  1
  O  O127  1  0.820154  0.613037  0.547173  1
  O  O128  1  0.589813  0.613039  0.466247  1
  O  O129  1  0.589813  0.613039  0.547173  1
  O  O130  1  0.147728  0.326750  0.632973  1
  O  O131  1  0.345597  0.326758  0.576460  1
  O  O132  1  0.852126  0.826749  0.524533  1
  O  O133  1  0.493401  0.826757  0.455014  1
  O  O134  1  0.654255  0.826742  0.581046  1
  O  O135  1  0.147727  0.326750  0.576460  1
  O  O136  1  0.506453  0.326737  0.632973  1
  O  O137  1  0.654254  0.826747  0.455013  1
  O  O138  1  0.852127  0.826749  0.581046  1
  O  O139  1  0.493400  0.826760  0.524533  1
  O  O140  1  0.928725  0.083718  0.607486  1
  O  O141  1  0.652912  0.083714  0.428101  1
  O  O142  1  0.418147  0.083727  0.525006  1
  O  O143  1  0.071130  0.583718  0.550020  1
  O  O144  1  0.581713  0.583713  0.632504  1
  O  O145  1  0.418146  0.083732  0.428102  1
  O  O146  1  0.928724  0.083720  0.525005  1
  O  O147  1  0.652913  0.083710  0.607486  1
  O  O148  1  0.071132  0.583717  0.632503  1
  O  O149  1  0.346940  0.583728  0.550021  1
  O  O150  1  0.013547  0.317654  0.615778  1
  O  O151  1  0.394540  0.317665  0.546513  1
  O  O152  1  0.986308  0.817649  0.541727  1
  O  O153  1  0.408158  0.817654  0.407870  1
  O  O154  1  0.605314  0.817640  0.610994  1
  O  O155  1  0.013545  0.317653  0.546512  1
  O  O156  1  0.591694  0.317644  0.615778  1
  O  O157  1  0.605314  0.817642  0.407870  1
  O  O158  1  0.986307  0.817653  0.610994  1
  O  O159  1  0.408160  0.817659  0.541728  1
  O  O160  1  0.062949  0.466344  0.589824  1
  O  O161  1  0.468413  0.466344  0.589824  1
  O  O162  1  0.936907  0.966336  0.567683  1
  O  O163  1  0.531439  0.966337  0.425226  1
  O  O164  1  0.531436  0.966337  0.567683  1
  Si  Si165  1  0.108159  0.018085  0.313456  1
  Si  Si166  1  0.636578  0.018080  0.365060  1
  Si  Si167  1  0.255040  0.018085  0.179409  1
  Si  Si168  1  0.891688  0.518083  0.141382  1
  Si  Si169  1  0.744807  0.518081  0.275429  1
  Si  Si170  1  0.255045  0.018086  0.365062  1
  Si  Si171  1  0.108158  0.018081  0.179409  1
  Si  Si172  1  0.636577  0.018084  0.313455  1
  Si  Si173  1  0.891692  0.518088  0.275429  1
  Si  Si174  1  0.363272  0.518085  0.141382  1
  Si  Si175  1  0.186551  0.159448  0.286009  1
  Si  Si176  1  0.480067  0.159444  0.337518  1
  Si  Si177  1  0.333164  0.159454  0.234397  1
  Si  Si178  1  0.813301  0.659451  0.168830  1
  Si  Si179  1  0.666692  0.659446  0.220444  1
  Si  Si180  1  0.333161  0.159455  0.337519  1
  Si  Si181  1  0.186549  0.159447  0.234397  1
  Si  Si182  1  0.480068  0.159443  0.286010  1
  Si  Si183  1  0.813306  0.659450  0.220443  1
  Si  Si184  1  0.519788  0.659462  0.168829  1
  Si  Si185  1  0.974116  0.217962  0.276514  1
  Si  Si186  1  0.360193  0.217995  0.169256  1
  Si  Si187  1  0.025746  0.717984  0.178326  1
  Si  Si188  1  0.334375  0.717985  0.394016  1
  Si  Si189  1  0.639662  0.717957  0.285583  1
  Si  Si190  1  0.974111  0.217974  0.169257  1
  Si  Si191  1  0.665472  0.217960  0.276513  1
  Si  Si192  1  0.639662  0.717966  0.394016  1
  Si  Si193  1  0.025745  0.717976  0.285584  1
  Si  Si194  1  0.334370  0.717988  0.178327  1
  Si  Si195  1  0.075934  0.432015  0.266627  1
  Si  Si196  1  0.535514  0.432006  0.376381  1
  Si  Si197  1  0.388335  0.432017  0.214919  1
  Si  Si198  1  0.923921  0.932017  0.188214  1
  Si  Si199  1  0.611522  0.932007  0.239926  1
  Si  Si200  1  0.388332  0.432022  0.376382  1
  Si  Si201  1  0.075933  0.432016  0.214917  1
  Si  Si202  1  0.535516  0.432003  0.266628  1
  Si  Si203  1  0.923925  0.932011  0.239924  1
  Si  Si204  1  0.464341  0.932025  0.188215  1
  Si  Si205  1  0.108159  0.018085  0.664789  1
  Si  Si206  1  0.255040  0.018085  0.530742  1
  Si  Si207  1  0.891688  0.518083  0.492715  1
  Si  Si208  1  0.363273  0.518086  0.441112  1
  Si  Si209  1  0.744807  0.518081  0.626763  1
  Si  Si210  1  0.108158  0.018081  0.530742  1
  Si  Si211  1  0.636577  0.018084  0.664788  1
  Si  Si212  1  0.744810  0.518077  0.441112  1
  Si  Si213  1  0.891692  0.518088  0.626763  1
  Si  Si214  1  0.363272  0.518085  0.492715  1
  Si  Si215  1  0.186551  0.159448  0.637342  1
  Si  Si216  1  0.333164  0.159454  0.585730  1
  Si  Si217  1  0.813301  0.659451  0.520163  1
  Si  Si218  1  0.519784  0.659465  0.468654  1
  Si  Si219  1  0.666692  0.659446  0.571777  1
  Si  Si220  1  0.186549  0.159447  0.585730  1
  Si  Si221  1  0.480068  0.159443  0.637343  1
  Si  Si222  1  0.666693  0.659452  0.468654  1
  Si  Si223  1  0.813306  0.659450  0.571776  1
  Si  Si224  1  0.519788  0.659462  0.520162  1
  Si  Si225  1  0.974116  0.217962  0.627847  1
  Si  Si226  1  0.665475  0.217970  0.412155  1
  Si  Si227  1  0.360193  0.217995  0.520589  1
  Si  Si228  1  0.025746  0.717984  0.529659  1
  Si  Si229  1  0.639662  0.717957  0.636916  1
  Si  Si230  1  0.360196  0.217995  0.412157  1
  Si  Si231  1  0.974111  0.217974  0.520590  1
  Si  Si232  1  0.665472  0.217960  0.627846  1
  Si  Si233  1  0.025745  0.717976  0.636917  1
  Si  Si234  1  0.334370  0.717988  0.529660  1
  Si  Si235  1  0.075934  0.432015  0.617960  1
  Si  Si236  1  0.388335  0.432017  0.566252  1
  Si  Si237  1  0.923921  0.932017  0.539547  1
  Si  Si238  1  0.464339  0.932020  0.429789  1
  Si  Si239  1  0.611522  0.932007  0.591259  1
  Si  Si240  1  0.075933  0.432016  0.566250  1
  Si  Si241  1  0.535516  0.432003  0.617961  1
  Si  Si242  1  0.611520  0.932004  0.429788  1
  Si  Si243  1  0.923925  0.932011  0.591257  1
  Si  Si244  1  0.464341  0.932025  0.539548  1
  H  H245  1  0.828388  0.540605  0.096913  1
  H  H246  1  0.343003  0.540616  0.096914  1
  H  H247  1  0.730431  0.672396  0.131330  1
  H  H248  1  0.538920  0.672408  0.131330  1
  H  H249  1  0.171464  0.040616  0.709260  1
  H  H250  1  0.656850  0.040605  0.709260  1
  H  H251  1  0.269425  0.172391  0.674844  1
  H  H252  1  0.460931  0.172377  0.674843  1
