# generated using pymatgen
data_Si6H2O13
_symmetry_space_group_name_H-M   'P 1'
_cell_length_a   13.80613488
_cell_length_b   20.14838188
_cell_length_c   30.36018736
_cell_angle_alpha   90.00000000
_cell_angle_beta   90.00000000
_cell_angle_gamma   90.00000000
_symmetry_Int_Tables_number   1
_chemical_formula_structural   Si6H2O13
_chemical_formula_sum   'Si48 H16 O104'
_cell_volume   8445.33211425
_cell_formula_units_Z   8
loop_
 _symmetry_equiv_pos_site_id
 _symmetry_equiv_pos_as_xyz
  1  'x, y, z'
loop_
 _atom_site_type_symbol
 _atom_site_label
 _atom_site_symmetry_multiplicity
 _atom_site_fract_x
 _atom_site_fract_y
 _atom_site_fract_z
 _atom_site_occupancy
  O  O1  1  0.843775  0.913027  0.475490  1
  O  O2  1  0.155483  0.913392  0.475222  1
  O  O3  1  0.836562  0.703425  0.476288  1
  O  O4  1  0.163363  0.703387  0.476240  1
  O  O5  1  0.655353  0.086502  0.475111  1
  O  O6  1  0.343349  0.086781  0.475815  1
  O  O7  1  0.663366  0.296536  0.476154  1
  O  O8  1  0.336484  0.296292  0.476206  1
  O  O9  1  0.759724  0.627494  0.414273  1
  O  O10  1  0.240267  0.627517  0.414232  1
  O  O11  1  0.259281  0.627529  0.256356  1
  O  O12  1  0.740769  0.627540  0.256416  1
  O  O13  1  0.600006  0.575846  0.382660  1
  O  O14  1  0.399978  0.575843  0.382654  1
  O  O15  1  0.099939  0.574822  0.288052  1
  O  O16  1  0.900091  0.574799  0.288065  1
  O  O17  1  0.750052  0.586759  0.335352  1
  O  O18  1  0.249978  0.586772  0.335319  1
  O  O19  1  0.749987  0.500010  0.276015  1
  O  O20  1  0.750571  0.000000  0.239127  1
  O  O21  1  0.907749  0.951663  0.401346  1
  O  O22  1  0.093295  0.952537  0.400657  1
  O  O23  1  0.407918  0.951228  0.268951  1
  O  O24  1  0.593314  0.952426  0.270140  1
  O  O25  1  0.757620  0.881013  0.404622  1
  O  O26  1  0.242370  0.881024  0.404664  1
  O  O27  1  0.257656  0.880970  0.265852  1
  O  O28  1  0.742317  0.881010  0.266046  1
  O  O29  1  0.598888  0.823057  0.380973  1
  O  O30  1  0.401074  0.823118  0.380967  1
  O  O31  1  0.098992  0.823253  0.289552  1
  O  O32  1  0.901062  0.823317  0.289601  1
  O  O33  1  0.750034  0.811312  0.335332  1
  O  O34  1  0.250011  0.811493  0.335297  1
  O  O35  1  0.745655  0.754500  0.409620  1
  O  O36  1  0.254305  0.754531  0.409563  1
  O  O37  1  0.245702  0.754472  0.261068  1
  O  O38  1  0.754368  0.754523  0.261019  1
  O  O39  1  0.907356  0.699592  0.401683  1
  O  O40  1  0.092630  0.699608  0.401648  1
  O  O41  1  0.407335  0.699387  0.268862  1
  O  O42  1  0.592764  0.699446  0.268961  1
  O  O43  1  -0.000000  0.750502  0.339089  1
  O  O44  1  0.499898  0.749689  0.331687  1
  O  O45  1  -0.000000  0.624666  0.349041  1
  O  O46  1  0.499989  0.623506  0.320911  1
  O  O47  1  0.000000  0.500635  0.336440  1
  O  O48  1  -0.000000  0.875785  0.350523  1
  O  O49  1  0.500080  0.875194  0.319919  1
  O  O50  1  0.249998  0.500005  0.276016  1
  O  O51  1  0.496845  0.000000  0.335622  1
  O  O52  1  0.249980  0.500008  0.394662  1
  O  O53  1  0.250579  0.000000  0.431592  1
  O  O54  1  0.997818  0.000000  0.334946  1
  O  O55  1  0.750400  0.000000  0.431545  1
  O  O56  1  0.499992  0.499103  0.336559  1
  O  O57  1  0.240687  0.372455  0.256429  1
  O  O58  1  0.759280  0.372466  0.256386  1
  O  O59  1  0.740250  0.372458  0.414191  1
  O  O60  1  0.259798  0.372482  0.414253  1
  O  O61  1  0.400060  0.425172  0.288040  1
  O  O62  1  0.599922  0.425172  0.288035  1
  O  O63  1  0.899990  0.424137  0.382672  1
  O  O64  1  0.100032  0.424112  0.382683  1
  O  O65  1  0.250046  0.413254  0.335349  1
  O  O66  1  0.749979  0.413256  0.335317  1
  O  O67  1  0.093172  0.047890  0.269776  1
  O  O68  1  0.907901  0.048789  0.269072  1
  O  O69  1  0.593292  0.047478  0.400518  1
  O  O70  1  0.407916  0.048707  0.401697  1
  O  O71  1  0.242375  0.118979  0.265806  1
  O  O72  1  0.757598  0.118971  0.265839  1
  O  O73  1  0.742420  0.118893  0.404630  1
  O  O74  1  0.257527  0.118958  0.404830  1
  O  O75  1  0.400993  0.176614  0.289494  1
  O  O76  1  0.598944  0.176659  0.289481  1
  O  O77  1  0.901091  0.176785  0.380998  1
  O  O78  1  0.098927  0.176863  0.381052  1
  O  O79  1  0.250018  0.188268  0.335318  1
  O  O80  1  0.749997  0.188423  0.335275  1
  O  O81  1  0.254305  0.245478  0.261140  1
  O  O82  1  0.745632  0.245496  0.261084  1
  O  O83  1  0.754340  0.245418  0.409512  1
  O  O84  1  0.245687  0.245487  0.409475  1
  O  O85  1  0.092685  0.300499  0.268971  1
  O  O86  1  0.907276  0.300514  0.268931  1
  O  O87  1  0.592656  0.300286  0.401565  1
  O  O88  1  0.407406  0.300335  0.401648  1
  O  O89  1  0.000000  0.249881  0.331586  1
  O  O90  1  0.499910  0.249058  0.339171  1
  O  O91  1  -0.000000  0.376164  0.321046  1
  O  O92  1  0.499986  0.374993  0.348886  1
  O  O93  1  0.000000  0.124231  0.320262  1
  O  O94  1  0.500069  0.123633  0.350143  1
  O  O95  1  0.250455  0.000000  0.239066  1
  O  O96  1  0.749989  0.499993  0.394663  1
  O  O97  1  0.343274  0.913056  0.194825  1
  O  O98  1  0.655443  0.913338  0.195530  1
  O  O99  1  0.336395  0.703509  0.194333  1
  O  O100  1  0.663445  0.703245  0.194382  1
  O  O101  1  0.155835  0.086443  0.195184  1
  O  O102  1  0.843403  0.086788  0.194909  1
  O  O103  1  0.163505  0.296523  0.194449  1
  O  O104  1  0.836388  0.296459  0.194399  1
  Si  Si105  1  0.499984  0.818645  0.355269  1
  Si  Si106  1  -0.000000  0.819183  0.315241  1
  Si  Si107  1  0.499760  0.945703  0.298632  1
  Si  Si108  1  0.714722  0.572532  0.383742  1
  Si  Si109  1  0.285260  0.572537  0.383717  1
  Si  Si110  1  0.214638  0.572471  0.286938  1
  Si  Si111  1  0.785392  0.572455  0.286970  1
  Si  Si112  1  0.814529  0.936913  0.428622  1
  Si  Si113  1  0.185673  0.937208  0.428457  1
  Si  Si114  1  0.314443  0.936845  0.241781  1
  Si  Si115  1  0.685646  0.937211  0.242276  1
  Si  Si116  1  0.712765  0.817663  0.383690  1
  Si  Si117  1  0.287195  0.817730  0.383671  1
  Si  Si118  1  0.212862  0.817712  0.286914  1
  Si  Si119  1  0.787205  0.817691  0.286960  1
  Si  Si120  1  0.808976  0.695238  0.426562  1
  Si  Si121  1  0.191016  0.695260  0.426516  1
  Si  Si122  1  0.308848  0.695181  0.244056  1
  Si  Si123  1  0.691185  0.695170  0.244104  1
  Si  Si124  1  0.000000  0.692841  0.373114  1
  Si  Si125  1  0.499981  0.692284  0.297396  1
  Si  Si126  1  0.000000  0.569280  0.312972  1
  Si  Si127  1  0.499997  0.569350  0.357876  1
  Si  Si128  1  0.000000  0.946183  0.371937  1
  Si  Si129  1  0.499748  0.053598  0.371985  1
  Si  Si130  1  0.499975  0.180548  0.315134  1
  Si  Si131  1  -0.000000  0.181083  0.355345  1
  Si  Si132  1  0.285358  0.427550  0.286964  1
  Si  Si133  1  0.714621  0.427548  0.286938  1
  Si  Si134  1  0.785272  0.427468  0.383715  1
  Si  Si135  1  0.214749  0.427461  0.383745  1
  Si  Si136  1  0.185722  0.062783  0.242027  1
  Si  Si137  1  0.814489  0.063066  0.241859  1
  Si  Si138  1  0.685613  0.062707  0.428360  1
  Si  Si139  1  0.314451  0.063090  0.428851  1
  Si  Si140  1  0.287127  0.182181  0.286923  1
  Si  Si141  1  0.712808  0.182228  0.286897  1
  Si  Si142  1  0.787217  0.182198  0.383646  1
  Si  Si143  1  0.212812  0.182197  0.383699  1
  Si  Si144  1  0.191152  0.304787  0.244161  1
  Si  Si145  1  0.808812  0.304795  0.244112  1
  Si  Si146  1  0.691029  0.304693  0.426438  1
  Si  Si147  1  0.308990  0.304692  0.426490  1
  Si  Si148  1  0.000000  0.307470  0.297450  1
  Si  Si149  1  0.499973  0.306900  0.373040  1
  Si  Si150  1  0.000000  0.430483  0.357889  1
  Si  Si151  1  0.499995  0.430561  0.312955  1
  Si  Si152  1  -0.000000  0.054067  0.298566  1
  H  H153  1  0.843775  0.913027  0.505134  1
  H  H154  1  0.155483  0.913392  0.504866  1
  H  H155  1  0.836562  0.703425  0.505932  1
  H  H156  1  0.163363  0.703387  0.505884  1
  H  H157  1  0.655353  0.086502  0.504755  1
  H  H158  1  0.343349  0.086781  0.505459  1
  H  H159  1  0.663366  0.296536  0.505799  1
  H  H160  1  0.336484  0.296292  0.505850  1
  H  H161  1  0.343274  0.913056  0.165181  1
  H  H162  1  0.655443  0.913338  0.165886  1
  H  H163  1  0.336395  0.703509  0.164689  1
  H  H164  1  0.663445  0.703245  0.164738  1
  H  H165  1  0.155835  0.086443  0.165539  1
  H  H166  1  0.843403  0.086788  0.165265  1
  H  H167  1  0.163505  0.296523  0.164805  1
  H  H168  1  0.836388  0.296459  0.164755  1
