# generated using pymatgen
data_Si22H2O45
_symmetry_space_group_name_H-M   'P 1'
_cell_length_a   13.80613488
_cell_length_b   20.14838188
_cell_length_c   57.81062735
_cell_angle_alpha   90.00000000
_cell_angle_beta   90.00000000
_cell_angle_gamma   90.00000000
_symmetry_Int_Tables_number   1
_chemical_formula_structural   Si22H2O45
_chemical_formula_sum   'Si176 H16 O360'
_cell_volume   16081.2560825
_cell_formula_units_Z   8
loop_
 _symmetry_equiv_pos_site_id
 _symmetry_equiv_pos_as_xyz
  1  'x, y, z'
loop_
 _atom_site_type_symbol
 _atom_site_label
 _atom_site_symmetry_multiplicity
 _atom_site_fract_x
 _atom_site_fract_y
 _atom_site_fract_z
 _atom_site_occupancy
  O  O1  1  0.759298  0.627433  0.372085  1
  O  O2  1  0.240481  0.627458  0.372060  1
  O  O3  1  0.599935  0.574632  0.388656  1
  O  O4  1  0.399960  0.574819  0.388641  1
  O  O5  1  0.249558  0.000000  0.362975  1
  O  O6  1  0.843775  0.913027  0.294683  1
  O  O7  1  0.155483  0.913392  0.294543  1
  O  O8  1  0.843780  0.913303  0.339904  1
  O  O9  1  0.156296  0.913154  0.339790  1
  O  O10  1  0.906983  0.951865  0.378957  1
  O  O11  1  0.092237  0.951408  0.378788  1
  O  O12  1  0.757590  0.880867  0.377053  1
  O  O13  1  0.242222  0.880895  0.377029  1
  O  O14  1  0.598916  0.823224  0.389492  1
  O  O15  1  0.400950  0.823243  0.389483  1
  O  O16  1  0.745619  0.754387  0.374574  1
  O  O17  1  0.254291  0.754403  0.374544  1
  O  O18  1  0.836562  0.703425  0.295102  1
  O  O19  1  0.163363  0.703387  0.295077  1
  O  O20  1  0.836460  0.703367  0.339549  1
  O  O21  1  0.163481  0.703549  0.339519  1
  O  O22  1  0.907266  0.699447  0.378702  1
  O  O23  1  0.092577  0.699532  0.378675  1
  O  O24  1  0.000000  0.751239  0.411390  1
  O  O25  1  -0.000000  0.625252  0.406466  1
  O  O26  1  0.000000  0.876736  0.405868  1
  O  O27  1  0.875227  0.807735  0.317350  1
  O  O28  1  0.124676  0.807805  0.317208  1
  O  O29  1  -0.000000  0.896438  0.317299  1
  O  O30  1  0.000000  0.717546  0.317329  1
  O  O31  1  0.749422  -0.000000  0.362982  1
  O  O32  1  -0.000000  0.501087  0.412775  1
  O  O33  1  0.249910  0.499890  0.382343  1
  O  O34  1  0.740184  0.372379  0.372027  1
  O  O35  1  0.259642  0.372393  0.372058  1
  O  O36  1  0.899976  0.423985  0.388640  1
  O  O37  1  0.099936  0.424111  0.388647  1
  O  O38  1  0.499950  0.250100  0.411624  1
  O  O39  1  0.656733  0.086754  0.339719  1
  O  O40  1  0.344424  0.086550  0.340091  1
  O  O41  1  0.655353  0.086502  0.294484  1
  O  O42  1  0.343349  0.086781  0.294854  1
  O  O43  1  0.592018  0.048768  0.378642  1
  O  O44  1  0.406603  0.047575  0.379271  1
  O  O45  1  0.742477  0.118887  0.377009  1
  O  O46  1  0.257369  0.118836  0.377116  1
  O  O47  1  0.901024  0.176810  0.389545  1
  O  O48  1  0.098814  0.176806  0.389567  1
  O  O49  1  0.749814  0.188374  0.413488  1
  O  O50  1  0.754355  0.245389  0.374511  1
  O  O51  1  0.245541  0.245356  0.374506  1
  O  O52  1  0.663519  0.296268  0.339460  1
  O  O53  1  0.336488  0.296539  0.339489  1
  O  O54  1  0.663366  0.296536  0.295032  1
  O  O55  1  0.336484  0.296292  0.295059  1
  O  O56  1  0.592584  0.300217  0.378612  1
  O  O57  1  0.407258  0.300249  0.378647  1
  O  O58  1  0.500020  0.376298  0.405909  1
  O  O59  1  0.499848  0.124563  0.405478  1
  O  O60  1  -0.000000  0.001665  0.413018  1
  O  O61  1  0.624663  0.192064  0.317145  1
  O  O62  1  0.375275  0.192084  0.317397  1
  O  O63  1  0.499966  0.103378  0.317316  1
  O  O64  1  0.499967  0.282329  0.317272  1
  O  O65  1  0.750106  0.499860  0.382344  1
  O  O66  1  0.749945  0.413090  0.413490  1
  O  O67  1  0.759724  0.627494  0.262534  1
  O  O68  1  0.240267  0.627517  0.262513  1
  O  O69  1  0.259281  0.627529  0.179602  1
  O  O70  1  0.740769  0.627540  0.179633  1
  O  O71  1  0.600006  0.575846  0.245932  1
  O  O72  1  0.399978  0.575843  0.245929  1
  O  O73  1  0.099939  0.574822  0.196247  1
  O  O74  1  0.900091  0.574799  0.196254  1
  O  O75  1  0.750052  0.586759  0.221087  1
  O  O76  1  0.249978  0.586772  0.221070  1
  O  O77  1  0.749987  0.500010  0.189926  1
  O  O78  1  0.750571  -0.000000  0.170553  1
  O  O79  1  0.907749  0.951663  0.255746  1
  O  O80  1  0.093295  0.952537  0.255383  1
  O  O81  1  0.407918  0.951228  0.186216  1
  O  O82  1  0.593314  0.952426  0.186840  1
  O  O83  1  0.757620  0.881013  0.257466  1
  O  O84  1  0.242370  0.881024  0.257488  1
  O  O85  1  0.257656  0.880970  0.184588  1
  O  O86  1  0.742317  0.881010  0.184690  1
  O  O87  1  0.598888  0.823057  0.245046  1
  O  O88  1  0.401074  0.823118  0.245043  1
  O  O89  1  0.098992  0.823253  0.197035  1
  O  O90  1  0.901062  0.823317  0.197061  1
  O  O91  1  0.750034  0.811312  0.221077  1
  O  O92  1  0.250011  0.811493  0.221059  1
  O  O93  1  0.745655  0.754500  0.260090  1
  O  O94  1  0.254305  0.754531  0.260061  1
  O  O95  1  0.245702  0.754472  0.182076  1
  O  O96  1  0.754368  0.754523  0.182050  1
  O  O97  1  0.907356  0.699592  0.255923  1
  O  O98  1  0.092630  0.699608  0.255904  1
  O  O99  1  0.407335  0.699387  0.186169  1
  O  O100  1  0.592764  0.699446  0.186221  1
  O  O101  1  -0.000000  0.750502  0.223050  1
  O  O102  1  0.499898  0.749689  0.219163  1
  O  O103  1  -0.000000  0.624666  0.228276  1
  O  O104  1  0.499989  0.623506  0.213503  1
  O  O105  1  0.000000  0.500635  0.221659  1
  O  O106  1  0.000000  0.875785  0.229055  1
  O  O107  1  0.500080  0.875194  0.212983  1
  O  O108  1  0.249998  0.500005  0.189926  1
  O  O109  1  0.496845  0.000000  0.221229  1
  O  O110  1  0.249980  0.500008  0.252235  1
  O  O111  1  0.250579  0.000000  0.271630  1
  O  O112  1  0.997818  -0.000000  0.220875  1
  O  O113  1  0.750400  -0.000000  0.271605  1
  O  O114  1  0.499992  0.499103  0.221722  1
  O  O115  1  0.240687  0.372455  0.179640  1
  O  O116  1  0.759280  0.372466  0.179617  1
  O  O117  1  0.740250  0.372458  0.262491  1
  O  O118  1  0.259798  0.372482  0.262524  1
  O  O119  1  0.400060  0.425172  0.196241  1
  O  O120  1  0.599922  0.425172  0.196238  1
  O  O121  1  0.899990  0.424137  0.245938  1
  O  O122  1  0.100032  0.424112  0.245944  1
  O  O123  1  0.250046  0.413254  0.221086  1
  O  O124  1  0.749979  0.413256  0.221069  1
  O  O125  1  0.093172  0.047890  0.186649  1
  O  O126  1  0.907901  0.048789  0.186279  1
  O  O127  1  0.593292  0.047478  0.255310  1
  O  O128  1  0.407916  0.048707  0.255930  1
  O  O129  1  0.242375  0.118979  0.184564  1
  O  O130  1  0.757598  0.118971  0.184582  1
  O  O131  1  0.742420  0.118893  0.257470  1
  O  O132  1  0.257527  0.118958  0.257575  1
  O  O133  1  0.400993  0.176614  0.197005  1
  O  O134  1  0.598944  0.176659  0.196998  1
  O  O135  1  0.901091  0.176785  0.245059  1
  O  O136  1  0.098927  0.176863  0.245088  1
  O  O137  1  0.250018  0.188268  0.221070  1
  O  O138  1  0.749997  0.188423  0.221047  1
  O  O139  1  0.254305  0.245478  0.182114  1
  O  O140  1  0.745632  0.245496  0.182084  1
  O  O141  1  0.754340  0.245418  0.260034  1
  O  O142  1  0.245687  0.245487  0.260014  1
  O  O143  1  0.092685  0.300499  0.186226  1
  O  O144  1  0.907276  0.300514  0.186206  1
  O  O145  1  0.592656  0.300286  0.255861  1
  O  O146  1  0.407406  0.300335  0.255904  1
  O  O147  1  -0.000000  0.249881  0.219110  1
  O  O148  1  0.499910  0.249058  0.223093  1
  O  O149  1  -0.000000  0.376164  0.213575  1
  O  O150  1  0.499986  0.374993  0.228195  1
  O  O151  1  0.000000  0.124231  0.213163  1
  O  O152  1  0.500069  0.123633  0.228855  1
  O  O153  1  0.250455  -0.000000  0.170521  1
  O  O154  1  0.749989  0.499993  0.252236  1
  O  O155  1  0.344683  0.913357  0.102057  1
  O  O156  1  0.656495  0.913137  0.102429  1
  O  O157  1  0.343274  0.913056  0.147288  1
  O  O158  1  0.655443  0.913338  0.147658  1
  O  O159  1  0.336558  0.703212  0.102597  1
  O  O160  1  0.663541  0.703583  0.102611  1
  O  O161  1  0.336395  0.703509  0.147029  1
  O  O162  1  0.663445  0.703245  0.147055  1
  O  O163  1  0.375209  0.807707  0.124704  1
  O  O164  1  0.624719  0.807728  0.124968  1
  O  O165  1  0.499969  0.896365  0.124890  1
  O  O166  1  0.499981  0.717495  0.124835  1
  O  O167  1  0.155835  0.086443  0.147476  1
  O  O168  1  0.843403  0.086788  0.147331  1
  O  O169  1  0.155857  0.086764  0.102229  1
  O  O170  1  0.844216  0.086610  0.102114  1
  O  O171  1  0.163505  0.296523  0.147090  1
  O  O172  1  0.836388  0.296459  0.147064  1
  O  O173  1  0.163402  0.296419  0.102672  1
  O  O174  1  0.836515  0.296573  0.102642  1
  O  O175  1  0.124668  0.192094  0.124918  1
  O  O176  1  0.875206  0.192168  0.124778  1
  O  O177  1  0.000000  0.103458  0.124856  1
  O  O178  1  0.000000  0.282378  0.124885  1
  O  O179  1  0.843775  0.913027  0.679556  1
  O  O180  1  0.155483  0.913392  0.679416  1
  O  O181  1  0.843780  0.913303  0.724777  1
  O  O182  1  0.156296  0.913154  0.724663  1
  O  O183  1  0.836562  0.703425  0.679975  1
  O  O184  1  0.163363  0.703387  0.679950  1
  O  O185  1  0.836460  0.703367  0.724421  1
  O  O186  1  0.163481  0.703549  0.724392  1
  O  O187  1  0.875227  0.807735  0.702223  1
  O  O188  1  0.124676  0.807805  0.702081  1
  O  O189  1  0.000000  0.896438  0.702172  1
  O  O190  1  0.000000  0.717546  0.702202  1
  O  O191  1  0.656733  0.086754  0.724592  1
  O  O192  1  0.344424  0.086550  0.724964  1
  O  O193  1  0.655353  0.086502  0.679357  1
  O  O194  1  0.343349  0.086781  0.679727  1
  O  O195  1  0.663519  0.296268  0.724333  1
  O  O196  1  0.336488  0.296539  0.724361  1
  O  O197  1  0.663366  0.296536  0.679905  1
  O  O198  1  0.336484  0.296292  0.679932  1
  O  O199  1  0.624663  0.192064  0.702018  1
  O  O200  1  0.375275  0.192084  0.702270  1
  O  O201  1  0.499966  0.103378  0.702188  1
  O  O202  1  0.499967  0.282329  0.702145  1
  O  O203  1  0.759724  0.627494  0.647407  1
  O  O204  1  0.240267  0.627517  0.647386  1
  O  O205  1  0.259281  0.627529  0.564474  1
  O  O206  1  0.740769  0.627540  0.564506  1
  O  O207  1  0.600006  0.575846  0.630805  1
  O  O208  1  0.399978  0.575843  0.630802  1
  O  O209  1  0.099939  0.574822  0.581120  1
  O  O210  1  0.900091  0.574799  0.581127  1
  O  O211  1  0.750052  0.586759  0.605960  1
  O  O212  1  0.249978  0.586772  0.605943  1
  O  O213  1  0.749987  0.500010  0.574799  1
  O  O214  1  0.750571  -0.000000  0.555426  1
  O  O215  1  0.907749  0.951663  0.640618  1
  O  O216  1  0.093295  0.952537  0.640256  1
  O  O217  1  0.407918  0.951228  0.571089  1
  O  O218  1  0.593314  0.952426  0.571713  1
  O  O219  1  0.757620  0.881013  0.642338  1
  O  O220  1  0.242370  0.881024  0.642361  1
  O  O221  1  0.257656  0.880970  0.569461  1
  O  O222  1  0.742317  0.881010  0.569563  1
  O  O223  1  0.598888  0.823057  0.629919  1
  O  O224  1  0.401074  0.823118  0.629916  1
  O  O225  1  0.098992  0.823253  0.581908  1
  O  O226  1  0.901062  0.823317  0.581933  1
  O  O227  1  0.750034  0.811312  0.605950  1
  O  O228  1  0.250011  0.811493  0.605931  1
  O  O229  1  0.745655  0.754500  0.644963  1
  O  O230  1  0.254305  0.754531  0.644934  1
  O  O231  1  0.245702  0.754472  0.566949  1
  O  O232  1  0.754368  0.754523  0.566923  1
  O  O233  1  0.907356  0.699592  0.640795  1
  O  O234  1  0.092630  0.699608  0.640777  1
  O  O235  1  0.407335  0.699387  0.571042  1
  O  O236  1  0.592764  0.699446  0.571094  1
  O  O237  1  0.000000  0.750502  0.607923  1
  O  O238  1  0.499898  0.749689  0.604036  1
  O  O239  1  0.000000  0.624666  0.613149  1
  O  O240  1  0.499989  0.623506  0.598376  1
  O  O241  1  0.000000  0.500635  0.606532  1
  O  O242  1  -0.000000  0.875785  0.613928  1
  O  O243  1  0.500080  0.875194  0.597856  1
  O  O244  1  0.249998  0.500005  0.574799  1
  O  O245  1  0.496845  0.000000  0.606102  1
  O  O246  1  0.249980  0.500008  0.637108  1
  O  O247  1  0.250579  0.000000  0.656502  1
  O  O248  1  0.997818  -0.000000  0.605747  1
  O  O249  1  0.750400  0.000000  0.656478  1
  O  O250  1  0.499992  0.499103  0.606594  1
  O  O251  1  0.240687  0.372455  0.564513  1
  O  O252  1  0.759280  0.372466  0.564490  1
  O  O253  1  0.740250  0.372458  0.647364  1
  O  O254  1  0.259798  0.372482  0.647396  1
  O  O255  1  0.400060  0.425172  0.581114  1
  O  O256  1  0.599922  0.425172  0.581111  1
  O  O257  1  0.899990  0.424137  0.630811  1
  O  O258  1  0.100032  0.424112  0.630817  1
  O  O259  1  0.250046  0.413254  0.605959  1
  O  O260  1  0.749979  0.413256  0.605942  1
  O  O261  1  0.093172  0.047890  0.571522  1
  O  O262  1  0.907901  0.048789  0.571152  1
  O  O263  1  0.593292  0.047478  0.640183  1
  O  O264  1  0.407916  0.048707  0.640803  1
  O  O265  1  0.242375  0.118979  0.569437  1
  O  O266  1  0.757598  0.118971  0.569455  1
  O  O267  1  0.742420  0.118893  0.642343  1
  O  O268  1  0.257527  0.118958  0.642448  1
  O  O269  1  0.400993  0.176614  0.581878  1
  O  O270  1  0.598944  0.176659  0.581871  1
  O  O271  1  0.901091  0.176785  0.629932  1
  O  O272  1  0.098927  0.176863  0.629961  1
  O  O273  1  0.250018  0.188268  0.605943  1
  O  O274  1  0.749997  0.188423  0.605920  1
  O  O275  1  0.254305  0.245478  0.566987  1
  O  O276  1  0.745632  0.245496  0.566957  1
  O  O277  1  0.754340  0.245418  0.644907  1
  O  O278  1  0.245687  0.245487  0.644887  1
  O  O279  1  0.092685  0.300499  0.571099  1
  O  O280  1  0.907276  0.300514  0.571078  1
  O  O281  1  0.592656  0.300286  0.640733  1
  O  O282  1  0.407406  0.300335  0.640777  1
  O  O283  1  0.000000  0.249881  0.603983  1
  O  O284  1  0.499910  0.249058  0.607966  1
  O  O285  1  0.000000  0.376164  0.598448  1
  O  O286  1  0.499986  0.374993  0.613068  1
  O  O287  1  0.000000  0.124231  0.598036  1
  O  O288  1  0.500069  0.123633  0.613728  1
  O  O289  1  0.250455  -0.000000  0.555394  1
  O  O290  1  0.749989  0.499993  0.637109  1
  O  O291  1  0.499677  0.500755  0.414094  1
  O  O292  1  0.749960  0.811522  0.413540  1
  O  O293  1  0.259197  0.627436  0.454922  1
  O  O294  1  0.740627  0.627434  0.454952  1
  O  O295  1  0.099925  0.574626  0.438338  1
  O  O296  1  0.899998  0.574756  0.438345  1
  O  O297  1  0.749934  0.586594  0.413511  1
  O  O298  1  0.249458  -0.000000  0.464070  1
  O  O299  1  0.344683  0.913357  0.486930  1
  O  O300  1  0.656495  0.913137  0.487302  1
  O  O301  1  0.343274  0.913056  0.532160  1
  O  O302  1  0.655443  0.913338  0.532531  1
  O  O303  1  0.406620  0.952531  0.447743  1
  O  O304  1  0.591988  0.951344  0.448375  1
  O  O305  1  0.257696  0.880954  0.449917  1
  O  O306  1  0.742123  0.880896  0.450014  1
  O  O307  1  0.098887  0.823277  0.437585  1
  O  O308  1  0.900913  0.823245  0.437612  1
  O  O309  1  0.245668  0.754436  0.452485  1
  O  O310  1  0.754134  0.754412  0.452518  1
  O  O311  1  0.336558  0.703212  0.487469  1
  O  O312  1  0.663541  0.703583  0.487484  1
  O  O313  1  0.336395  0.703509  0.531902  1
  O  O314  1  0.663445  0.703245  0.531928  1
  O  O315  1  0.407214  0.699326  0.448304  1
  O  O316  1  0.592572  0.699334  0.448342  1
  O  O317  1  0.499955  0.750733  0.415564  1
  O  O318  1  0.500015  0.624810  0.420611  1
  O  O319  1  0.499864  0.876126  0.421370  1
  O  O320  1  0.375209  0.807707  0.509577  1
  O  O321  1  0.624719  0.807728  0.509841  1
  O  O322  1  0.499969  0.896365  0.509762  1
  O  O323  1  0.499981  0.717495  0.509708  1
  O  O324  1  0.749568  0.000000  0.464061  1
  O  O325  1  0.249812  0.811461  0.413500  1
  O  O326  1  0.249935  0.586597  0.413494  1
  O  O327  1  0.240271  0.372371  0.454973  1
  O  O328  1  0.759508  0.372388  0.454948  1
  O  O329  1  0.399993  0.423933  0.438340  1
  O  O330  1  0.599899  0.424118  0.438328  1
  O  O331  1  0.749885  0.499877  0.444654  1
  O  O332  1  0.249920  0.413091  0.413508  1
  O  O333  1  0.155835  0.086443  0.532349  1
  O  O334  1  0.843403  0.086788  0.532204  1
  O  O335  1  0.155857  0.086764  0.487102  1
  O  O336  1  0.844216  0.086610  0.486986  1
  O  O337  1  0.092406  0.048101  0.448049  1
  O  O338  1  0.906827  0.047682  0.447876  1
  O  O339  1  0.242347  0.118817  0.449935  1
  O  O340  1  0.757428  0.118831  0.449917  1
  O  O341  1  0.401021  0.176758  0.437518  1
  O  O342  1  0.598828  0.176774  0.437507  1
  O  O343  1  0.249970  0.188491  0.413523  1
  O  O344  1  0.254263  0.245347  0.452531  1
  O  O345  1  0.745637  0.245357  0.452495  1
  O  O346  1  0.163505  0.296523  0.531963  1
  O  O347  1  0.836388  0.296459  0.531936  1
  O  O348  1  0.163402  0.296419  0.487545  1
  O  O349  1  0.836515  0.296573  0.487514  1
  O  O350  1  0.092599  0.300367  0.448381  1
  O  O351  1  0.907242  0.300442  0.448354  1
  O  O352  1  -0.000000  0.250576  0.415327  1
  O  O353  1  -0.000000  0.376717  0.421134  1
  O  O354  1  -0.000000  0.125145  0.421735  1
  O  O355  1  0.124668  0.192094  0.509791  1
  O  O356  1  0.875206  0.192168  0.509651  1
  O  O357  1  -0.000000  0.103458  0.509729  1
  O  O358  1  -0.000000  0.282378  0.509758  1
  O  O359  1  0.250145  0.499856  0.444655  1
  O  O360  1  0.503129  -0.000000  0.413576  1
  Si  Si361  1  0.499921  0.819266  0.402957  1
  Si  Si362  1  0.112376  0.730945  0.317296  1
  Si  Si363  1  0.887544  0.730877  0.317336  1
  Si  Si364  1  0.111559  0.884430  0.317192  1
  Si  Si365  1  0.888260  0.884359  0.317314  1
  Si  Si366  1  0.000000  0.946444  0.394197  1
  Si  Si367  1  0.714644  0.572287  0.388102  1
  Si  Si368  1  0.285246  0.572358  0.388082  1
  Si  Si369  1  0.814132  0.937017  0.364511  1
  Si  Si370  1  0.185408  0.936847  0.364439  1
  Si  Si371  1  0.712785  0.817657  0.388130  1
  Si  Si372  1  0.287084  0.817679  0.388102  1
  Si  Si373  1  0.808848  0.695111  0.365660  1
  Si  Si374  1  0.190997  0.695161  0.365631  1
  Si  Si375  1  -0.000000  0.693189  0.393695  1
  Si  Si376  1  0.499928  0.569323  0.401716  1
  Si  Si377  1  0.387556  0.268940  0.317289  1
  Si  Si378  1  0.785263  0.427291  0.388071  1
  Si  Si379  1  0.214649  0.427355  0.388089  1
  Si  Si380  1  0.685555  0.063032  0.364387  1
  Si  Si381  1  0.314237  0.062693  0.364643  1
  Si  Si382  1  0.787162  0.182154  0.388095  1
  Si  Si383  1  0.212673  0.182189  0.388129  1
  Si  Si384  1  0.691033  0.304594  0.365572  1
  Si  Si385  1  0.308829  0.304633  0.365602  1
  Si  Si386  1  0.499970  0.307461  0.393599  1
  Si  Si387  1  -0.000000  0.430729  0.401660  1
  Si  Si388  1  0.500174  0.054156  0.394232  1
  Si  Si389  1  0.000000  0.181435  0.403050  1
  Si  Si390  1  0.611617  0.115435  0.317154  1
  Si  Si391  1  0.388319  0.115456  0.317433  1
  Si  Si392  1  0.612374  0.268922  0.317237  1
  Si  Si393  1  0.499984  0.818645  0.231547  1
  Si  Si394  1  -0.000000  0.819183  0.210526  1
  Si  Si395  1  0.499760  0.945703  0.201804  1
  Si  Si396  1  0.714722  0.572532  0.246501  1
  Si  Si397  1  0.285260  0.572537  0.246487  1
  Si  Si398  1  0.214638  0.572471  0.195662  1
  Si  Si399  1  0.785392  0.572455  0.195679  1
  Si  Si400  1  0.814529  0.936913  0.270070  1
  Si  Si401  1  0.185673  0.937208  0.269983  1
  Si  Si402  1  0.314443  0.936845  0.171947  1
  Si  Si403  1  0.685646  0.937211  0.172207  1
  Si  Si404  1  0.712765  0.817663  0.246473  1
  Si  Si405  1  0.287195  0.817730  0.246463  1
  Si  Si406  1  0.212862  0.817712  0.195650  1
  Si  Si407  1  0.787205  0.817691  0.195674  1
  Si  Si408  1  0.808976  0.695238  0.268988  1
  Si  Si409  1  0.191016  0.695260  0.268964  1
  Si  Si410  1  0.308848  0.695181  0.173142  1
  Si  Si411  1  0.691185  0.695170  0.173167  1
  Si  Si412  1  0.000000  0.692841  0.240919  1
  Si  Si413  1  0.499981  0.692284  0.201154  1
  Si  Si414  1  0.000000  0.569280  0.209334  1
  Si  Si415  1  0.499997  0.569350  0.232916  1
  Si  Si416  1  0.000000  0.946183  0.240301  1
  Si  Si417  1  0.499748  0.053598  0.240326  1
  Si  Si418  1  0.499975  0.180548  0.210469  1
  Si  Si419  1  -0.000000  0.181083  0.231587  1
  Si  Si420  1  0.285358  0.427550  0.195676  1
  Si  Si421  1  0.714621  0.427548  0.195662  1
  Si  Si422  1  0.785272  0.427468  0.246486  1
  Si  Si423  1  0.214749  0.427461  0.246502  1
  Si  Si424  1  0.185722  0.062783  0.172077  1
  Si  Si425  1  0.814489  0.063066  0.171988  1
  Si  Si426  1  0.685613  0.062707  0.269932  1
  Si  Si427  1  0.314451  0.063090  0.270190  1
  Si  Si428  1  0.287127  0.182181  0.195654  1
  Si  Si429  1  0.712808  0.182228  0.195641  1
  Si  Si430  1  0.787217  0.182198  0.246450  1
  Si  Si431  1  0.212812  0.182197  0.246478  1
  Si  Si432  1  0.191152  0.304787  0.173197  1
  Si  Si433  1  0.808812  0.304795  0.173171  1
  Si  Si434  1  0.691029  0.304693  0.268923  1
  Si  Si435  1  0.308990  0.304692  0.268950  1
  Si  Si436  1  0.000000  0.307470  0.201183  1
  Si  Si437  1  0.499973  0.306900  0.240880  1
  Si  Si438  1  0.000000  0.430483  0.232923  1
  Si  Si439  1  0.499995  0.430561  0.209326  1
  Si  Si440  1  0.000000  0.054067  0.201769  1
  Si  Si441  1  0.388327  0.884332  0.124723  1
  Si  Si442  1  0.611618  0.884354  0.125003  1
  Si  Si443  1  0.387552  0.730849  0.124803  1
  Si  Si444  1  0.612406  0.730871  0.124851  1
  Si  Si445  1  0.112367  0.268961  0.124894  1
  Si  Si446  1  0.887535  0.269023  0.124853  1
  Si  Si447  1  0.111547  0.115470  0.124875  1
  Si  Si448  1  0.888254  0.115539  0.124753  1
  Si  Si449  1  0.112376  0.730945  0.702168  1
  Si  Si450  1  0.887544  0.730877  0.702208  1
  Si  Si451  1  0.111559  0.884430  0.702065  1
  Si  Si452  1  0.888260  0.884359  0.702187  1
  Si  Si453  1  0.387556  0.268940  0.702162  1
  Si  Si454  1  0.611617  0.115435  0.702027  1
  Si  Si455  1  0.388319  0.115456  0.702306  1
  Si  Si456  1  0.612374  0.268922  0.702110  1
  Si  Si457  1  0.499984  0.818645  0.616420  1
  Si  Si458  1  -0.000000  0.819183  0.595399  1
  Si  Si459  1  0.499760  0.945703  0.586677  1
  Si  Si460  1  0.714722  0.572532  0.631373  1
  Si  Si461  1  0.285260  0.572537  0.631360  1
  Si  Si462  1  0.214638  0.572471  0.580535  1
  Si  Si463  1  0.785392  0.572455  0.580552  1
  Si  Si464  1  0.814529  0.936913  0.654943  1
  Si  Si465  1  0.185673  0.937208  0.654856  1
  Si  Si466  1  0.314443  0.936845  0.556820  1
  Si  Si467  1  0.685646  0.937211  0.557080  1
  Si  Si468  1  0.712765  0.817663  0.631346  1
  Si  Si469  1  0.287195  0.817730  0.631336  1
  Si  Si470  1  0.212862  0.817712  0.580522  1
  Si  Si471  1  0.787205  0.817691  0.580547  1
  Si  Si472  1  0.808976  0.695238  0.653861  1
  Si  Si473  1  0.191016  0.695260  0.653837  1
  Si  Si474  1  0.308848  0.695181  0.558015  1
  Si  Si475  1  0.691185  0.695170  0.558040  1
  Si  Si476  1  0.000000  0.692841  0.625792  1
  Si  Si477  1  0.499981  0.692284  0.586027  1
  Si  Si478  1  -0.000000  0.569280  0.594207  1
  Si  Si479  1  0.499997  0.569350  0.617789  1
  Si  Si480  1  -0.000000  0.946183  0.625173  1
  Si  Si481  1  0.499748  0.053598  0.625199  1
  Si  Si482  1  0.499975  0.180548  0.595342  1
  Si  Si483  1  -0.000000  0.181083  0.616460  1
  Si  Si484  1  0.285358  0.427550  0.580549  1
  Si  Si485  1  0.714621  0.427548  0.580535  1
  Si  Si486  1  0.785272  0.427468  0.631359  1
  Si  Si487  1  0.214749  0.427461  0.631375  1
  Si  Si488  1  0.185722  0.062783  0.556949  1
  Si  Si489  1  0.814489  0.063066  0.556861  1
  Si  Si490  1  0.685613  0.062707  0.654805  1
  Si  Si491  1  0.314451  0.063090  0.655063  1
  Si  Si492  1  0.287127  0.182181  0.580527  1
  Si  Si493  1  0.712808  0.182228  0.580514  1
  Si  Si494  1  0.787217  0.182198  0.631323  1
  Si  Si495  1  0.212812  0.182197  0.631351  1
  Si  Si496  1  0.191152  0.304787  0.558070  1
  Si  Si497  1  0.808812  0.304795  0.558044  1
  Si  Si498  1  0.691029  0.304693  0.653796  1
  Si  Si499  1  0.308990  0.304692  0.653823  1
  Si  Si500  1  0.000000  0.307470  0.586056  1
  Si  Si501  1  0.499973  0.306900  0.625753  1
  Si  Si502  1  -0.000000  0.430483  0.617796  1
  Si  Si503  1  0.499995  0.430561  0.594199  1
  Si  Si504  1  0.000000  0.054067  0.586642  1
  Si  Si505  1  0.214632  0.572274  0.438900  1
  Si  Si506  1  0.785293  0.572327  0.438917  1
  Si  Si507  1  0.314382  0.937180  0.462384  1
  Si  Si508  1  0.685413  0.936833  0.462639  1
  Si  Si509  1  0.212768  0.817672  0.438917  1
  Si  Si510  1  0.787030  0.817673  0.438959  1
  Si  Si511  1  0.308820  0.695072  0.461362  1
  Si  Si512  1  0.691001  0.695080  0.461388  1
  Si  Si513  1  0.499942  0.692842  0.433332  1
  Si  Si514  1  -0.000000  0.569502  0.425258  1
  Si  Si515  1  0.500176  0.946284  0.432764  1
  Si  Si516  1  -0.000000  0.819548  0.424127  1
  Si  Si517  1  0.388327  0.884332  0.509595  1
  Si  Si518  1  0.611618  0.884354  0.509876  1
  Si  Si519  1  0.387552  0.730849  0.509675  1
  Si  Si520  1  0.612406  0.730871  0.509724  1
  Si  Si521  1  0.112367  0.268961  0.509767  1
  Si  Si522  1  0.887535  0.269023  0.509726  1
  Si  Si523  1  0.285287  0.427287  0.438923  1
  Si  Si524  1  0.714603  0.427353  0.438903  1
  Si  Si525  1  0.185327  0.062896  0.462499  1
  Si  Si526  1  0.814217  0.062719  0.462425  1
  Si  Si527  1  0.287145  0.182161  0.438928  1
  Si  Si528  1  0.712704  0.182167  0.438901  1
  Si  Si529  1  0.191021  0.304635  0.461437  1
  Si  Si530  1  0.808814  0.304673  0.461406  1
  Si  Si531  1  0.000000  0.307810  0.433411  1
  Si  Si532  1  0.499927  0.430522  0.425301  1
  Si  Si533  1  0.000000  0.054333  0.432723  1
  Si  Si534  1  0.499911  0.181156  0.424019  1
  Si  Si535  1  0.111547  0.115470  0.509748  1
  Si  Si536  1  0.888254  0.115539  0.509625  1
  H  H537  1  0.344683  0.913357  0.086489  1
  H  H538  1  0.656495  0.913137  0.086861  1
  H  H539  1  0.336558  0.703212  0.087028  1
  H  H540  1  0.663541  0.703583  0.087043  1
  H  H541  1  0.155857  0.086764  0.086661  1
  H  H542  1  0.844216  0.086610  0.086545  1
  H  H543  1  0.163402  0.296419  0.087104  1
  H  H544  1  0.836515  0.296573  0.087074  1
  H  H545  1  0.843780  0.913303  0.740345  1
  H  H546  1  0.156296  0.913154  0.740231  1
  H  H547  1  0.836460  0.703367  0.739989  1
  H  H548  1  0.163481  0.703549  0.739960  1
  H  H549  1  0.656733  0.086754  0.740160  1
  H  H550  1  0.344424  0.086550  0.740532  1
  H  H551  1  0.663519  0.296268  0.739901  1
  H  H552  1  0.336488  0.296539  0.739929  1
