# generated using pymatgen
data_Si15H2O31
_symmetry_space_group_name_H-M   'P 1'
_cell_length_a   7.50249860
_cell_length_b   18.12388572
_cell_length_c   49.77130927
_cell_angle_alpha   90.00000000
_cell_angle_beta   90.00000000
_cell_angle_gamma   90.00000000
_symmetry_Int_Tables_number   1
_chemical_formula_structural   Si15H2O31
_chemical_formula_sum   'Si60 H8 O124'
_cell_volume   6767.62527082
_cell_formula_units_Z   4
loop_
 _symmetry_equiv_pos_site_id
 _symmetry_equiv_pos_as_xyz
  1  'x, y, z'
loop_
 _atom_site_type_symbol
 _atom_site_label
 _atom_site_symmetry_multiplicity
 _atom_site_fract_x
 _atom_site_fract_y
 _atom_site_fract_z
 _atom_site_occupancy
  O  O1  1  0.250030  0.884875  0.118567  1
  O  O2  1  0.250047  0.615036  0.118542  1
  O  O3  1  0.250077  0.749927  0.136813  1
  O  O4  1  0.580780  0.151808  0.636877  1
  O  O5  1  0.919277  0.151807  0.636876  1
  O  O6  1  0.580777  0.348054  0.636869  1
  O  O7  1  0.919297  0.348051  0.636864  1
  O  O8  1  0.419339  0.848043  0.162212  1
  O  O9  1  0.080818  0.848039  0.162217  1
  O  O10  1  0.419346  0.651794  0.162205  1
  O  O11  1  0.080847  0.651794  0.162210  1
  O  O12  1  0.750037  0.115037  0.166558  1
  O  O13  1  0.750079  0.384891  0.166532  1
  O  O14  1  0.250030  0.884875  0.632548  1
  O  O15  1  0.250047  0.615036  0.632523  1
  O  O16  1  0.580875  0.029471  0.200012  1
  O  O17  1  0.919195  0.029469  0.200012  1
  O  O18  1  0.580966  0.470387  0.200010  1
  O  O19  1  0.919317  0.470365  0.200006  1
  O  O20  1  0.419160  0.970381  0.599076  1
  O  O21  1  0.080816  0.970373  0.599079  1
  O  O22  1  0.419234  0.529492  0.599069  1
  O  O23  1  0.080915  0.529472  0.599065  1
  O  O24  1  0.750031  0.138867  0.218229  1
  O  O25  1  0.750094  0.360881  0.218179  1
  O  O26  1  0.249992  0.860888  0.580900  1
  O  O27  1  0.250025  0.638882  0.580851  1
  O  O28  1  0.579923  0.128237  0.261818  1
  O  O29  1  0.920150  0.128239  0.261816  1
  O  O30  1  0.580070  0.371475  0.261762  1
  O  O31  1  0.920305  0.371425  0.261745  1
  O  O32  1  0.420093  0.871472  0.537325  1
  O  O33  1  0.079866  0.871468  0.537325  1
  O  O34  1  0.420173  0.628257  0.537268  1
  O  O35  1  0.079945  0.628239  0.537257  1
  O  O36  1  0.750037  0.249848  0.251434  1
  O  O37  1  0.249997  0.749862  0.547643  1
  O  O38  1  0.250026  0.156817  0.619004  1
  O  O39  1  0.250037  0.343042  0.618993  1
  O  O40  1  0.750077  0.843029  0.180088  1
  O  O41  1  0.750101  0.656805  0.180081  1
  O  O42  1  0.000000  0.105529  0.589691  1
  O  O43  1  0.500261  0.105536  0.589691  1
  O  O44  1  0.000000  0.394321  0.589680  1
  O  O45  1  0.500321  0.394332  0.589687  1
  O  O46  1  0.000000  0.894315  0.209399  1
  O  O47  1  0.499791  0.894317  0.209396  1
  O  O48  1  0.000000  0.605518  0.209396  1
  O  O49  1  0.499862  0.605534  0.209396  1
  O  O50  1  0.018213  0.249922  0.603793  1
  O  O51  1  0.481856  0.249929  0.603795  1
  O  O52  1  0.981905  0.749913  0.195290  1
  O  O53  1  0.518263  0.749917  0.195286  1
  O  O54  1  0.018990  -0.000000  0.247582  1
  O  O55  1  0.481082  -0.000000  0.247581  1
  O  O56  1  0.019072  0.499087  0.247575  1
  O  O57  1  0.481228  0.499118  0.247581  1
  O  O58  1  0.981063  0.000000  0.551511  1
  O  O59  1  0.518909  0.000000  0.551509  1
  O  O60  1  0.981107  0.500678  0.551494  1
  O  O61  1  0.519014  0.500686  0.551502  1
  O  O62  1  0.250040  0.989868  0.210643  1
  O  O63  1  0.250144  0.509990  0.210645  1
  O  O64  1  0.749991  0.009995  0.588443  1
  O  O65  1  0.750078  0.489880  0.588437  1
  O  O66  1  0.250033  0.082693  0.270052  1
  O  O67  1  0.250181  0.416957  0.269983  1
  O  O68  1  0.749977  0.916978  0.529102  1
  O  O69  1  0.750055  0.582700  0.529026  1
  O  O70  1  0.992415  0.038809  0.299754  1
  O  O71  1  0.507615  0.038797  0.299754  1
  O  O72  1  0.992663  0.460573  0.299739  1
  O  O73  1  0.507559  0.460635  0.299754  1
  O  O74  1  0.007388  0.960656  0.499339  1
  O  O75  1  0.492550  0.960651  0.499338  1
  O  O76  1  0.007601  0.538805  0.499318  1
  O  O77  1  0.492374  0.538805  0.499335  1
  O  O78  1  0.078518  0.123913  0.338194  1
  O  O79  1  0.421497  0.123887  0.338197  1
  O  O80  1  0.078761  0.375189  0.338099  1
  O  O81  1  0.421471  0.375237  0.338110  1
  O  O82  1  0.921301  0.875275  0.460981  1
  O  O83  1  0.578608  0.875269  0.460977  1
  O  O84  1  0.921491  0.623935  0.460889  1
  O  O85  1  0.578501  0.623929  0.460914  1
  O  O86  1  0.250127  0.249491  0.341763  1
  O  O87  1  0.749971  0.749536  0.457335  1
  O  O88  1  0.249988  0.157396  0.379861  1
  O  O89  1  0.250093  0.342154  0.379721  1
  O  O90  1  0.749986  0.842178  0.419368  1
  O  O91  1  0.749770  0.657420  0.419243  1
  O  O92  1  0.080178  0.122216  0.421065  1
  O  O93  1  0.419704  0.122219  0.421072  1
  O  O94  1  0.079512  0.378183  0.420697  1
  O  O95  1  0.420463  0.378164  0.420718  1
  O  O96  1  0.920402  0.878158  0.378371  1
  O  O97  1  0.579456  0.878159  0.378382  1
  O  O98  1  0.919890  0.622313  0.378067  1
  O  O99  1  0.580321  0.622176  0.378012  1
  O  O100  1  0.249944  0.250207  0.417742  1
  O  O101  1  0.749881  0.750201  0.381356  1
  O  O102  1  0.006004  0.990482  0.349096  1
  O  O103  1  0.493969  0.990463  0.349097  1
  O  O104  1  0.003325  0.508485  0.349117  1
  O  O105  1  0.497061  0.508545  0.349146  1
  O  O106  1  0.996939  0.008578  0.449943  1
  O  O107  1  0.502970  0.008572  0.449944  1
  O  O108  1  0.993982  0.490519  0.449965  1
  O  O109  1  0.506065  0.490494  0.449990  1
  O  O110  1  0.750000  0.073382  0.333869  1
  O  O111  1  0.750111  0.425080  0.333674  1
  O  O112  1  0.249955  0.925107  0.465420  1
  O  O113  1  0.249999  0.573395  0.465212  1
  O  O114  1  0.249940  0.930946  0.377967  1
  O  O115  1  0.250002  0.571227  0.376236  1
  O  O116  1  0.749946  0.071211  0.422837  1
  O  O117  1  0.749996  0.430977  0.421103  1
  O  O118  1  0.995152  0.001185  0.399363  1
  O  O119  1  0.504704  0.001200  0.399363  1
  O  O120  1  0.004781  0.501197  0.399693  1
  O  O121  1  0.495140  0.501188  0.399724  1
  O  O122  1  0.750037  0.115037  0.680539  1
  O  O123  1  0.750079  0.384891  0.680513  1
  O  O124  1  0.750046  0.249940  0.662271  1
  Si  Si125  1  0.045265  0.165548  0.611908  1
  Si  Si126  1  0.454787  0.165554  0.611910  1
  Si  Si127  1  0.045280  0.334304  0.611897  1
  Si  Si128  1  0.454800  0.334310  0.611901  1
  Si  Si129  1  0.954834  0.834292  0.187183  1
  Si  Si130  1  0.545314  0.834298  0.187180  1
  Si  Si131  1  0.954859  0.665536  0.187177  1
  Si  Si132  1  0.545337  0.665542  0.187173  1
  Si  Si133  1  0.045355  0.977384  0.216974  1
  Si  Si134  1  0.454726  0.977381  0.216973  1
  Si  Si135  1  0.045444  0.522456  0.216971  1
  Si  Si136  1  0.454833  0.522471  0.216977  1
  Si  Si137  1  0.954688  0.022467  0.582115  1
  Si  Si138  1  0.545298  0.022471  0.582113  1
  Si  Si139  1  0.954757  0.477389  0.582103  1
  Si  Si140  1  0.545386  0.477396  0.582110  1
  Si  Si141  1  0.044938  0.061960  0.270196  1
  Si  Si142  1  0.455127  0.061957  0.270196  1
  Si  Si143  1  0.045082  0.437683  0.270148  1
  Si  Si144  1  0.455257  0.437725  0.270160  1
  Si  Si145  1  0.955065  0.937727  0.528931  1
  Si  Si146  1  0.544891  0.937730  0.528929  1
  Si  Si147  1  0.955147  0.561961  0.528879  1
  Si  Si148  1  0.544954  0.561973  0.528889  1
  Si  Si149  1  0.955289  0.056931  0.330335  1
  Si  Si150  1  0.544719  0.056909  0.330336  1
  Si  Si151  1  0.955187  0.442036  0.330279  1
  Si  Si152  1  0.545047  0.442089  0.330294  1
  Si  Si153  1  0.044891  0.942121  0.468798  1
  Si  Si154  1  0.455022  0.942114  0.468798  1
  Si  Si155  1  0.044708  0.556941  0.468738  1
  Si  Si156  1  0.455276  0.556929  0.468753  1
  Si  Si157  1  0.044713  0.947826  0.375908  1
  Si  Si158  1  0.455168  0.947828  0.375911  1
  Si  Si159  1  0.044961  0.552972  0.375383  1
  Si  Si160  1  0.455016  0.552935  0.375405  1
  Si  Si161  1  0.954964  0.052948  0.423677  1
  Si  Si162  1  0.544927  0.052951  0.423679  1
  Si  Si163  1  0.955232  0.447865  0.423153  1
  Si  Si164  1  0.544762  0.447839  0.423177  1
  Si  Si165  1  0.750031  0.165174  0.655026  1
  Si  Si166  1  0.750049  0.334699  0.655014  1
  Si  Si167  1  0.250068  0.834687  0.144067  1
  Si  Si168  1  0.250085  0.665162  0.144058  1
  Si  Si169  1  0.750036  0.079351  0.195109  1
  Si  Si170  1  0.750117  0.420511  0.195092  1
  Si  Si171  1  0.249998  0.920507  0.603990  1
  Si  Si172  1  0.250054  0.579363  0.603970  1
  Si  Si173  1  0.750033  0.164139  0.248564  1
  Si  Si174  1  0.750123  0.335542  0.248507  1
  Si  Si175  1  0.249983  0.835556  0.550570  1
  Si  Si176  1  0.250029  0.664152  0.550515  1
  Si  Si177  1  0.250025  0.164630  0.348699  1
  Si  Si178  1  0.250135  0.334414  0.348591  1
  Si  Si179  1  0.749963  0.834456  0.450499  1
  Si  Si180  1  0.749954  0.664669  0.450404  1
  Si  Si181  1  0.249948  0.165324  0.411056  1
  Si  Si182  1  0.249999  0.335021  0.410928  1
  Si  Si183  1  0.749938  0.835018  0.388162  1
  Si  Si184  1  0.749951  0.665325  0.388050  1
  H  H185  1  0.250030  0.884875  0.100485  1
  H  H186  1  0.250047  0.615036  0.100459  1
  H  H187  1  0.750037  0.115037  0.148475  1
  H  H188  1  0.750079  0.384891  0.148449  1
  H  H189  1  0.250030  0.884875  0.650631  1
  H  H190  1  0.250047  0.615036  0.650606  1
  H  H191  1  0.750037  0.115037  0.698622  1
  H  H192  1  0.750079  0.384891  0.698596  1
