# generated using pymatgen
data_Si9H2O19
_symmetry_space_group_name_H-M   'P 1'
_cell_length_a   12.82938429
_cell_length_b   15.31141979
_cell_length_c   38.82685539
_cell_angle_alpha   90.00000000
_cell_angle_beta   120.00000000
_cell_angle_gamma   90.00000000
_symmetry_Int_Tables_number   1
_chemical_formula_structural   Si9H2O19
_chemical_formula_sum   'Si36 H8 O76'
_cell_volume   6605.17194554
_cell_formula_units_Z   4
loop_
 _symmetry_equiv_pos_site_id
 _symmetry_equiv_pos_as_xyz
  1  'x, y, z'
loop_
 _atom_site_type_symbol
 _atom_site_label
 _atom_site_symmetry_multiplicity
 _atom_site_fract_x
 _atom_site_fract_y
 _atom_site_fract_z
 _atom_site_occupancy
  O  O1  1  0.542833  0.250080  0.171879  1
  O  O2  1  0.913814  0.250080  0.171879  1
  O  O3  1  0.122802  0.121308  0.310655  1
  O  O4  1  0.753856  0.121308  0.310646  1
  O  O5  1  0.684867  0.166474  0.237001  1
  O  O6  1  0.968911  0.166475  0.237006  1
  O  O7  1  0.894868  0.109522  0.281928  1
  O  O8  1  0.772675  0.250080  0.201179  1
  O  O9  1  0.000000  0.000000  0.261358  1
  O  O10  1  0.727626  -0.000000  0.261349  1
  O  O11  1  0.876853  0.621336  0.270025  1
  O  O12  1  0.122802  0.378852  0.310655  1
  O  O13  1  0.753856  0.378853  0.310646  1
  O  O14  1  0.727626  0.500098  0.261349  1
  O  O15  1  0.000000  0.500098  0.261358  1
  O  O16  1  0.789969  0.609536  0.316630  1
  O  O17  1  0.104792  0.609536  0.316640  1
  O  O18  1  0.894868  0.390639  0.281928  1
  O  O19  1  0.653956  0.666490  0.247250  1
  O  O20  1  0.314823  0.666481  0.341111  1
  O  O21  1  0.968911  0.333685  0.237006  1
  O  O22  1  0.684867  0.333687  0.237001  1
  O  O23  1  0.030835  0.666488  0.247261  1
  O  O24  1  0.654014  0.666480  0.341106  1
  O  O25  1  0.876852  0.878825  0.270025  1
  O  O26  1  0.654014  0.833681  0.341106  1
  O  O27  1  0.030835  0.833673  0.247261  1
  O  O28  1  0.653956  0.833671  0.247250  1
  O  O29  1  0.314823  0.833680  0.341111  1
  O  O30  1  0.789969  0.890625  0.316630  1
  O  O31  1  0.104792  0.890625  0.316640  1
  O  O32  1  0.545530  0.750080  0.276274  1
  O  O33  1  0.227096  0.750080  0.276278  1
  O  O34  1  0.456940  0.750080  0.322950  1
  O  O35  1  0.456852  0.750080  0.200329  1
  O  O36  1  0.085872  0.750080  0.200328  1
  O  O37  1  0.345671  0.166480  0.361497  1
  O  O38  1  0.684863  0.166482  0.361491  1
  O  O39  1  0.542746  0.250080  0.379653  1
  O  O40  1  0.209717  0.109536  0.385973  1
  O  O41  1  0.894895  0.109536  0.385963  1
  O  O42  1  0.727651  0.000000  0.351298  1
  O  O43  1  0.272035  0.000000  0.351305  1
  O  O44  1  0.122834  0.121335  0.432578  1
  O  O45  1  0.000000  0.000000  0.441245  1
  O  O46  1  0.272060  0.000000  0.441253  1
  O  O47  1  0.345729  0.166489  0.455353  1
  O  O48  1  0.454156  0.250080  0.426329  1
  O  O49  1  0.968850  0.166488  0.455342  1
  O  O50  1  0.772589  0.250080  0.426324  1
  O  O51  1  0.542833  0.250080  0.502274  1
  O  O52  1  0.913814  0.250080  0.502274  1
  O  O53  1  0.272035  0.500081  0.351305  1
  O  O54  1  0.727651  0.500079  0.351298  1
  O  O55  1  0.684863  0.333679  0.361491  1
  O  O56  1  0.209716  0.390625  0.385973  1
  O  O57  1  0.894895  0.390625  0.385963  1
  O  O58  1  0.345672  0.333681  0.361497  1
  O  O59  1  0.345730  0.333671  0.455353  1
  O  O60  1  0.968850  0.333673  0.455342  1
  O  O61  1  0.104818  0.609522  0.420675  1
  O  O62  1  0.000000  0.500062  0.441245  1
  O  O63  1  0.272060  0.500063  0.441254  1
  O  O64  1  0.876885  0.621308  0.391948  1
  O  O65  1  0.245831  0.621307  0.391957  1
  O  O66  1  0.122833  0.378826  0.432578  1
  O  O67  1  0.030775  0.666475  0.465597  1
  O  O68  1  0.314819  0.666474  0.465601  1
  O  O69  1  0.227012  0.750080  0.501424  1
  O  O70  1  0.876885  0.878853  0.391948  1
  O  O71  1  0.245831  0.878853  0.391957  1
  O  O72  1  0.314819  0.833687  0.465602  1
  O  O73  1  0.030775  0.833686  0.465597  1
  O  O74  1  0.104818  0.890639  0.420675  1
  O  O75  1  0.456852  0.750080  0.530724  1
  O  O76  1  0.085872  0.750080  0.530724  1
  Si  Si77  1  0.000000  0.100212  0.271900  1
  Si  Si78  1  0.667372  0.250080  0.210900  1
  Si  Si79  1  0.907403  0.250081  0.210906  1
  Si  Si80  1  0.759912  0.100210  0.271894  1
  Si  Si81  1  0.759912  0.399951  0.271894  1
  Si  Si82  1  -0.000000  0.399949  0.271900  1
  Si  Si83  1  0.000000  0.600234  0.272043  1
  Si  Si84  1  0.759583  0.600237  0.272034  1
  Si  Si85  1  0.332369  0.750081  0.320800  1
  Si  Si86  1  0.000000  0.899926  0.272043  1
  Si  Si87  1  0.759583  0.899924  0.272034  1
  Si  Si88  1  0.574952  0.750081  0.241478  1
  Si  Si89  1  0.575001  0.750081  0.320796  1
  Si  Si90  1  0.092361  0.750080  0.241486  1
  Si  Si91  1  0.240074  0.100222  0.351411  1
  Si  Si92  1  0.759934  0.100224  0.351403  1
  Si  Si93  1  0.424686  0.250081  0.381807  1
  Si  Si94  1  0.667315  0.250080  0.381802  1
  Si  Si95  1  0.000000  0.100234  0.430559  1
  Si  Si96  1  0.907324  0.250081  0.461117  1
  Si  Si97  1  0.424735  0.250081  0.461125  1
  Si  Si98  1  0.240103  0.100237  0.430569  1
  Si  Si99  1  0.759934  0.399936  0.351404  1
  Si  Si100  1  0.240074  0.399938  0.351411  1
  Si  Si101  1  0.759612  0.600222  0.351192  1
  Si  Si102  1  0.239753  0.600224  0.351199  1
  Si  Si103  1  0.000000  0.600212  0.430702  1
  Si  Si104  1  0.000000  0.399926  0.430560  1
  Si  Si105  1  0.239774  0.600210  0.430708  1
  Si  Si106  1  0.240103  0.399924  0.430569  1
  Si  Si107  1  0.239753  0.899937  0.351199  1
  Si  Si108  1  0.759612  0.899939  0.351192  1
  Si  Si109  1  0.092283  0.750080  0.491697  1
  Si  Si110  1  0.239774  0.899951  0.430708  1
  Si  Si111  1  0.332315  0.750081  0.491703  1
  Si  Si112  1  0.000000  0.899949  0.430702  1
  H  H113  1  0.542833  0.250080  0.148699  1
  H  H114  1  0.913814  0.250080  0.148699  1
  H  H115  1  0.456852  0.750080  0.177149  1
  H  H116  1  0.085872  0.750080  0.177148  1
  H  H117  1  0.542833  0.250080  0.525454  1
  H  H118  1  0.913814  0.250080  0.525454  1
  H  H119  1  0.456852  0.750080  0.553904  1
  H  H120  1  0.085872  0.750080  0.553904  1
