# generated using pymatgen
data_Si8H2O17
_symmetry_space_group_name_H-M   'P 1'
_cell_length_a   20.93009487
_cell_length_b   8.49563914
_cell_length_c   38.64361487
_cell_angle_alpha   90.00000000
_cell_angle_beta   120.00000000
_cell_angle_gamma   90.00000000
_symmetry_Int_Tables_number   1
_chemical_formula_structural   Si8H2O17
_chemical_formula_sum   'Si32 H8 O68'
_cell_volume   5950.80378923
_cell_formula_units_Z   4
loop_
 _symmetry_equiv_pos_site_id
 _symmetry_equiv_pos_as_xyz
  1  'x, y, z'
loop_
 _atom_site_type_symbol
 _atom_site_label
 _atom_site_symmetry_multiplicity
 _atom_site_fract_x
 _atom_site_fract_y
 _atom_site_fract_z
 _atom_site_occupancy
  O  O1  1  0.075049  0.844307  0.473218  1
  O  O2  1  0.273531  0.844310  0.268661  1
  O  O3  1  0.924806  0.344304  0.227976  1
  O  O4  1  0.726323  0.344299  0.432529  1
  O  O5  1  0.075046  0.844302  0.268662  1
  O  O6  1  0.651203  0.844298  0.473218  1
  O  O7  1  0.924806  0.344307  0.432530  1
  O  O8  1  0.348655  0.344313  0.227976  1
  O  O9  1  0.171464  0.040616  0.528499  1
  O  O10  1  0.656850  0.040605  0.528498  1
  O  O11  1  0.171464  0.040615  0.265601  1
  O  O12  1  0.828388  0.540605  0.172694  1
  O  O13  1  0.343003  0.540616  0.172694  1
  O  O14  1  0.828391  0.540605  0.435590  1
  O  O15  1  0.145349  0.049819  0.456647  1
  O  O16  1  0.304123  0.049829  0.323309  1
  O  O17  1  0.854503  0.549824  0.244546  1
  O  O18  1  0.695729  0.549817  0.377882  1
  O  O19  1  0.145350  0.049825  0.323310  1
  O  O20  1  0.550306  0.049809  0.456646  1
  O  O21  1  0.854506  0.549820  0.377883  1
  O  O22  1  0.449549  0.549831  0.244545  1
  O  O23  1  0.039574  0.136467  0.465254  1
  O  O24  1  0.288232  0.136475  0.257411  1
  O  O25  1  0.960280  0.636465  0.235937  1
  O  O26  1  0.711622  0.636456  0.443781  1
  O  O27  1  0.039571  0.136469  0.257411  1
  O  O28  1  0.671973  0.136459  0.465254  1
  O  O29  1  0.960280  0.636463  0.443781  1
  O  O30  1  0.327880  0.636471  0.235937  1
  O  O31  1  0.269425  0.172391  0.475441  1
  O  O32  1  0.460931  0.172377  0.475440  1
  O  O33  1  0.269422  0.172393  0.371716  1
  O  O34  1  0.730431  0.672396  0.225750  1
  O  O35  1  0.538920  0.672408  0.225750  1
  O  O36  1  0.730429  0.672393  0.329476  1
  O  O37  1  0.179697  0.113035  0.399279  1
  O  O38  1  0.410039  0.113031  0.399278  1
  O  O39  1  0.820154  0.613037  0.301911  1
  O  O40  1  0.589813  0.613039  0.301911  1
  O  O41  1  0.147728  0.326750  0.434183  1
  O  O42  1  0.345597  0.326758  0.347060  1
  O  O43  1  0.852126  0.826749  0.267009  1
  O  O44  1  0.654255  0.826742  0.354131  1
  O  O45  1  0.147727  0.326750  0.347060  1
  O  O46  1  0.506453  0.326737  0.434183  1
  O  O47  1  0.852127  0.826749  0.354131  1
  O  O48  1  0.493400  0.826760  0.267009  1
  O  O49  1  0.928725  0.083718  0.394891  1
  O  O50  1  0.418147  0.083727  0.267738  1
  O  O51  1  0.071130  0.583718  0.306300  1
  O  O52  1  0.581713  0.583713  0.433459  1
  O  O53  1  0.928724  0.083720  0.267736  1
  O  O54  1  0.652913  0.083710  0.394892  1
  O  O55  1  0.071132  0.583717  0.433458  1
  O  O56  1  0.346940  0.583728  0.306301  1
  O  O57  1  0.013547  0.317654  0.407675  1
  O  O58  1  0.394540  0.317665  0.300894  1
  O  O59  1  0.986308  0.817649  0.293516  1
  O  O60  1  0.605314  0.817640  0.400300  1
  O  O61  1  0.013545  0.317653  0.300893  1
  O  O62  1  0.591694  0.317644  0.407675  1
  O  O63  1  0.986307  0.817653  0.400299  1
  O  O64  1  0.408160  0.817659  0.293517  1
  O  O65  1  0.062949  0.466344  0.367663  1
  O  O66  1  0.468413  0.466344  0.367663  1
  O  O67  1  0.936907  0.966336  0.333530  1
  O  O68  1  0.531436  0.966337  0.333530  1
  Si  Si69  1  0.108159  0.018085  0.483231  1
  Si  Si70  1  0.255040  0.018085  0.276581  1
  Si  Si71  1  0.891688  0.518083  0.217958  1
  Si  Si72  1  0.744807  0.518081  0.424608  1
  Si  Si73  1  0.108158  0.018081  0.276581  1
  Si  Si74  1  0.636577  0.018084  0.483229  1
  Si  Si75  1  0.891692  0.518088  0.424608  1
  Si  Si76  1  0.363272  0.518085  0.217958  1
  Si  Si77  1  0.186551  0.159448  0.440918  1
  Si  Si78  1  0.333164  0.159454  0.361352  1
  Si  Si79  1  0.813301  0.659451  0.260272  1
  Si  Si80  1  0.666692  0.659446  0.339841  1
  Si  Si81  1  0.186549  0.159447  0.361352  1
  Si  Si82  1  0.480068  0.159443  0.440919  1
  Si  Si83  1  0.813306  0.659450  0.339840  1
  Si  Si84  1  0.519788  0.659462  0.260271  1
  Si  Si85  1  0.974116  0.217962  0.426280  1
  Si  Si86  1  0.360193  0.217995  0.260929  1
  Si  Si87  1  0.025746  0.717984  0.274912  1
  Si  Si88  1  0.639662  0.717957  0.440261  1
  Si  Si89  1  0.974111  0.217974  0.260931  1
  Si  Si90  1  0.665472  0.217960  0.426279  1
  Si  Si91  1  0.025745  0.717976  0.440264  1
  Si  Si92  1  0.334370  0.717988  0.274912  1
  Si  Si93  1  0.075934  0.432015  0.411038  1
  Si  Si94  1  0.388335  0.432017  0.331324  1
  Si  Si95  1  0.923921  0.932017  0.290155  1
  Si  Si96  1  0.611522  0.932007  0.369875  1
  Si  Si97  1  0.075933  0.432016  0.331321  1
  Si  Si98  1  0.535516  0.432003  0.411039  1
  Si  Si99  1  0.923925  0.932011  0.369873  1
  Si  Si100  1  0.464341  0.932025  0.290156  1
  H  H101  1  0.171464  0.040616  0.551789  1
  H  H102  1  0.656850  0.040605  0.551788  1
  H  H103  1  0.828388  0.540605  0.149404  1
  H  H104  1  0.343003  0.540616  0.149404  1
  H  H105  1  0.269425  0.172391  0.498731  1
  H  H106  1  0.460931  0.172377  0.498730  1
  H  H107  1  0.730431  0.672396  0.202461  1
  H  H108  1  0.538920  0.672408  0.202461  1
