# generated using pymatgen
data_Si6H2O13
_symmetry_space_group_name_H-M   'P 1'
_cell_length_a   25.37533796
_cell_length_b   21.33911566
_cell_length_c   73.91843592
_cell_angle_alpha   149.99891297
_cell_angle_beta   90.00000000
_cell_angle_gamma   90.00000000
_symmetry_Int_Tables_number   1
_chemical_formula_structural   Si6H2O13
_chemical_formula_sum   'Si120 H40 O260'
_cell_volume   20013.603735
_cell_formula_units_Z   20
loop_
 _symmetry_equiv_pos_site_id
 _symmetry_equiv_pos_as_xyz
  1  'x, y, z'
loop_
 _atom_site_type_symbol
 _atom_site_label
 _atom_site_symmetry_multiplicity
 _atom_site_fract_x
 _atom_site_fract_y
 _atom_site_fract_z
 _atom_site_occupancy
  Si  Si1  1  0.899780  0.667996  0.375443  1
  Si  Si2  1  0.899774  0.918784  0.375471  1
  Si  Si3  1  0.899769  0.417317  0.416774  1
  Si  Si4  1  0.899761  0.417263  0.458549  1
  Si  Si5  1  0.899783  0.668009  0.458563  1
  Si  Si6  1  0.899783  0.918729  0.417239  1
  Si  Si7  1  0.799857  0.334674  0.458564  1
  Si  Si8  1  0.799839  0.083856  0.458541  1
  Si  Si9  1  0.799869  0.585434  0.417260  1
  Si  Si10  1  0.799870  0.585494  0.375484  1
  Si  Si11  1  0.799859  0.334656  0.375455  1
  Si  Si12  1  0.799832  0.083917  0.416762  1
  Si  Si13  1  0.999673  0.001369  0.375452  1
  Si  Si14  1  0.999690  0.252112  0.375464  1
  Si  Si15  1  0.999690  0.252086  0.417243  1
  Si  Si16  1  0.999675  0.750656  0.416769  1
  Si  Si17  1  0.999682  0.001372  0.458561  1
  Si  Si18  1  0.999670  0.750628  0.458548  1
  Si  Si19  1  0.699890  0.001431  0.458570  1
  Si  Si20  1  0.699879  0.001413  0.375509  1
  Si  Si21  1  0.699903  0.252313  0.375505  1
  Si  Si22  1  0.699887  0.750388  0.416716  1
  Si  Si23  1  0.699887  0.750328  0.458503  1
  Si  Si24  1  0.599823  0.669121  0.375785  1
  Si  Si25  1  0.599831  0.918431  0.375246  1
  Si  Si26  1  0.599819  0.416551  0.416716  1
  Si  Si27  1  0.599823  0.416536  0.458263  1
  Si  Si28  1  0.599815  0.669117  0.458813  1
  Si  Si29  1  0.599838  0.918414  0.417337  1
  Si  Si30  1  0.699897  0.252255  0.417330  1
  Si  Si31  1  0.499675  0.001374  0.375547  1
  Si  Si32  1  0.299466  0.001330  0.458525  1
  Si  Si33  1  0.299475  0.750525  0.458554  1
  Si  Si34  1  0.299471  0.252389  0.417339  1
  Si  Si35  1  0.399534  0.333647  0.458271  1
  Si  Si36  1  0.399536  0.084358  0.458817  1
  Si  Si37  1  0.399538  0.586214  0.417343  1
  Si  Si38  1  0.399542  0.586211  0.375792  1
  Si  Si39  1  0.399552  0.333652  0.375249  1
  Si  Si40  1  0.399511  0.084351  0.416720  1
  Si  Si41  1  0.299472  0.750498  0.416709  1
  Si  Si42  1  0.299461  0.001351  0.375490  1
  Si  Si43  1  0.299474  0.252359  0.375530  1
  Si  Si44  1  0.499682  0.750341  0.458525  1
  Si  Si45  1  0.499682  0.750342  0.416680  1
  Si  Si46  1  0.499683  0.252397  0.417374  1
  Si  Si47  1  0.499677  0.001365  0.458508  1
  Si  Si48  1  0.499681  0.252399  0.375530  1
  Si  Si49  1  0.099587  0.334736  0.458568  1
  Si  Si50  1  0.099577  0.083998  0.458554  1
  Si  Si51  1  0.099593  0.585434  0.417248  1
  Si  Si52  1  0.099591  0.585439  0.375462  1
  Si  Si53  1  0.099589  0.334743  0.375460  1
  Si  Si54  1  0.099574  0.083999  0.416772  1
  Si  Si55  1  0.199512  0.668092  0.375477  1
  Si  Si56  1  0.199501  0.918816  0.375474  1
  Si  Si57  1  0.199504  0.417297  0.416759  1
  Si  Si58  1  0.199500  0.417325  0.458558  1
  Si  Si59  1  0.199507  0.668070  0.458561  1
  Si  Si60  1  0.199514  0.918842  0.417275  1
  O  O61  1  0.891786  0.786904  0.393110  1
  O  O62  1  0.891775  0.786974  0.333685  1
  O  O63  1  0.891735  0.430078  0.440859  1
  O  O64  1  0.850121  0.355004  0.451748  1
  O  O65  1  0.850113  0.002312  0.441548  1
  O  O66  1  0.850125  0.646611  0.441057  1
  O  O67  1  0.850123  0.646667  0.382271  1
  O  O68  1  0.850128  0.355054  0.392448  1
  O  O69  1  0.850101  0.002381  0.392971  1
  O  O70  1  0.949824  0.688608  0.392598  1
  O  O71  1  0.949802  0.980519  0.382318  1
  O  O72  1  0.949820  0.335033  0.392771  1
  O  O73  1  0.949817  0.334975  0.441398  1
  O  O74  1  0.949822  0.688582  0.451699  1
  O  O75  1  0.949815  0.980463  0.441254  1
  O  O76  1  0.791757  0.453812  0.333692  1
  O  O77  1  0.791707  0.096369  0.440773  1
  O  O78  1  0.791764  0.453735  0.393201  1
  O  O79  1  0.750483  0.669938  0.441874  1
  O  O80  1  0.807133  0.216746  0.441391  1
  O  O81  1  0.807146  0.216670  0.333661  1
  O  O82  1  0.807186  0.570681  0.392676  1
  O  O83  1  0.907377  0.549853  0.441265  1
  O  O84  1  0.907374  0.549782  0.333658  1
  O  O85  1  0.907404  0.904493  0.392788  1
  O  O86  1  0.991867  0.764176  0.441043  1
  O  O87  1  0.991904  0.119920  0.392942  1
  O  O88  1  0.991898  0.119959  0.333682  1
  O  O89  1  0.750475  0.313290  0.440911  1
  O  O90  1  0.750475  0.020729  0.451600  1
  O  O91  1  0.750483  0.670018  0.393141  1
  O  O92  1  0.750483  0.313332  0.382436  1
  O  O93  1  0.750460  0.020786  0.392145  1
  O  O94  1  0.706406  0.235930  0.392329  1
  O  O95  1  0.706363  0.884157  0.441767  1
  O  O96  1  0.706371  0.884080  0.333671  1
  O  O97  1  0.507043  0.119249  0.392643  1
  O  O98  1  0.507031  0.119242  0.333684  1
  O  O99  1  0.507030  0.765660  0.441433  1
  O  O100  1  0.650646  0.980030  0.440830  1
  O  O101  1  0.650661  0.686687  0.451472  1
  O  O102  1  0.650653  0.337273  0.442111  1
  O  O103  1  0.650662  0.337354  0.393247  1
  O  O104  1  0.650632  0.980061  0.382559  1
  O  O105  1  0.650659  0.686748  0.391928  1
  O  O106  1  0.549759  0.687913  0.392579  1
  O  O107  1  0.549730  0.981577  0.382656  1
  O  O108  1  0.549760  0.334570  0.392521  1
  O  O109  1  0.549750  0.334603  0.441480  1
  O  O110  1  0.549759  0.687922  0.451416  1
  O  O111  1  0.549747  0.981577  0.441509  1
  O  O112  1  0.599633  0.778598  0.388976  1
  O  O113  1  0.599631  0.778616  0.333698  1
  O  O114  1  0.599631  0.446854  0.445068  1
  O  O115  1  0.599320  0.925098  0.397960  1
  O  O116  1  0.599189  0.539525  0.436111  1
  O  O117  1  0.599231  0.539496  0.333689  1
  O  O118  1  0.691282  0.762577  0.440665  1
  O  O119  1  0.691310  0.120655  0.393328  1
  O  O120  1  0.691311  0.120730  0.333707  1
  O  O121  1  0.292980  0.766913  0.441732  1
  O  O122  1  0.292980  0.118659  0.392308  1
  O  O123  1  0.292982  0.118620  0.333695  1
  O  O124  1  0.492322  0.883490  0.441412  1
  O  O125  1  0.492324  0.883496  0.333703  1
  O  O126  1  0.492331  0.237083  0.392623  1
  O  O127  1  0.348689  0.022742  0.393235  1
  O  O128  1  0.348715  0.315996  0.382570  1
  O  O129  1  0.348716  0.665460  0.391934  1
  O  O130  1  0.348712  0.665490  0.440823  1
  O  O131  1  0.348711  0.022750  0.451493  1
  O  O132  1  0.348704  0.316025  0.442124  1
  O  O133  1  0.449609  0.314835  0.441476  1
  O  O134  1  0.449610  0.021159  0.451404  1
  O  O135  1  0.449613  0.668134  0.441526  1
  O  O136  1  0.449617  0.668129  0.392572  1
  O  O137  1  0.449617  0.314865  0.382649  1
  O  O138  1  0.449592  0.021169  0.392539  1
  O  O139  1  0.399711  0.224159  0.445076  1
  O  O140  1  0.399746  0.224166  0.333699  1
  O  O141  1  0.399729  0.555887  0.388986  1
  O  O142  1  0.400080  0.077705  0.436106  1
  O  O143  1  0.400127  0.463257  0.397959  1
  O  O144  1  0.400133  0.463238  0.333694  1
  O  O145  1  0.308065  0.240102  0.393367  1
  O  O146  1  0.308056  0.882061  0.440691  1
  O  O147  1  0.308057  0.882099  0.333689  1
  O  O148  1  0.107590  0.215796  0.440886  1
  O  O149  1  0.107585  0.215803  0.333672  1
  O  O150  1  0.107609  0.572608  0.393148  1
  O  O151  1  0.149245  0.647698  0.382273  1
  O  O152  1  0.149230  0.000356  0.392458  1
  O  O153  1  0.149248  0.356112  0.392961  1
  O  O154  1  0.149242  0.356132  0.451759  1
  O  O155  1  0.149246  0.647692  0.441569  1
  O  O156  1  0.149243  0.000392  0.441059  1
  O  O157  1  0.049544  0.314130  0.441413  1
  O  O158  1  0.049544  0.022263  0.451701  1
  O  O159  1  0.049546  0.667738  0.441252  1
  O  O160  1  0.049547  0.667751  0.392614  1
  O  O161  1  0.049546  0.314151  0.382317  1
  O  O162  1  0.049534  0.022278  0.392761  1
  O  O163  1  0.207611  0.548997  0.333683  1
  O  O164  1  0.207627  0.906307  0.393244  1
  O  O165  1  0.207615  0.548959  0.440799  1
  O  O166  1  0.248889  0.689476  0.451607  1
  O  O167  1  0.248885  0.981987  0.441895  1
  O  O168  1  0.192215  0.786046  0.392664  1
  O  O169  1  0.192207  0.786009  0.333685  1
  O  O170  1  0.192193  0.432132  0.441364  1
  O  O171  1  0.091988  0.452919  0.392769  1
  O  O172  1  0.091982  0.452918  0.333681  1
  O  O173  1  0.091957  0.098296  0.441237  1
  O  O174  1  0.007492  0.238558  0.392968  1
  O  O175  1  0.007463  0.882819  0.441068  1
  O  O176  1  0.007457  0.882789  0.333666  1
  O  O177  1  0.248890  0.689452  0.393127  1
  O  O178  1  0.248869  0.981977  0.382432  1
  O  O179  1  0.248890  0.332770  0.392152  1
  O  O180  1  0.248882  0.332806  0.440913  1
  H  H181  1  0.891775  0.786974  0.321510  1
  H  H182  1  0.791757  0.453812  0.321516  1
  H  H183  1  0.807146  0.216670  0.321486  1
  H  H184  1  0.907374  0.549782  0.321483  1
  H  H185  1  0.991898  0.119959  0.321506  1
  H  H186  1  0.706371  0.884080  0.321495  1
  H  H187  1  0.507031  0.119242  0.321509  1
  H  H188  1  0.599631  0.778616  0.321522  1
  H  H189  1  0.599231  0.539496  0.321514  1
  H  H190  1  0.691311  0.120730  0.321532  1
  H  H191  1  0.292982  0.118620  0.321520  1
  H  H192  1  0.492324  0.883496  0.321528  1
  H  H193  1  0.399746  0.224166  0.321523  1
  H  H194  1  0.400133  0.463238  0.321519  1
  H  H195  1  0.308057  0.882099  0.321514  1
  H  H196  1  0.107585  0.215803  0.321496  1
  H  H197  1  0.207611  0.548997  0.321507  1
  H  H198  1  0.192207  0.786009  0.321510  1
  H  H199  1  0.091982  0.452918  0.321506  1
  H  H200  1  0.007457  0.882789  0.321491  1
  Si  Si201  1  0.899780  0.667996  0.542109  1
  Si  Si202  1  0.899774  0.918784  0.542138  1
  Si  Si203  1  0.899769  0.417317  0.583440  1
  Si  Si204  1  0.899761  0.417263  0.625215  1
  Si  Si205  1  0.899783  0.668009  0.625229  1
  Si  Si206  1  0.899783  0.918729  0.583905  1
  Si  Si207  1  0.799857  0.334674  0.625231  1
  Si  Si208  1  0.799839  0.083856  0.625208  1
  Si  Si209  1  0.799869  0.585434  0.583927  1
  Si  Si210  1  0.799870  0.585494  0.542150  1
  Si  Si211  1  0.799859  0.334656  0.542122  1
  Si  Si212  1  0.799832  0.083917  0.583429  1
  Si  Si213  1  0.999673  0.001369  0.542118  1
  Si  Si214  1  0.999690  0.252112  0.542130  1
  Si  Si215  1  0.999690  0.252086  0.583909  1
  Si  Si216  1  0.999675  0.750656  0.583436  1
  Si  Si217  1  0.999682  0.001372  0.625228  1
  Si  Si218  1  0.999670  0.750628  0.625215  1
  Si  Si219  1  0.699890  0.001431  0.625236  1
  Si  Si220  1  0.699879  0.001413  0.542176  1
  Si  Si221  1  0.699903  0.252313  0.542172  1
  Si  Si222  1  0.699887  0.750388  0.583383  1
  Si  Si223  1  0.699887  0.750328  0.625170  1
  Si  Si224  1  0.599823  0.669121  0.542453  1
  Si  Si225  1  0.599831  0.918431  0.541913  1
  Si  Si226  1  0.599819  0.416551  0.583383  1
  Si  Si227  1  0.599823  0.416536  0.624930  1
  Si  Si228  1  0.599815  0.669117  0.625480  1
  Si  Si229  1  0.599838  0.918414  0.584004  1
  Si  Si230  1  0.699897  0.252255  0.583996  1
  Si  Si231  1  0.499675  0.001374  0.542214  1
  Si  Si232  1  0.299466  0.001330  0.625192  1
  Si  Si233  1  0.299475  0.750525  0.625220  1
  Si  Si234  1  0.299471  0.252389  0.584005  1
  Si  Si235  1  0.399534  0.333647  0.624938  1
  Si  Si236  1  0.399536  0.084358  0.625484  1
  Si  Si237  1  0.399538  0.586214  0.584010  1
  Si  Si238  1  0.399542  0.586211  0.542459  1
  Si  Si239  1  0.399552  0.333652  0.541915  1
  Si  Si240  1  0.399511  0.084351  0.583387  1
  Si  Si241  1  0.299472  0.750498  0.583376  1
  Si  Si242  1  0.299461  0.001351  0.542157  1
  Si  Si243  1  0.299474  0.252359  0.542196  1
  Si  Si244  1  0.499682  0.750341  0.625192  1
  Si  Si245  1  0.499682  0.750342  0.583348  1
  Si  Si246  1  0.499683  0.252397  0.584041  1
  Si  Si247  1  0.499677  0.001365  0.625175  1
  Si  Si248  1  0.499681  0.252399  0.542196  1
  Si  Si249  1  0.099587  0.334736  0.625235  1
  Si  Si250  1  0.099577  0.083998  0.625220  1
  Si  Si251  1  0.099593  0.585434  0.583916  1
  Si  Si252  1  0.099591  0.585439  0.542129  1
  Si  Si253  1  0.099589  0.334743  0.542127  1
  Si  Si254  1  0.099574  0.083999  0.583439  1
  Si  Si255  1  0.199512  0.668092  0.542144  1
  Si  Si256  1  0.199501  0.918816  0.542141  1
  Si  Si257  1  0.199504  0.417297  0.583425  1
  Si  Si258  1  0.199500  0.417325  0.625224  1
  Si  Si259  1  0.199507  0.668070  0.625228  1
  Si  Si260  1  0.199514  0.918842  0.583942  1
  O  O261  1  0.891786  0.786904  0.559777  1
  O  O262  1  0.891775  0.786974  0.500352  1
  O  O263  1  0.891735  0.430078  0.607525  1
  O  O264  1  0.850121  0.355004  0.618414  1
  O  O265  1  0.850113  0.002312  0.608215  1
  O  O266  1  0.850125  0.646611  0.607724  1
  O  O267  1  0.850123  0.646667  0.548937  1
  O  O268  1  0.850128  0.355054  0.559114  1
  O  O269  1  0.850101  0.002381  0.559637  1
  O  O270  1  0.949824  0.688608  0.559264  1
  O  O271  1  0.949802  0.980519  0.548985  1
  O  O272  1  0.949820  0.335033  0.559438  1
  O  O273  1  0.949817  0.334975  0.608065  1
  O  O274  1  0.949822  0.688582  0.618366  1
  O  O275  1  0.949815  0.980463  0.607921  1
  O  O276  1  0.791757  0.453812  0.500359  1
  O  O277  1  0.791707  0.096369  0.607439  1
  O  O278  1  0.791764  0.453735  0.559868  1
  O  O279  1  0.750483  0.669938  0.608541  1
  O  O280  1  0.807133  0.216746  0.608057  1
  O  O281  1  0.807146  0.216670  0.500328  1
  O  O282  1  0.807186  0.570681  0.559342  1
  O  O283  1  0.907377  0.549853  0.607931  1
  O  O284  1  0.907374  0.549782  0.500325  1
  O  O285  1  0.907404  0.904493  0.559454  1
  O  O286  1  0.991867  0.764176  0.607709  1
  O  O287  1  0.991904  0.119920  0.559609  1
  O  O288  1  0.991898  0.119959  0.500348  1
  O  O289  1  0.750475  0.313290  0.607578  1
  O  O290  1  0.750475  0.020729  0.618266  1
  O  O291  1  0.750483  0.670018  0.559808  1
  O  O292  1  0.750483  0.313332  0.549103  1
  O  O293  1  0.750460  0.020786  0.558811  1
  O  O294  1  0.706406  0.235930  0.558995  1
  O  O295  1  0.706363  0.884157  0.608434  1
  O  O296  1  0.706371  0.884080  0.500337  1
  O  O297  1  0.507043  0.119249  0.559310  1
  O  O298  1  0.507031  0.119242  0.500351  1
  O  O299  1  0.507030  0.765660  0.608099  1
  O  O300  1  0.650646  0.980030  0.607497  1
  O  O301  1  0.650661  0.686687  0.618139  1
  O  O302  1  0.650653  0.337273  0.608777  1
  O  O303  1  0.650662  0.337354  0.559913  1
  O  O304  1  0.650632  0.980061  0.549226  1
  O  O305  1  0.650659  0.686748  0.558594  1
  O  O306  1  0.549759  0.687913  0.559246  1
  O  O307  1  0.549730  0.981577  0.549323  1
  O  O308  1  0.549760  0.334570  0.559187  1
  O  O309  1  0.549750  0.334603  0.608147  1
  O  O310  1  0.549759  0.687922  0.618082  1
  O  O311  1  0.549747  0.981577  0.608175  1
  O  O312  1  0.599633  0.778598  0.555643  1
  O  O313  1  0.599631  0.778616  0.500364  1
  O  O314  1  0.599631  0.446854  0.611734  1
  O  O315  1  0.599320  0.925098  0.564626  1
  O  O316  1  0.599189  0.539525  0.602777  1
  O  O317  1  0.599231  0.539496  0.500355  1
  O  O318  1  0.691282  0.762577  0.607332  1
  O  O319  1  0.691310  0.120655  0.559994  1
  O  O320  1  0.691311  0.120730  0.500374  1
  O  O321  1  0.292980  0.766913  0.608398  1
  O  O322  1  0.292980  0.118659  0.558975  1
  O  O323  1  0.292982  0.118620  0.500362  1
  O  O324  1  0.492322  0.883490  0.608079  1
  O  O325  1  0.492324  0.883496  0.500370  1
  O  O326  1  0.492331  0.237083  0.559290  1
  O  O327  1  0.348689  0.022742  0.559902  1
  O  O328  1  0.348715  0.315996  0.549237  1
  O  O329  1  0.348716  0.665460  0.558600  1
  O  O330  1  0.348712  0.665490  0.607490  1
  O  O331  1  0.348711  0.022750  0.618160  1
  O  O332  1  0.348704  0.316025  0.608790  1
  O  O333  1  0.449609  0.314835  0.608143  1
  O  O334  1  0.449610  0.021159  0.618070  1
  O  O335  1  0.449613  0.668134  0.608192  1
  O  O336  1  0.449617  0.668129  0.559239  1
  O  O337  1  0.449617  0.314865  0.549315  1
  O  O338  1  0.449592  0.021169  0.559207  1
  O  O339  1  0.399711  0.224159  0.611743  1
  O  O340  1  0.399746  0.224166  0.500365  1
  O  O341  1  0.399729  0.555887  0.555653  1
  O  O342  1  0.400080  0.077705  0.602772  1
  O  O343  1  0.400127  0.463257  0.564626  1
  O  O344  1  0.400133  0.463238  0.500362  1
  O  O345  1  0.308065  0.240102  0.560033  1
  O  O346  1  0.308056  0.882061  0.607358  1
  O  O347  1  0.308057  0.882099  0.500355  1
  O  O348  1  0.107590  0.215796  0.607552  1
  O  O349  1  0.107585  0.215803  0.500339  1
  O  O350  1  0.107609  0.572608  0.559814  1
  O  O351  1  0.149245  0.647698  0.548940  1
  O  O352  1  0.149230  0.000356  0.559124  1
  O  O353  1  0.149248  0.356112  0.559628  1
  O  O354  1  0.149242  0.356132  0.618425  1
  O  O355  1  0.149246  0.647692  0.608236  1
  O  O356  1  0.149243  0.000392  0.607726  1
  O  O357  1  0.049544  0.314130  0.608079  1
  O  O358  1  0.049544  0.022263  0.618368  1
  O  O359  1  0.049546  0.667738  0.607918  1
  O  O360  1  0.049547  0.667751  0.559281  1
  O  O361  1  0.049546  0.314151  0.548983  1
  O  O362  1  0.049534  0.022278  0.559428  1
  O  O363  1  0.207611  0.548997  0.500349  1
  O  O364  1  0.207627  0.906307  0.559910  1
  O  O365  1  0.207615  0.548959  0.607465  1
  O  O366  1  0.248889  0.689476  0.618274  1
  O  O367  1  0.248885  0.981987  0.608561  1
  O  O368  1  0.192215  0.786046  0.559331  1
  O  O369  1  0.192207  0.786009  0.500352  1
  O  O370  1  0.192193  0.432132  0.608030  1
  O  O371  1  0.091988  0.452919  0.559435  1
  O  O372  1  0.091982  0.452918  0.500348  1
  O  O373  1  0.091957  0.098296  0.607904  1
  O  O374  1  0.007492  0.238558  0.559635  1
  O  O375  1  0.007463  0.882819  0.607735  1
  O  O376  1  0.007457  0.882789  0.500333  1
  O  O377  1  0.248890  0.689452  0.559794  1
  O  O378  1  0.248869  0.981977  0.549099  1
  O  O379  1  0.248890  0.332770  0.558819  1
  O  O380  1  0.248882  0.332806  0.607579  1
  O  O381  1  0.891775  0.786974  0.667018  1
  O  O382  1  0.791757  0.453812  0.667026  1
  O  O383  1  0.807146  0.216670  0.666995  1
  O  O384  1  0.907374  0.549782  0.666992  1
  O  O385  1  0.991898  0.119959  0.667015  1
  O  O386  1  0.706371  0.884080  0.667004  1
  O  O387  1  0.507031  0.119242  0.667018  1
  O  O388  1  0.599631  0.778616  0.667031  1
  O  O389  1  0.599231  0.539496  0.667022  1
  O  O390  1  0.691311  0.120730  0.667041  1
  O  O391  1  0.292982  0.118620  0.667028  1
  O  O392  1  0.492324  0.883496  0.667037  1
  O  O393  1  0.399746  0.224166  0.667032  1
  O  O394  1  0.400133  0.463238  0.667028  1
  O  O395  1  0.308057  0.882099  0.667022  1
  O  O396  1  0.107585  0.215803  0.667005  1
  O  O397  1  0.207611  0.548997  0.667017  1
  O  O398  1  0.192207  0.786009  0.667019  1
  O  O399  1  0.091982  0.452918  0.667015  1
  O  O400  1  0.007457  0.882789  0.666999  1
  H  H401  1  0.891775  0.786974  0.679194  1
  H  H402  1  0.791757  0.453812  0.679201  1
  H  H403  1  0.807146  0.216670  0.679170  1
  H  H404  1  0.907374  0.549782  0.679168  1
  H  H405  1  0.991898  0.119959  0.679190  1
  H  H406  1  0.706371  0.884080  0.679179  1
  H  H407  1  0.507031  0.119242  0.679194  1
  H  H408  1  0.599631  0.778616  0.679207  1
  H  H409  1  0.599231  0.539496  0.679197  1
  H  H410  1  0.691311  0.120730  0.679216  1
  H  H411  1  0.292982  0.118620  0.679203  1
  H  H412  1  0.492324  0.883496  0.679212  1
  H  H413  1  0.399746  0.224166  0.679207  1
  H  H414  1  0.400133  0.463238  0.679203  1
  H  H415  1  0.308057  0.882099  0.679197  1
  H  H416  1  0.107585  0.215803  0.679180  1
  H  H417  1  0.207611  0.548997  0.679192  1
  H  H418  1  0.192207  0.786009  0.679194  1
  H  H419  1  0.091982  0.452918  0.679191  1
  H  H420  1  0.007457  0.882789  0.679175  1
