# generated using pymatgen
data_Si21(HO11)4
_symmetry_space_group_name_H-M   'P 1'
_cell_length_a   12.29755406
_cell_length_b   35.64908765
_cell_length_c   50.68281456
_cell_angle_alpha   90.00000000
_cell_angle_beta   120.00000000
_cell_angle_gamma   90.00000000
_symmetry_Int_Tables_number   1
_chemical_formula_structural   Si21(HO11)4
_chemical_formula_sum   'Si168 H32 O352'
_cell_volume   19242.3680062
_cell_formula_units_Z   8
loop_
 _symmetry_equiv_pos_site_id
 _symmetry_equiv_pos_as_xyz
  1  'x, y, z'
loop_
 _atom_site_type_symbol
 _atom_site_label
 _atom_site_symmetry_multiplicity
 _atom_site_fract_x
 _atom_site_fract_y
 _atom_site_fract_z
 _atom_site_occupancy
  O  O1  1  0.094523  0.041279  0.155139  1
  O  O2  1  0.451878  0.041272  0.241642  1
  O  O3  1  0.452377  0.041342  0.155230  1
  O  O4  1  0.018688  0.070963  0.189191  1
  O  O5  1  0.667756  0.071048  0.260222  1
  O  O6  1  0.312376  0.071195  0.260151  1
  O  O7  1  0.668381  0.071065  0.189181  1
  O  O8  1  0.214405  0.030443  0.212752  1
  O  O9  1  0.570343  0.030389  0.212804  1
  O  O10  1  0.119379  0.113229  0.235938  1
  O  O11  1  0.760304  0.113272  0.235927  1
  O  O12  1  0.882432  0.102755  0.208057  1
  O  O13  1  0.684137  0.142152  0.183278  1
  O  O14  1  0.978670  0.142055  0.183268  1
  O  O15  1  0.646129  -0.000000  0.179044  1
  O  O16  1  0.778315  0.320771  0.157342  1
  O  O17  1  0.776984  0.178881  0.156842  1
  O  O18  1  0.982894  0.286190  0.184707  1
  O  O19  1  0.686552  0.286308  0.184823  1
  O  O20  1  0.980500  0.214047  0.184147  1
  O  O21  1  0.686054  0.214151  0.184095  1
  O  O22  1  0.920837  0.320090  0.134101  1
  O  O23  1  0.540126  0.319890  0.134074  1
  O  O24  1  0.922295  0.179919  0.134169  1
  O  O25  1  0.538133  0.179941  0.134157  1
  O  O26  1  0.888937  0.250078  0.211104  1
  O  O27  1  0.126422  0.248772  0.234268  1
  O  O28  1  0.746946  0.248690  0.234293  1
  O  O29  1  0.095207  0.458546  0.154973  1
  O  O30  1  0.452321  0.458664  0.241596  1
  O  O31  1  0.452399  0.458797  0.154944  1
  O  O32  1  0.019245  0.429095  0.189081  1
  O  O33  1  0.668814  0.429182  0.260117  1
  O  O34  1  0.312111  0.429315  0.260175  1
  O  O35  1  0.668627  0.429191  0.189063  1
  O  O36  1  0.214918  0.469623  0.212532  1
  O  O37  1  0.570057  0.469750  0.212547  1
  O  O38  1  -0.000000  0.499960  0.178738  1
  O  O39  1  0.119928  0.386924  0.235875  1
  O  O40  1  0.760526  0.386822  0.235800  1
  O  O41  1  0.882869  0.397483  0.208006  1
  O  O42  1  0.684226  0.358209  0.183094  1
  O  O43  1  0.978957  0.358086  0.183230  1
  O  O44  1  0.905527  0.541400  0.131800  1
  O  O45  1  0.547357  0.541289  0.131672  1
  O  O46  1  0.687864  0.570940  0.184085  1
  O  O47  1  0.980936  0.570819  0.184299  1
  O  O48  1  0.784813  0.530398  0.160137  1
  O  O49  1  0.880576  0.613173  0.206585  1
  O  O50  1  0.117668  0.602757  0.236187  1
  O  O51  1  0.765239  0.602487  0.236090  1
  O  O52  1  0.021038  0.641817  0.187887  1
  O  O53  1  0.663013  0.641822  0.259432  1
  O  O54  1  0.315750  0.642231  0.259325  1
  O  O55  1  0.663320  0.641922  0.187970  1
  O  O56  1  0.353784  0.500241  0.264545  1
  O  O57  1  0.646107  0.500057  0.178733  1
  O  O58  1  0.222460  0.821135  0.210972  1
  O  O59  1  0.554026  0.821120  0.210602  1
  O  O60  1  0.221712  0.679100  0.210390  1
  O  O61  1  0.556683  0.679168  0.210779  1
  O  O62  1  0.312915  0.786372  0.260572  1
  O  O63  1  0.666633  0.786008  0.188494  1
  O  O64  1  0.666437  0.785859  0.259901  1
  O  O65  1  0.019374  0.785829  0.188401  1
  O  O66  1  0.313949  0.714213  0.259775  1
  O  O67  1  0.669235  0.713848  0.188483  1
  O  O68  1  0.669676  0.713710  0.260466  1
  O  O69  1  0.016837  0.713667  0.188553  1
  O  O70  1  0.079747  0.820341  0.153067  1
  O  O71  1  0.460460  0.820036  0.245829  1
  O  O72  1  0.460482  0.820021  0.152661  1
  O  O73  1  0.076742  0.680212  0.152552  1
  O  O74  1  0.460683  0.680116  0.245273  1
  O  O75  1  0.460698  0.680027  0.152980  1
  O  O76  1  0.110790  0.749949  0.237637  1
  O  O77  1  0.777900  0.750012  0.237648  1
  O  O78  1  0.873216  0.751273  0.203128  1
  O  O79  1  0.904107  0.958688  0.131949  1
  O  O80  1  0.547295  0.958723  0.132030  1
  O  O81  1  0.687514  0.929055  0.184429  1
  O  O82  1  0.980139  0.928949  0.184306  1
  O  O83  1  0.784680  0.969605  0.160546  1
  O  O84  1  0.880052  0.886759  0.206778  1
  O  O85  1  0.116970  0.897453  0.236241  1
  O  O86  1  0.764648  0.897329  0.236288  1
  O  O87  1  0.020725  0.857876  0.188214  1
  O  O88  1  0.662836  0.857873  0.259606  1
  O  O89  1  0.315735  0.858293  0.259722  1
  O  O90  1  0.662731  0.857992  0.188106  1
  O  O91  1  -0.000000  0.000000  0.179044  1
  O  O92  1  0.094523  0.041279  0.397774  1
  O  O93  1  0.451878  0.041272  0.484277  1
  O  O94  1  0.452377  0.041342  0.397865  1
  O  O95  1  0.018688  0.070963  0.431825  1
  O  O96  1  0.667756  0.071048  0.502856  1
  O  O97  1  0.311900  0.070902  0.345415  1
  O  O98  1  0.312376  0.071195  0.502786  1
  O  O99  1  0.018815  0.070637  0.345260  1
  O  O100  1  0.668381  0.071065  0.431816  1
  O  O101  1  0.214405  0.030443  0.455386  1
  O  O102  1  0.570343  0.030389  0.455439  1
  O  O103  1  0.214986  0.030332  0.369402  1
  O  O104  1  0.353878  -0.000000  0.264963  1
  O  O105  1  0.645892  0.000000  0.264913  1
  O  O106  1  0.118924  0.112929  0.322824  1
  O  O107  1  0.119379  0.113229  0.478573  1
  O  O108  1  0.760304  0.113272  0.478562  1
  O  O109  1  0.881966  0.102516  0.293379  1
  O  O110  1  0.234838  0.102505  0.293418  1
  O  O111  1  0.882432  0.102755  0.450692  1
  O  O112  1  0.979092  0.141688  0.341615  1
  O  O113  1  0.336230  0.142237  0.270102  1
  O  O114  1  0.684137  0.142152  0.425913  1
  O  O115  1  0.684217  0.142135  0.270131  1
  O  O116  1  0.978670  0.142055  0.425903  1
  O  O117  1  0.335842  0.141920  0.341562  1
  O  O118  1  0.646129  -0.000000  0.421679  1
  O  O119  1  0.353761  -0.000000  0.350843  1
  O  O120  1  0.778315  0.320771  0.399976  1
  O  O121  1  0.776833  0.321028  0.318749  1
  O  O122  1  0.444933  0.320995  0.318729  1
  O  O123  1  0.776984  0.178881  0.399476  1
  O  O124  1  0.778564  0.178985  0.319052  1
  O  O125  1  0.443762  0.179049  0.319040  1
  O  O126  1  0.982894  0.286190  0.427342  1
  O  O127  1  0.686869  0.286349  0.269087  1
  O  O128  1  0.333322  0.286011  0.341098  1
  O  O129  1  0.329911  0.286428  0.269048  1
  O  O130  1  0.980047  0.285765  0.341174  1
  O  O131  1  0.686552  0.286308  0.427458  1
  O  O132  1  0.980500  0.214047  0.426781  1
  O  O133  1  0.685680  0.214183  0.269723  1
  O  O134  1  0.330093  0.213850  0.341049  1
  O  O135  1  0.333530  0.214274  0.269733  1
  O  O136  1  0.983287  0.213605  0.341020  1
  O  O137  1  0.686054  0.214151  0.426729  1
  O  O138  1  0.920837  0.320090  0.376736  1
  O  O139  1  0.538486  0.319736  0.283607  1
  O  O140  1  0.540126  0.319890  0.376708  1
  O  O141  1  0.922295  0.179919  0.376803  1
  O  O142  1  0.539934  0.179810  0.284483  1
  O  O143  1  0.538133  0.179941  0.376792  1
  O  O144  1  0.888872  0.249928  0.291930  1
  O  O145  1  0.221833  0.250081  0.291908  1
  O  O146  1  0.888937  0.250078  0.453739  1
  O  O147  1  0.126356  0.251449  0.326377  1
  O  O148  1  0.126422  0.248772  0.476903  1
  O  O149  1  0.746946  0.248690  0.476928  1
  O  O150  1  0.095207  0.458546  0.397608  1
  O  O151  1  0.452321  0.458664  0.484231  1
  O  O152  1  0.452399  0.458797  0.397579  1
  O  O153  1  0.019245  0.429095  0.431716  1
  O  O154  1  0.668814  0.429182  0.502752  1
  O  O155  1  0.312209  0.429026  0.345228  1
  O  O156  1  0.312111  0.429315  0.502809  1
  O  O157  1  0.019547  0.428767  0.345257  1
  O  O158  1  0.668627  0.429191  0.431697  1
  O  O159  1  0.214918  0.469623  0.455167  1
  O  O160  1  0.570057  0.469750  0.455182  1
  O  O161  1  0.214931  0.469548  0.369058  1
  O  O162  1  -0.000000  0.499712  0.350512  1
  O  O163  1  0.000000  0.499960  0.421373  1
  O  O164  1  0.119912  0.386539  0.322927  1
  O  O165  1  0.119928  0.386924  0.478510  1
  O  O166  1  0.760526  0.386822  0.478435  1
  O  O167  1  0.882835  0.397209  0.293308  1
  O  O168  1  0.234894  0.397371  0.293365  1
  O  O169  1  0.882869  0.397483  0.450641  1
  O  O170  1  0.978691  0.357751  0.341407  1
  O  O171  1  0.337417  0.358294  0.270009  1
  O  O172  1  0.684226  0.358209  0.425729  1
  O  O173  1  0.683738  0.358202  0.269979  1
  O  O174  1  0.978957  0.358086  0.425865  1
  O  O175  1  0.337578  0.357992  0.341522  1
  O  O176  1  0.905527  0.541400  0.374434  1
  O  O177  1  0.547805  0.541388  0.287878  1
  O  O178  1  0.547357  0.541289  0.374307  1
  O  O179  1  0.981399  0.570617  0.340218  1
  O  O180  1  0.331907  0.571202  0.269324  1
  O  O181  1  0.687864  0.570940  0.426720  1
  O  O182  1  0.687896  0.570866  0.269333  1
  O  O183  1  0.980936  0.570819  0.426934  1
  O  O184  1  0.331487  0.571081  0.340355  1
  O  O185  1  0.785155  0.530354  0.316861  1
  O  O186  1  0.429269  0.530402  0.316721  1
  O  O187  1  0.784813  0.530398  0.402771  1
  O  O188  1  0.645880  0.500017  0.264709  1
  O  O189  1  0.880576  0.613173  0.449220  1
  O  O190  1  0.880383  0.613118  0.293603  1
  O  O191  1  0.240017  0.613499  0.293676  1
  O  O192  1  0.117668  0.602757  0.478822  1
  O  O193  1  0.765239  0.602487  0.478725  1
  O  O194  1  0.117457  0.602756  0.321396  1
  O  O195  1  0.021038  0.641817  0.430522  1
  O  O196  1  0.663013  0.641822  0.502067  1
  O  O197  1  0.315736  0.642138  0.346411  1
  O  O198  1  0.315750  0.642231  0.501960  1
  O  O199  1  0.021161  0.641625  0.346411  1
  O  O200  1  0.663320  0.641922  0.430605  1
  O  O201  1  0.353784  0.500241  0.507180  1
  O  O202  1  0.646107  0.500057  0.421368  1
  O  O203  1  0.353462  0.500061  0.350518  1
  O  O204  1  0.222482  0.820874  0.372415  1
  O  O205  1  0.222460  0.821135  0.453607  1
  O  O206  1  0.554026  0.821120  0.453237  1
  O  O207  1  0.221681  0.678991  0.372527  1
  O  O208  1  0.221712  0.679100  0.453024  1
  O  O209  1  0.556683  0.679168  0.453414  1
  O  O210  1  0.019412  0.785620  0.345691  1
  O  O211  1  0.312915  0.786372  0.503207  1
  O  O212  1  0.666633  0.786008  0.431128  1
  O  O213  1  0.666437  0.785859  0.502536  1
  O  O214  1  0.019374  0.785829  0.431036  1
  O  O215  1  0.313174  0.786301  0.344688  1
  O  O216  1  0.016622  0.713472  0.344578  1
  O  O217  1  0.313949  0.714213  0.502410  1
  O  O218  1  0.669235  0.713848  0.431117  1
  O  O219  1  0.669676  0.713710  0.503100  1
  O  O220  1  0.016837  0.713667  0.431187  1
  O  O221  1  0.313813  0.714136  0.345538  1
  O  O222  1  0.079747  0.820341  0.395701  1
  O  O223  1  0.460460  0.820036  0.488463  1
  O  O224  1  0.460482  0.820021  0.395296  1
  O  O225  1  0.076742  0.680212  0.395186  1
  O  O226  1  0.460683  0.680116  0.487907  1
  O  O227  1  0.460698  0.680027  0.395614  1
  O  O228  1  0.110790  0.749949  0.480272  1
  O  O229  1  0.777900  0.750012  0.480283  1
  O  O230  1  0.110877  0.750015  0.318490  1
  O  O231  1  0.873216  0.751273  0.445762  1
  O  O232  1  0.873430  0.751341  0.295282  1
  O  O233  1  0.252646  0.748539  0.295263  1
  O  O234  1  0.904107  0.958688  0.374584  1
  O  O235  1  0.547412  0.958760  0.288006  1
  O  O236  1  0.547295  0.958723  0.374664  1
  O  O237  1  0.980065  0.928748  0.340663  1
  O  O238  1  0.330942  0.929336  0.269474  1
  O  O239  1  0.687514  0.929055  0.427064  1
  O  O240  1  0.687093  0.928985  0.269468  1
  O  O241  1  0.980139  0.928949  0.426940  1
  O  O242  1  0.330918  0.929219  0.340530  1
  O  O243  1  0.784927  0.969532  0.316985  1
  O  O244  1  0.429815  0.969762  0.317066  1
  O  O245  1  0.784680  0.969605  0.403180  1
  O  O246  1  0.880052  0.886759  0.449413  1
  O  O247  1  0.879771  0.886802  0.293747  1
  O  O248  1  0.238457  0.887074  0.293718  1
  O  O249  1  0.116970  0.897453  0.478876  1
  O  O250  1  0.764648  0.897329  0.478923  1
  O  O251  1  0.116678  0.897497  0.321699  1
  O  O252  1  0.020725  0.857876  0.430849  1
  O  O253  1  0.662836  0.857873  0.502241  1
  O  O254  1  0.315328  0.858207  0.346338  1
  O  O255  1  0.315735  0.858293  0.502357  1
  O  O256  1  0.020711  0.857663  0.346262  1
  O  O257  1  0.662731  0.857992  0.430740  1
  O  O258  1  0.000000  0.000000  0.350839  1
  O  O259  1  0.000000  -0.000000  0.421679  1
  O  O260  1  0.094523  0.041279  0.640409  1
  O  O261  1  0.452377  0.041342  0.640499  1
  O  O262  1  0.311900  0.070902  0.588049  1
  O  O263  1  0.018815  0.070637  0.587894  1
  O  O264  1  0.214986  0.030332  0.612036  1
  O  O265  1  0.353878  -0.000000  0.507598  1
  O  O266  1  0.645892  -0.000000  0.507548  1
  O  O267  1  0.118924  0.112929  0.565458  1
  O  O268  1  0.881966  0.102516  0.536014  1
  O  O269  1  0.234838  0.102505  0.536053  1
  O  O270  1  0.979092  0.141688  0.584250  1
  O  O271  1  0.336230  0.142237  0.512736  1
  O  O272  1  0.684217  0.142135  0.512765  1
  O  O273  1  0.335842  0.141920  0.584196  1
  O  O274  1  0.353761  0.000000  0.593478  1
  O  O275  1  0.776833  0.321028  0.561383  1
  O  O276  1  0.444933  0.320995  0.561364  1
  O  O277  1  0.778564  0.178985  0.561687  1
  O  O278  1  0.443762  0.179049  0.561674  1
  O  O279  1  0.686869  0.286349  0.511721  1
  O  O280  1  0.333322  0.286011  0.583733  1
  O  O281  1  0.329911  0.286428  0.511683  1
  O  O282  1  0.980047  0.285765  0.583809  1
  O  O283  1  0.685680  0.214183  0.512357  1
  O  O284  1  0.330093  0.213850  0.583684  1
  O  O285  1  0.333530  0.214274  0.512368  1
  O  O286  1  0.983287  0.213605  0.583654  1
  O  O287  1  0.920837  0.320090  0.619370  1
  O  O288  1  0.538486  0.319736  0.526242  1
  O  O289  1  0.540126  0.319890  0.619343  1
  O  O290  1  0.922295  0.179919  0.619438  1
  O  O291  1  0.539934  0.179810  0.527118  1
  O  O292  1  0.538133  0.179941  0.619427  1
  O  O293  1  0.888872  0.249928  0.534565  1
  O  O294  1  0.221833  0.250081  0.534543  1
  O  O295  1  0.126356  0.251449  0.569012  1
  O  O296  1  0.095207  0.458546  0.640242  1
  O  O297  1  0.452399  0.458797  0.640213  1
  O  O298  1  0.312209  0.429026  0.587863  1
  O  O299  1  0.019547  0.428767  0.587891  1
  O  O300  1  0.214931  0.469548  0.611692  1
  O  O301  1  0.000000  0.499712  0.593146  1
  O  O302  1  0.119912  0.386539  0.565562  1
  O  O303  1  0.882835  0.397209  0.535942  1
  O  O304  1  0.234894  0.397371  0.535999  1
  O  O305  1  0.978691  0.357751  0.584042  1
  O  O306  1  0.337417  0.358294  0.512644  1
  O  O307  1  0.683738  0.358202  0.512614  1
  O  O308  1  0.337578  0.357992  0.584157  1
  O  O309  1  0.905527  0.541400  0.617069  1
  O  O310  1  0.547805  0.541388  0.530513  1
  O  O311  1  0.547357  0.541289  0.616941  1
  O  O312  1  0.981399  0.570617  0.582852  1
  O  O313  1  0.331907  0.571202  0.511958  1
  O  O314  1  0.687896  0.570866  0.511967  1
  O  O315  1  0.331487  0.571081  0.582990  1
  O  O316  1  0.785155  0.530354  0.559496  1
  O  O317  1  0.429269  0.530402  0.559356  1
  O  O318  1  0.645880  0.500017  0.507344  1
  O  O319  1  0.880383  0.613118  0.536238  1
  O  O320  1  0.240017  0.613499  0.536310  1
  O  O321  1  0.117457  0.602756  0.564031  1
  O  O322  1  0.315736  0.642138  0.589045  1
  O  O323  1  0.021161  0.641625  0.589046  1
  O  O324  1  0.353462  0.500061  0.593153  1
  O  O325  1  0.222482  0.820874  0.615050  1
  O  O326  1  0.221681  0.678991  0.615162  1
  O  O327  1  0.019412  0.785620  0.588325  1
  O  O328  1  0.313174  0.786301  0.587323  1
  O  O329  1  0.016622  0.713472  0.587212  1
  O  O330  1  0.313813  0.714136  0.588173  1
  O  O331  1  0.079747  0.820341  0.638336  1
  O  O332  1  0.460482  0.820021  0.637931  1
  O  O333  1  0.076742  0.680212  0.637821  1
  O  O334  1  0.460698  0.680027  0.638249  1
  O  O335  1  0.110877  0.750015  0.561124  1
  O  O336  1  0.873430  0.751341  0.537917  1
  O  O337  1  0.252646  0.748539  0.537898  1
  O  O338  1  0.904107  0.958688  0.617218  1
  O  O339  1  0.547412  0.958760  0.530640  1
  O  O340  1  0.547295  0.958723  0.617299  1
  O  O341  1  0.980065  0.928748  0.583297  1
  O  O342  1  0.330942  0.929336  0.512108  1
  O  O343  1  0.687093  0.928985  0.512103  1
  O  O344  1  0.330918  0.929219  0.583165  1
  O  O345  1  0.784927  0.969532  0.559619  1
  O  O346  1  0.429815  0.969762  0.559700  1
  O  O347  1  0.879771  0.886802  0.536382  1
  O  O348  1  0.238457  0.887074  0.536353  1
  O  O349  1  0.116678  0.897497  0.564334  1
  O  O350  1  0.315328  0.858207  0.588973  1
  O  O351  1  0.020711  0.857663  0.588896  1
  O  O352  1  -0.000000  0.000000  0.593474  1
  Si  Si353  1  0.000000  0.107081  0.203993  1
  Si  Si354  1  0.081533  0.035687  0.184044  1
  Si  Si355  1  0.584301  0.035674  0.244975  1
  Si  Si356  1  0.333022  0.035809  0.244922  1
  Si  Si357  1  0.584654  0.035726  0.184074  1
  Si  Si358  1  0.748317  0.107163  0.203991  1
  Si  Si359  1  0.917990  0.321529  0.164473  1
  Si  Si360  1  0.668021  0.321537  0.164472  1
  Si  Si361  1  0.917163  0.178420  0.164246  1
  Si  Si362  1  0.667265  0.178486  0.164225  1
  Si  Si363  1  0.748881  0.249935  0.203800  1
  Si  Si364  1  0.998815  0.249902  0.203774  1
  Si  Si365  1  0.082053  0.464299  0.183840  1
  Si  Si366  1  0.584456  0.464367  0.244766  1
  Si  Si367  1  0.333288  0.464437  0.244771  1
  Si  Si368  1  0.584530  0.464465  0.183827  1
  Si  Si369  1  0.748631  0.393115  0.203887  1
  Si  Si370  1  0.000000  0.393070  0.203946  1
  Si  Si371  1  0.748798  0.606965  0.203579  1
  Si  Si372  1  0.666571  0.535659  0.163707  1
  Si  Si373  1  0.917905  0.535658  0.163785  1
  Si  Si374  1  -0.000000  0.606974  0.203646  1
  Si  Si375  1  0.748706  0.606908  0.264602  1
  Si  Si376  1  0.251837  0.607293  0.264630  1
  Si  Si377  1  0.332112  0.821707  0.244951  1
  Si  Si378  1  0.584449  0.821591  0.183980  1
  Si  Si379  1  0.584475  0.821522  0.244610  1
  Si  Si380  1  0.082864  0.821627  0.184155  1
  Si  Si381  1  0.332114  0.678588  0.244304  1
  Si  Si382  1  0.585996  0.678479  0.184010  1
  Si  Si383  1  0.586006  0.678437  0.244663  1
  Si  Si384  1  0.081481  0.678444  0.183832  1
  Si  Si385  1  -0.000000  0.750040  0.203646  1
  Si  Si386  1  0.747753  0.750107  0.264322  1
  Si  Si387  1  0.250846  0.749889  0.264318  1
  Si  Si388  1  0.747655  0.750168  0.203655  1
  Si  Si389  1  0.748284  0.892919  0.203787  1
  Si  Si390  1  0.666401  0.964361  0.164085  1
  Si  Si391  1  0.917451  0.964313  0.164037  1
  Si  Si392  1  -0.000000  0.892886  0.203755  1
  Si  Si393  1  0.000000  0.107081  0.446628  1
  Si  Si394  1  0.250856  0.106899  0.325890  1
  Si  Si395  1  0.081533  0.035687  0.426679  1
  Si  Si396  1  0.584301  0.035674  0.487610  1
  Si  Si397  1  0.333193  0.035662  0.365833  1
  Si  Si398  1  0.333022  0.035809  0.487557  1
  Si  Si399  1  0.081907  0.035477  0.365773  1
  Si  Si400  1  0.584654  0.035726  0.426709  1
  Si  Si401  1  -0.000000  0.106760  0.325880  1
  Si  Si402  1  0.251206  0.107144  0.264901  1
  Si  Si403  1  0.748317  0.107163  0.446625  1
  Si  Si404  1  0.747974  0.107102  0.264901  1
  Si  Si405  1  0.917990  0.321529  0.407108  1
  Si  Si406  1  0.667328  0.321597  0.284727  1
  Si  Si407  1  0.415560  0.321559  0.345515  1
  Si  Si408  1  0.414222  0.321620  0.284710  1
  Si  Si409  1  0.916641  0.321512  0.345515  1
  Si  Si410  1  0.668021  0.321537  0.407106  1
  Si  Si411  1  0.917163  0.178420  0.406880  1
  Si  Si412  1  0.667958  0.178472  0.285190  1
  Si  Si413  1  0.413387  0.178461  0.345643  1
  Si  Si414  1  0.414790  0.178527  0.285177  1
  Si  Si415  1  0.918607  0.178317  0.345650  1
  Si  Si416  1  0.667265  0.178486  0.406860  1
  Si  Si417  1  0.998781  0.250047  0.325917  1
  Si  Si418  1  0.252026  0.250019  0.265243  1
  Si  Si419  1  0.748881  0.249935  0.446435  1
  Si  Si420  1  0.748827  0.249910  0.265251  1
  Si  Si421  1  0.998815  0.249902  0.446409  1
  Si  Si422  1  0.252009  0.250221  0.325898  1
  Si  Si423  1  0.251591  0.392865  0.325894  1
  Si  Si424  1  0.082053  0.464299  0.426475  1
  Si  Si425  1  0.584456  0.464367  0.487401  1
  Si  Si426  1  0.333261  0.464379  0.365521  1
  Si  Si427  1  0.333288  0.464437  0.487405  1
  Si  Si428  1  0.082139  0.464125  0.365540  1
  Si  Si429  1  0.584530  0.464465  0.426462  1
  Si  Si430  1  -0.000000  0.392681  0.325834  1
  Si  Si431  1  0.251592  0.393167  0.264868  1
  Si  Si432  1  0.748631  0.393115  0.446521  1
  Si  Si433  1  0.748588  0.393018  0.264830  1
  Si  Si434  1  -0.000000  0.393070  0.446581  1
  Si  Si435  1  0.748798  0.606965  0.446214  1
  Si  Si436  1  -0.000000  0.606844  0.325508  1
  Si  Si437  1  0.918232  0.535535  0.345510  1
  Si  Si438  1  0.415381  0.535832  0.284564  1
  Si  Si439  1  0.666571  0.535659  0.406341  1
  Si  Si440  1  0.666719  0.535672  0.284652  1
  Si  Si441  1  0.917905  0.535658  0.406420  1
  Si  Si442  1  0.415038  0.535699  0.345470  1
  Si  Si443  1  0.000000  0.606974  0.446281  1
  Si  Si444  1  0.748706  0.606908  0.507237  1
  Si  Si445  1  0.251748  0.607221  0.325575  1
  Si  Si446  1  0.251837  0.607293  0.507265  1
  Si  Si447  1  0.082893  0.821412  0.365368  1
  Si  Si448  1  0.332112  0.821707  0.487585  1
  Si  Si449  1  0.584449  0.821591  0.426614  1
  Si  Si450  1  0.584475  0.821522  0.487244  1
  Si  Si451  1  0.082864  0.821627  0.426790  1
  Si  Si452  1  0.332100  0.821563  0.365031  1
  Si  Si453  1  0.081441  0.678314  0.365055  1
  Si  Si454  1  0.332114  0.678588  0.486939  1
  Si  Si455  1  0.585996  0.678479  0.426644  1
  Si  Si456  1  0.586006  0.678437  0.487297  1
  Si  Si457  1  0.081481  0.678444  0.426467  1
  Si  Si458  1  0.332081  0.678494  0.365402  1
  Si  Si459  1  0.000000  0.750040  0.446281  1
  Si  Si460  1  0.747753  0.750107  0.506957  1
  Si  Si461  1  0.250904  0.749886  0.325779  1
  Si  Si462  1  0.250846  0.749889  0.506953  1
  Si  Si463  1  0.000000  0.749988  0.325795  1
  Si  Si464  1  0.747655  0.750168  0.446289  1
  Si  Si465  1  0.748284  0.892919  0.446421  1
  Si  Si466  1  0.000000  0.892833  0.325715  1
  Si  Si467  1  0.917576  0.964157  0.345740  1
  Si  Si468  1  0.415301  0.964520  0.284827  1
  Si  Si469  1  0.666401  0.964361  0.406720  1
  Si  Si470  1  0.666396  0.964291  0.284782  1
  Si  Si471  1  0.917451  0.964313  0.406671  1
  Si  Si472  1  0.415241  0.964437  0.345765  1
  Si  Si473  1  -0.000000  0.892886  0.446389  1
  Si  Si474  1  0.748005  0.892921  0.264777  1
  Si  Si475  1  0.250692  0.893188  0.325679  1
  Si  Si476  1  0.250995  0.893213  0.264771  1
  Si  Si477  1  0.250856  0.106899  0.568525  1
  Si  Si478  1  0.333193  0.035662  0.608468  1
  Si  Si479  1  0.081907  0.035477  0.608407  1
  Si  Si480  1  -0.000000  0.106760  0.568514  1
  Si  Si481  1  0.251206  0.107144  0.507536  1
  Si  Si482  1  0.747974  0.107102  0.507535  1
  Si  Si483  1  0.667328  0.321597  0.527361  1
  Si  Si484  1  0.415560  0.321559  0.588149  1
  Si  Si485  1  0.414222  0.321620  0.527344  1
  Si  Si486  1  0.916641  0.321512  0.588149  1
  Si  Si487  1  0.667958  0.178472  0.527824  1
  Si  Si488  1  0.413387  0.178461  0.588278  1
  Si  Si489  1  0.414790  0.178527  0.527812  1
  Si  Si490  1  0.918607  0.178317  0.588285  1
  Si  Si491  1  0.998781  0.250047  0.568551  1
  Si  Si492  1  0.252026  0.250019  0.507878  1
  Si  Si493  1  0.748827  0.249910  0.507885  1
  Si  Si494  1  0.252009  0.250221  0.568532  1
  Si  Si495  1  0.251591  0.392865  0.568529  1
  Si  Si496  1  0.333261  0.464379  0.608155  1
  Si  Si497  1  0.082139  0.464125  0.608175  1
  Si  Si498  1  0.000000  0.392681  0.568468  1
  Si  Si499  1  0.251592  0.393167  0.507503  1
  Si  Si500  1  0.748588  0.393018  0.507464  1
  Si  Si501  1  0.000000  0.606844  0.568143  1
  Si  Si502  1  0.918232  0.535535  0.588145  1
  Si  Si503  1  0.415381  0.535832  0.527199  1
  Si  Si504  1  0.666719  0.535672  0.527287  1
  Si  Si505  1  0.415038  0.535699  0.588104  1
  Si  Si506  1  0.251748  0.607221  0.568209  1
  Si  Si507  1  0.082893  0.821412  0.608003  1
  Si  Si508  1  0.332100  0.821563  0.607666  1
  Si  Si509  1  0.081441  0.678314  0.607689  1
  Si  Si510  1  0.332081  0.678494  0.608036  1
  Si  Si511  1  0.250904  0.749886  0.568413  1
  Si  Si512  1  -0.000000  0.749988  0.568430  1
  Si  Si513  1  -0.000000  0.892833  0.568349  1
  Si  Si514  1  0.917576  0.964157  0.588375  1
  Si  Si515  1  0.415301  0.964520  0.527462  1
  Si  Si516  1  0.666396  0.964291  0.527417  1
  Si  Si517  1  0.415241  0.964437  0.588400  1
  Si  Si518  1  0.748005  0.892921  0.507412  1
  Si  Si519  1  0.250692  0.893188  0.568314  1
  Si  Si520  1  0.250995  0.893213  0.507405  1
  H  H521  1  0.094523  0.041279  0.137382  1
  H  H522  1  0.452377  0.041342  0.137473  1
  H  H523  1  0.920837  0.320090  0.116344  1
  H  H524  1  0.540126  0.319890  0.116316  1
  H  H525  1  0.922295  0.179919  0.116411  1
  H  H526  1  0.538133  0.179941  0.116400  1
  H  H527  1  0.095207  0.458546  0.137216  1
  H  H528  1  0.452399  0.458797  0.137187  1
  H  H529  1  0.905527  0.541400  0.114042  1
  H  H530  1  0.547357  0.541289  0.113914  1
  H  H531  1  0.079747  0.820341  0.135309  1
  H  H532  1  0.460482  0.820021  0.134904  1
  H  H533  1  0.076742  0.680212  0.134794  1
  H  H534  1  0.460698  0.680027  0.135222  1
  H  H535  1  0.904107  0.958688  0.114191  1
  H  H536  1  0.547295  0.958723  0.114272  1
  H  H537  1  0.094523  0.041279  0.658166  1
  H  H538  1  0.452377  0.041342  0.658257  1
  H  H539  1  0.920837  0.320090  0.637128  1
  H  H540  1  0.540126  0.319890  0.637100  1
  H  H541  1  0.922295  0.179919  0.637195  1
  H  H542  1  0.538133  0.179941  0.637184  1
  H  H543  1  0.095207  0.458546  0.658000  1
  H  H544  1  0.452399  0.458797  0.657971  1
  H  H545  1  0.905527  0.541400  0.634827  1
  H  H546  1  0.547357  0.541289  0.634699  1
  H  H547  1  0.079747  0.820341  0.656093  1
  H  H548  1  0.460482  0.820021  0.655688  1
  H  H549  1  0.076742  0.680212  0.655578  1
  H  H550  1  0.460698  0.680027  0.656007  1
  H  H551  1  0.904107  0.958688  0.634976  1
  H  H552  1  0.547295  0.958723  0.635056  1
