# generated using pymatgen
data_Si9H2O19
_symmetry_space_group_name_H-M   'P 1'
_cell_length_a   25.37533796
_cell_length_b   21.33911566
_cell_length_c   86.23817524
_cell_angle_alpha   149.99891297
_cell_angle_beta   90.00000000
_cell_angle_gamma   90.00000000
_symmetry_Int_Tables_number   1
_chemical_formula_structural   Si9H2O19
_chemical_formula_sum   'Si180 H40 O380'
_cell_volume   23349.2043575
_cell_formula_units_Z   20
loop_
 _symmetry_equiv_pos_site_id
 _symmetry_equiv_pos_as_xyz
  1  'x, y, z'
loop_
 _atom_site_type_symbol
 _atom_site_label
 _atom_site_symmetry_multiplicity
 _atom_site_fract_x
 _atom_site_fract_y
 _atom_site_fract_z
 _atom_site_occupancy
  Si  Si1  1  0.899780  0.667996  0.321808  1
  Si  Si2  1  0.899774  0.918784  0.321832  1
  Si  Si3  1  0.899769  0.417317  0.357234  1
  Si  Si4  1  0.899761  0.417263  0.393042  1
  Si  Si5  1  0.899783  0.668009  0.393054  1
  Si  Si6  1  0.899783  0.918729  0.357633  1
  Si  Si7  1  0.799857  0.334674  0.393055  1
  Si  Si8  1  0.799839  0.083856  0.393035  1
  Si  Si9  1  0.799869  0.585434  0.357652  1
  Si  Si10  1  0.799870  0.585494  0.321843  1
  Si  Si11  1  0.799859  0.334656  0.321818  1
  Si  Si12  1  0.799832  0.083917  0.357225  1
  Si  Si13  1  0.999673  0.001369  0.321816  1
  Si  Si14  1  0.999690  0.252112  0.321826  1
  Si  Si15  1  0.999690  0.252086  0.357637  1
  Si  Si16  1  0.999675  0.750656  0.357231  1
  Si  Si17  1  0.999682  0.001372  0.393052  1
  Si  Si18  1  0.999670  0.750628  0.393041  1
  Si  Si19  1  0.699890  0.001431  0.393060  1
  Si  Si20  1  0.699879  0.001413  0.321865  1
  Si  Si21  1  0.699903  0.252313  0.321862  1
  Si  Si22  1  0.699887  0.750388  0.357186  1
  Si  Si23  1  0.699887  0.750328  0.393003  1
  Si  Si24  1  0.599823  0.669121  0.322102  1
  Si  Si25  1  0.599831  0.918431  0.321640  1
  Si  Si26  1  0.599819  0.416551  0.357185  1
  Si  Si27  1  0.599823  0.416536  0.392797  1
  Si  Si28  1  0.599815  0.669117  0.393269  1
  Si  Si29  1  0.599838  0.918414  0.357718  1
  Si  Si30  1  0.699897  0.252255  0.357711  1
  Si  Si31  1  0.499675  0.001374  0.321897  1
  Si  Si32  1  0.299466  0.001330  0.393021  1
  Si  Si33  1  0.299475  0.750525  0.393046  1
  Si  Si34  1  0.299471  0.252389  0.357719  1
  Si  Si35  1  0.399534  0.333647  0.392803  1
  Si  Si36  1  0.399536  0.084358  0.393272  1
  Si  Si37  1  0.399538  0.586214  0.357723  1
  Si  Si38  1  0.399542  0.586211  0.322108  1
  Si  Si39  1  0.399552  0.333652  0.321642  1
  Si  Si40  1  0.399511  0.084351  0.357189  1
  Si  Si41  1  0.299472  0.750498  0.357180  1
  Si  Si42  1  0.299461  0.001351  0.321849  1
  Si  Si43  1  0.299474  0.252359  0.321882  1
  Si  Si44  1  0.499682  0.750341  0.393022  1
  Si  Si45  1  0.499682  0.750342  0.357155  1
  Si  Si46  1  0.499683  0.252397  0.357750  1
  Si  Si47  1  0.499677  0.001365  0.393007  1
  Si  Si48  1  0.499681  0.252399  0.321882  1
  Si  Si49  1  0.099587  0.334736  0.393058  1
  Si  Si50  1  0.099577  0.083998  0.393046  1
  Si  Si51  1  0.099593  0.585434  0.357642  1
  Si  Si52  1  0.099591  0.585439  0.321825  1
  Si  Si53  1  0.099589  0.334743  0.321823  1
  Si  Si54  1  0.099574  0.083999  0.357233  1
  Si  Si55  1  0.199512  0.668092  0.321837  1
  Si  Si56  1  0.199501  0.918816  0.321835  1
  Si  Si57  1  0.199504  0.417297  0.357222  1
  Si  Si58  1  0.199500  0.417325  0.393050  1
  Si  Si59  1  0.199507  0.668070  0.393053  1
  Si  Si60  1  0.199514  0.918842  0.357664  1
  O  O61  1  0.891786  0.786904  0.336952  1
  O  O62  1  0.891775  0.786974  0.286016  1
  O  O63  1  0.891735  0.430078  0.377879  1
  O  O64  1  0.850121  0.355004  0.387212  1
  O  O65  1  0.850113  0.002312  0.378470  1
  O  O66  1  0.850125  0.646611  0.378049  1
  O  O67  1  0.850123  0.646667  0.327661  1
  O  O68  1  0.850128  0.355054  0.336384  1
  O  O69  1  0.850101  0.002381  0.336832  1
  O  O70  1  0.949824  0.688608  0.336513  1
  O  O71  1  0.949802  0.980519  0.327702  1
  O  O72  1  0.949820  0.335033  0.336661  1
  O  O73  1  0.949817  0.334975  0.378341  1
  O  O74  1  0.949822  0.688582  0.387171  1
  O  O75  1  0.949815  0.980463  0.378218  1
  O  O76  1  0.791757  0.453812  0.286022  1
  O  O77  1  0.791707  0.096369  0.377805  1
  O  O78  1  0.791764  0.453735  0.337030  1
  O  O79  1  0.750483  0.669938  0.378750  1
  O  O80  1  0.807133  0.216746  0.378335  1
  O  O81  1  0.807146  0.216670  0.285996  1
  O  O82  1  0.807186  0.570681  0.336579  1
  O  O83  1  0.907377  0.549853  0.378227  1
  O  O84  1  0.907374  0.549782  0.285993  1
  O  O85  1  0.907404  0.904493  0.336675  1
  O  O86  1  0.991867  0.764176  0.378037  1
  O  O87  1  0.991904  0.119920  0.336807  1
  O  O88  1  0.991898  0.119959  0.286013  1
  O  O89  1  0.750475  0.313290  0.377924  1
  O  O90  1  0.750475  0.020729  0.387086  1
  O  O91  1  0.750483  0.670018  0.336978  1
  O  O92  1  0.750483  0.313332  0.327802  1
  O  O93  1  0.750460  0.020786  0.336124  1
  O  O94  1  0.706406  0.235930  0.336282  1
  O  O95  1  0.706363  0.884157  0.378658  1
  O  O96  1  0.706371  0.884080  0.286004  1
  O  O97  1  0.507043  0.119249  0.336552  1
  O  O98  1  0.507031  0.119242  0.286015  1
  O  O99  1  0.507030  0.765660  0.378371  1
  O  O100  1  0.650646  0.980030  0.377855  1
  O  O101  1  0.650661  0.686687  0.386976  1
  O  O102  1  0.650653  0.337273  0.378952  1
  O  O103  1  0.650662  0.337354  0.337068  1
  O  O104  1  0.650632  0.980061  0.327908  1
  O  O105  1  0.650659  0.686748  0.335938  1
  O  O106  1  0.549759  0.687913  0.336497  1
  O  O107  1  0.549730  0.981577  0.327991  1
  O  O108  1  0.549760  0.334570  0.336446  1
  O  O109  1  0.549750  0.334603  0.378412  1
  O  O110  1  0.549759  0.687922  0.386928  1
  O  O111  1  0.549747  0.981577  0.378436  1
  O  O112  1  0.599633  0.778598  0.333408  1
  O  O113  1  0.599631  0.778616  0.286027  1
  O  O114  1  0.599631  0.446854  0.381486  1
  O  O115  1  0.599320  0.925098  0.341108  1
  O  O116  1  0.599189  0.539525  0.373809  1
  O  O117  1  0.599231  0.539496  0.286019  1
  O  O118  1  0.691282  0.762577  0.377713  1
  O  O119  1  0.691310  0.120655  0.337138  1
  O  O120  1  0.691311  0.120730  0.286035  1
  O  O121  1  0.292980  0.766913  0.378627  1
  O  O122  1  0.292980  0.118659  0.336264  1
  O  O123  1  0.292982  0.118620  0.286024  1
  O  O124  1  0.492322  0.883490  0.378353  1
  O  O125  1  0.492324  0.883496  0.286032  1
  O  O126  1  0.492331  0.237083  0.336534  1
  O  O127  1  0.348689  0.022742  0.337059  1
  O  O128  1  0.348715  0.315996  0.327917  1
  O  O129  1  0.348716  0.665460  0.335943  1
  O  O130  1  0.348712  0.665490  0.377848  1
  O  O131  1  0.348711  0.022750  0.386994  1
  O  O132  1  0.348704  0.316025  0.378963  1
  O  O133  1  0.449609  0.314835  0.378408  1
  O  O134  1  0.449610  0.021159  0.386917  1
  O  O135  1  0.449613  0.668134  0.378451  1
  O  O136  1  0.449617  0.668129  0.336491  1
  O  O137  1  0.449617  0.314865  0.327985  1
  O  O138  1  0.449592  0.021169  0.336462  1
  O  O139  1  0.399711  0.224159  0.381494  1
  O  O140  1  0.399746  0.224166  0.286027  1
  O  O141  1  0.399729  0.555887  0.333417  1
  O  O142  1  0.400080  0.077705  0.373805  1
  O  O143  1  0.400127  0.463257  0.341108  1
  O  O144  1  0.400133  0.463238  0.286024  1
  O  O145  1  0.308065  0.240102  0.337171  1
  O  O146  1  0.308056  0.882061  0.377736  1
  O  O147  1  0.308057  0.882099  0.286019  1
  O  O148  1  0.107590  0.215796  0.377902  1
  O  O149  1  0.107585  0.215803  0.286005  1
  O  O150  1  0.107609  0.572608  0.336984  1
  O  O151  1  0.149245  0.647698  0.327663  1
  O  O152  1  0.149230  0.000356  0.336392  1
  O  O153  1  0.149248  0.356112  0.336824  1
  O  O154  1  0.149242  0.356132  0.387222  1
  O  O155  1  0.149246  0.647692  0.378488  1
  O  O156  1  0.149243  0.000392  0.378051  1
  O  O157  1  0.049544  0.314130  0.378354  1
  O  O158  1  0.049544  0.022263  0.387172  1
  O  O159  1  0.049546  0.667738  0.378216  1
  O  O160  1  0.049547  0.667751  0.336526  1
  O  O161  1  0.049546  0.314151  0.327700  1
  O  O162  1  0.049534  0.022278  0.336652  1
  O  O163  1  0.207611  0.548997  0.286014  1
  O  O164  1  0.207627  0.906307  0.337066  1
  O  O165  1  0.207615  0.548959  0.377827  1
  O  O166  1  0.248889  0.689476  0.387092  1
  O  O167  1  0.248885  0.981987  0.378767  1
  O  O168  1  0.192215  0.786046  0.336570  1
  O  O169  1  0.192207  0.786009  0.286016  1
  O  O170  1  0.192193  0.432132  0.378312  1
  O  O171  1  0.091988  0.452919  0.336659  1
  O  O172  1  0.091982  0.452918  0.286013  1
  O  O173  1  0.091957  0.098296  0.378203  1
  O  O174  1  0.007492  0.238558  0.336830  1
  O  O175  1  0.007463  0.882819  0.378059  1
  O  O176  1  0.007457  0.882789  0.286000  1
  O  O177  1  0.248890  0.689452  0.336966  1
  O  O178  1  0.248869  0.981977  0.327799  1
  O  O179  1  0.248890  0.332770  0.336130  1
  O  O180  1  0.248882  0.332806  0.377925  1
  H  H181  1  0.891775  0.786974  0.275580  1
  H  H182  1  0.791757  0.453812  0.275586  1
  H  H183  1  0.807146  0.216670  0.275559  1
  H  H184  1  0.907374  0.549782  0.275557  1
  H  H185  1  0.991898  0.119959  0.275577  1
  H  H186  1  0.706371  0.884080  0.275568  1
  H  H187  1  0.507031  0.119242  0.275579  1
  H  H188  1  0.599631  0.778616  0.275591  1
  H  H189  1  0.599231  0.539496  0.275583  1
  H  H190  1  0.691311  0.120730  0.275598  1
  H  H191  1  0.292982  0.118620  0.275588  1
  H  H192  1  0.492324  0.883496  0.275595  1
  H  H193  1  0.399746  0.224166  0.275591  1
  H  H194  1  0.400133  0.463238  0.275588  1
  H  H195  1  0.308057  0.882099  0.275583  1
  H  H196  1  0.107585  0.215803  0.275568  1
  H  H197  1  0.207611  0.548997  0.275578  1
  H  H198  1  0.192207  0.786009  0.275580  1
  H  H199  1  0.091982  0.452918  0.275577  1
  H  H200  1  0.007457  0.882789  0.275564  1
  O  O201  1  0.891786  0.786904  0.479809  1
  O  O202  1  0.891775  0.786974  0.428873  1
  O  O203  1  0.891735  0.430078  0.520736  1
  O  O204  1  0.850121  0.355004  0.530069  1
  O  O205  1  0.850113  0.002312  0.521327  1
  O  O206  1  0.850125  0.646611  0.520906  1
  O  O207  1  0.850123  0.646667  0.470518  1
  O  O208  1  0.850128  0.355054  0.479241  1
  O  O209  1  0.850101  0.002381  0.479689  1
  O  O210  1  0.949824  0.688608  0.479370  1
  O  O211  1  0.949802  0.980519  0.470559  1
  O  O212  1  0.949820  0.335033  0.479518  1
  O  O213  1  0.949817  0.334975  0.521198  1
  O  O214  1  0.949822  0.688582  0.530028  1
  O  O215  1  0.949815  0.980463  0.521075  1
  O  O216  1  0.791757  0.453812  0.428879  1
  O  O217  1  0.791707  0.096369  0.520662  1
  O  O218  1  0.791764  0.453735  0.479887  1
  O  O219  1  0.750483  0.669938  0.521607  1
  O  O220  1  0.807133  0.216746  0.521192  1
  O  O221  1  0.807146  0.216670  0.428853  1
  O  O222  1  0.807186  0.570681  0.479436  1
  O  O223  1  0.907377  0.549853  0.521084  1
  O  O224  1  0.907374  0.549782  0.428850  1
  O  O225  1  0.907404  0.904493  0.479532  1
  O  O226  1  0.991867  0.764176  0.520894  1
  O  O227  1  0.991904  0.119920  0.479665  1
  O  O228  1  0.991898  0.119959  0.428870  1
  Si  Si229  1  0.899780  0.667996  0.464665  1
  Si  Si230  1  0.899774  0.918784  0.464689  1
  Si  Si231  1  0.899769  0.417317  0.500092  1
  Si  Si232  1  0.899761  0.417263  0.535899  1
  Si  Si233  1  0.899783  0.668009  0.535911  1
  Si  Si234  1  0.899783  0.918729  0.500490  1
  Si  Si235  1  0.799857  0.334674  0.535912  1
  Si  Si236  1  0.799839  0.083856  0.535892  1
  Si  Si237  1  0.799869  0.585434  0.500509  1
  Si  Si238  1  0.799870  0.585494  0.464700  1
  Si  Si239  1  0.799859  0.334656  0.464675  1
  Si  Si240  1  0.799832  0.083917  0.500082  1
  Si  Si241  1  0.999673  0.001369  0.464673  1
  Si  Si242  1  0.999690  0.252112  0.464683  1
  Si  Si243  1  0.999690  0.252086  0.500494  1
  O  O244  1  0.750475  0.313290  0.520781  1
  O  O245  1  0.750475  0.020729  0.529943  1
  O  O246  1  0.750483  0.670018  0.479835  1
  O  O247  1  0.750483  0.313332  0.470659  1
  O  O248  1  0.750460  0.020786  0.478981  1
  Si  Si249  1  0.999675  0.750656  0.500088  1
  Si  Si250  1  0.999682  0.001372  0.535910  1
  Si  Si251  1  0.999670  0.750628  0.535898  1
  O  O252  1  0.706406  0.235930  0.479139  1
  O  O253  1  0.706363  0.884157  0.521515  1
  O  O254  1  0.706371  0.884080  0.428861  1
  O  O255  1  0.507043  0.119249  0.479409  1
  O  O256  1  0.507031  0.119242  0.428873  1
  O  O257  1  0.507030  0.765660  0.521228  1
  O  O258  1  0.650646  0.980030  0.520712  1
  O  O259  1  0.650661  0.686687  0.529834  1
  O  O260  1  0.650653  0.337273  0.521809  1
  O  O261  1  0.650662  0.337354  0.479926  1
  O  O262  1  0.650632  0.980061  0.470765  1
  O  O263  1  0.650659  0.686748  0.478795  1
  O  O264  1  0.549759  0.687913  0.479354  1
  O  O265  1  0.549730  0.981577  0.470848  1
  O  O266  1  0.549760  0.334570  0.479303  1
  O  O267  1  0.549750  0.334603  0.521269  1
  O  O268  1  0.549759  0.687922  0.529785  1
  O  O269  1  0.549747  0.981577  0.521293  1
  O  O270  1  0.599633  0.778598  0.476265  1
  O  O271  1  0.599631  0.778616  0.428884  1
  O  O272  1  0.599631  0.446854  0.524344  1
  O  O273  1  0.599320  0.925098  0.483965  1
  O  O274  1  0.599189  0.539525  0.516666  1
  O  O275  1  0.599231  0.539496  0.428876  1
  Si  Si276  1  0.699890  0.001431  0.535917  1
  Si  Si277  1  0.699879  0.001413  0.464722  1
  Si  Si278  1  0.699903  0.252313  0.464719  1
  Si  Si279  1  0.699887  0.750388  0.500043  1
  Si  Si280  1  0.699887  0.750328  0.535860  1
  O  O281  1  0.691282  0.762577  0.520570  1
  O  O282  1  0.691310  0.120655  0.479995  1
  O  O283  1  0.691311  0.120730  0.428892  1
  Si  Si284  1  0.599823  0.669121  0.464959  1
  Si  Si285  1  0.599831  0.918431  0.464497  1
  Si  Si286  1  0.599819  0.416551  0.500042  1
  Si  Si287  1  0.599823  0.416536  0.535654  1
  Si  Si288  1  0.599815  0.669117  0.536126  1
  Si  Si289  1  0.599838  0.918414  0.500575  1
  Si  Si290  1  0.699897  0.252255  0.500568  1
  O  O291  1  0.292980  0.766913  0.521485  1
  O  O292  1  0.292980  0.118659  0.479121  1
  O  O293  1  0.292982  0.118620  0.428881  1
  O  O294  1  0.492322  0.883490  0.521210  1
  O  O295  1  0.492324  0.883496  0.428889  1
  O  O296  1  0.492331  0.237083  0.479391  1
  O  O297  1  0.348689  0.022742  0.479916  1
  O  O298  1  0.348715  0.315996  0.470774  1
  O  O299  1  0.348716  0.665460  0.478800  1
  O  O300  1  0.348712  0.665490  0.520705  1
  O  O301  1  0.348711  0.022750  0.529851  1
  O  O302  1  0.348704  0.316025  0.521820  1
  O  O303  1  0.449609  0.314835  0.521265  1
  O  O304  1  0.449610  0.021159  0.529774  1
  O  O305  1  0.449613  0.668134  0.521308  1
  O  O306  1  0.449617  0.668129  0.479348  1
  O  O307  1  0.449617  0.314865  0.470842  1
  O  O308  1  0.449592  0.021169  0.479320  1
  O  O309  1  0.399711  0.224159  0.524351  1
  O  O310  1  0.399746  0.224166  0.428884  1
  O  O311  1  0.399729  0.555887  0.476274  1
  O  O312  1  0.400080  0.077705  0.516662  1
  O  O313  1  0.400127  0.463257  0.483965  1
  O  O314  1  0.400133  0.463238  0.428881  1
  Si  Si315  1  0.499675  0.001374  0.464754  1
  Si  Si316  1  0.299466  0.001330  0.535878  1
  Si  Si317  1  0.299475  0.750525  0.535903  1
  Si  Si318  1  0.299471  0.252389  0.500576  1
  O  O319  1  0.308065  0.240102  0.480028  1
  O  O320  1  0.308056  0.882061  0.520593  1
  O  O321  1  0.308057  0.882099  0.428876  1
  Si  Si322  1  0.399534  0.333647  0.535661  1
  Si  Si323  1  0.399536  0.084358  0.536129  1
  Si  Si324  1  0.399538  0.586214  0.500580  1
  Si  Si325  1  0.399542  0.586211  0.464965  1
  Si  Si326  1  0.399552  0.333652  0.464499  1
  Si  Si327  1  0.399511  0.084351  0.500046  1
  Si  Si328  1  0.299472  0.750498  0.500037  1
  Si  Si329  1  0.299461  0.001351  0.464706  1
  Si  Si330  1  0.299474  0.252359  0.464739  1
  Si  Si331  1  0.499682  0.750341  0.535879  1
  Si  Si332  1  0.499682  0.750342  0.500012  1
  Si  Si333  1  0.499683  0.252397  0.500607  1
  Si  Si334  1  0.499677  0.001365  0.535864  1
  Si  Si335  1  0.499681  0.252399  0.464740  1
  O  O336  1  0.107590  0.215796  0.520759  1
  O  O337  1  0.107585  0.215803  0.428862  1
  O  O338  1  0.107609  0.572608  0.479841  1
  O  O339  1  0.149245  0.647698  0.470520  1
  O  O340  1  0.149230  0.000356  0.479249  1
  O  O341  1  0.149248  0.356112  0.479681  1
  O  O342  1  0.149242  0.356132  0.530079  1
  O  O343  1  0.149246  0.647692  0.521345  1
  O  O344  1  0.149243  0.000392  0.520908  1
  O  O345  1  0.049544  0.314130  0.521211  1
  O  O346  1  0.049544  0.022263  0.530030  1
  O  O347  1  0.049546  0.667738  0.521073  1
  O  O348  1  0.049547  0.667751  0.479384  1
  O  O349  1  0.049546  0.314151  0.470557  1
  O  O350  1  0.049534  0.022278  0.479510  1
  O  O351  1  0.207611  0.548997  0.428871  1
  O  O352  1  0.207627  0.906307  0.479923  1
  O  O353  1  0.207615  0.548959  0.520684  1
  O  O354  1  0.248889  0.689476  0.529949  1
  O  O355  1  0.248885  0.981987  0.521624  1
  O  O356  1  0.192215  0.786046  0.479427  1
  O  O357  1  0.192207  0.786009  0.428873  1
  O  O358  1  0.192193  0.432132  0.521169  1
  O  O359  1  0.091988  0.452919  0.479516  1
  O  O360  1  0.091982  0.452918  0.428870  1
  O  O361  1  0.091957  0.098296  0.521060  1
  O  O362  1  0.007492  0.238558  0.479687  1
  O  O363  1  0.007463  0.882819  0.520916  1
  O  O364  1  0.007457  0.882789  0.428857  1
  Si  Si365  1  0.099587  0.334736  0.535916  1
  Si  Si366  1  0.099577  0.083998  0.535903  1
  Si  Si367  1  0.099593  0.585434  0.500499  1
  Si  Si368  1  0.099591  0.585439  0.464682  1
  Si  Si369  1  0.099589  0.334743  0.464680  1
  Si  Si370  1  0.099574  0.083999  0.500090  1
  Si  Si371  1  0.199512  0.668092  0.464695  1
  Si  Si372  1  0.199501  0.918816  0.464692  1
  Si  Si373  1  0.199504  0.417297  0.500079  1
  Si  Si374  1  0.199500  0.417325  0.535907  1
  Si  Si375  1  0.199507  0.668070  0.535910  1
  Si  Si376  1  0.199514  0.918842  0.500522  1
  O  O377  1  0.248890  0.689452  0.479823  1
  O  O378  1  0.248869  0.981977  0.470656  1
  O  O379  1  0.248890  0.332770  0.478988  1
  O  O380  1  0.248882  0.332806  0.520783  1
  Si  Si381  1  0.899780  0.667996  0.607522  1
  Si  Si382  1  0.899774  0.918784  0.607546  1
  Si  Si383  1  0.899769  0.417317  0.642949  1
  Si  Si384  1  0.899761  0.417263  0.678756  1
  Si  Si385  1  0.899783  0.668009  0.678768  1
  Si  Si386  1  0.899783  0.918729  0.643348  1
  Si  Si387  1  0.799857  0.334674  0.678769  1
  Si  Si388  1  0.799839  0.083856  0.678749  1
  Si  Si389  1  0.799869  0.585434  0.643366  1
  Si  Si390  1  0.799870  0.585494  0.607558  1
  Si  Si391  1  0.799859  0.334656  0.607533  1
  Si  Si392  1  0.799832  0.083917  0.642939  1
  Si  Si393  1  0.999673  0.001369  0.607530  1
  Si  Si394  1  0.999690  0.252112  0.607540  1
  Si  Si395  1  0.999690  0.252086  0.643351  1
  Si  Si396  1  0.999675  0.750656  0.642945  1
  Si  Si397  1  0.999682  0.001372  0.678767  1
  Si  Si398  1  0.999670  0.750628  0.678756  1
  Si  Si399  1  0.699890  0.001431  0.678774  1
  Si  Si400  1  0.699879  0.001413  0.607579  1
  Si  Si401  1  0.699903  0.252313  0.607576  1
  Si  Si402  1  0.699887  0.750388  0.642900  1
  Si  Si403  1  0.699887  0.750328  0.678717  1
  Si  Si404  1  0.599823  0.669121  0.607816  1
  Si  Si405  1  0.599831  0.918431  0.607354  1
  Si  Si406  1  0.599819  0.416551  0.642900  1
  Si  Si407  1  0.599823  0.416536  0.678511  1
  Si  Si408  1  0.599815  0.669117  0.678983  1
  Si  Si409  1  0.599838  0.918414  0.643432  1
  Si  Si410  1  0.699897  0.252255  0.643425  1
  Si  Si411  1  0.499675  0.001374  0.607612  1
  Si  Si412  1  0.299466  0.001330  0.678736  1
  Si  Si413  1  0.299475  0.750525  0.678760  1
  Si  Si414  1  0.299471  0.252389  0.643433  1
  Si  Si415  1  0.399534  0.333647  0.678518  1
  Si  Si416  1  0.399536  0.084358  0.678986  1
  Si  Si417  1  0.399538  0.586214  0.643437  1
  Si  Si418  1  0.399542  0.586211  0.607822  1
  Si  Si419  1  0.399552  0.333652  0.607356  1
  Si  Si420  1  0.399511  0.084351  0.642904  1
  Si  Si421  1  0.299472  0.750498  0.642894  1
  Si  Si422  1  0.299461  0.001351  0.607563  1
  Si  Si423  1  0.299474  0.252359  0.607597  1
  Si  Si424  1  0.499682  0.750341  0.678736  1
  Si  Si425  1  0.499682  0.750342  0.642869  1
  Si  Si426  1  0.499683  0.252397  0.643464  1
  Si  Si427  1  0.499677  0.001365  0.678721  1
  Si  Si428  1  0.499681  0.252399  0.607597  1
  Si  Si429  1  0.099587  0.334736  0.678773  1
  Si  Si430  1  0.099577  0.083998  0.678760  1
  Si  Si431  1  0.099593  0.585434  0.643356  1
  Si  Si432  1  0.099591  0.585439  0.607539  1
  Si  Si433  1  0.099589  0.334743  0.607537  1
  Si  Si434  1  0.099574  0.083999  0.642947  1
  Si  Si435  1  0.199512  0.668092  0.607552  1
  Si  Si436  1  0.199501  0.918816  0.607549  1
  Si  Si437  1  0.199504  0.417297  0.642936  1
  Si  Si438  1  0.199500  0.417325  0.678764  1
  Si  Si439  1  0.199507  0.668070  0.678767  1
  Si  Si440  1  0.199514  0.918842  0.643379  1
  O  O441  1  0.891786  0.786904  0.622666  1
  O  O442  1  0.891775  0.786974  0.571730  1
  O  O443  1  0.891735  0.430078  0.663593  1
  O  O444  1  0.850121  0.355004  0.672926  1
  O  O445  1  0.850113  0.002312  0.664184  1
  O  O446  1  0.850125  0.646611  0.663763  1
  O  O447  1  0.850123  0.646667  0.613375  1
  O  O448  1  0.850128  0.355054  0.622098  1
  O  O449  1  0.850101  0.002381  0.622546  1
  O  O450  1  0.949824  0.688608  0.622227  1
  O  O451  1  0.949802  0.980519  0.613416  1
  O  O452  1  0.949820  0.335033  0.622375  1
  O  O453  1  0.949817  0.334975  0.664055  1
  O  O454  1  0.949822  0.688582  0.672885  1
  O  O455  1  0.949815  0.980463  0.663932  1
  O  O456  1  0.791757  0.453812  0.571736  1
  O  O457  1  0.791707  0.096369  0.663519  1
  O  O458  1  0.791764  0.453735  0.622744  1
  O  O459  1  0.750483  0.669938  0.664464  1
  O  O460  1  0.807133  0.216746  0.664049  1
  O  O461  1  0.807146  0.216670  0.571710  1
  O  O462  1  0.807186  0.570681  0.622294  1
  O  O463  1  0.907377  0.549853  0.663941  1
  O  O464  1  0.907374  0.549782  0.571707  1
  O  O465  1  0.907404  0.904493  0.622390  1
  O  O466  1  0.991867  0.764176  0.663751  1
  O  O467  1  0.991904  0.119920  0.622522  1
  O  O468  1  0.991898  0.119959  0.571727  1
  O  O469  1  0.750475  0.313290  0.663638  1
  O  O470  1  0.750475  0.020729  0.672800  1
  O  O471  1  0.750483  0.670018  0.622693  1
  O  O472  1  0.750483  0.313332  0.613516  1
  O  O473  1  0.750460  0.020786  0.621838  1
  O  O474  1  0.706406  0.235930  0.621996  1
  O  O475  1  0.706363  0.884157  0.664372  1
  O  O476  1  0.706371  0.884080  0.571718  1
  O  O477  1  0.507043  0.119249  0.622266  1
  O  O478  1  0.507031  0.119242  0.571730  1
  O  O479  1  0.507030  0.765660  0.664085  1
  O  O480  1  0.650646  0.980030  0.663569  1
  O  O481  1  0.650661  0.686687  0.672691  1
  O  O482  1  0.650653  0.337273  0.664666  1
  O  O483  1  0.650662  0.337354  0.622783  1
  O  O484  1  0.650632  0.980061  0.613622  1
  O  O485  1  0.650659  0.686748  0.621652  1
  O  O486  1  0.549759  0.687913  0.622211  1
  O  O487  1  0.549730  0.981577  0.613705  1
  O  O488  1  0.549760  0.334570  0.622161  1
  O  O489  1  0.549750  0.334603  0.664126  1
  O  O490  1  0.549759  0.687922  0.672642  1
  O  O491  1  0.549747  0.981577  0.664150  1
  O  O492  1  0.599633  0.778598  0.619123  1
  O  O493  1  0.599631  0.778616  0.571741  1
  O  O494  1  0.599631  0.446854  0.667201  1
  O  O495  1  0.599320  0.925098  0.626823  1
  O  O496  1  0.599189  0.539525  0.659524  1
  O  O497  1  0.599231  0.539496  0.571733  1
  O  O498  1  0.691282  0.762577  0.663427  1
  O  O499  1  0.691310  0.120655  0.622852  1
  O  O500  1  0.691311  0.120730  0.571749  1
  O  O501  1  0.292980  0.766913  0.664342  1
  O  O502  1  0.292980  0.118659  0.621978  1
  O  O503  1  0.292982  0.118620  0.571738  1
  O  O504  1  0.492322  0.883490  0.664068  1
  O  O505  1  0.492324  0.883496  0.571746  1
  O  O506  1  0.492331  0.237083  0.622249  1
  O  O507  1  0.348689  0.022742  0.622773  1
  O  O508  1  0.348715  0.315996  0.613631  1
  O  O509  1  0.348716  0.665460  0.621658  1
  O  O510  1  0.348712  0.665490  0.663562  1
  O  O511  1  0.348711  0.022750  0.672708  1
  O  O512  1  0.348704  0.316025  0.664677  1
  O  O513  1  0.449609  0.314835  0.664123  1
  O  O514  1  0.449610  0.021159  0.672631  1
  O  O515  1  0.449613  0.668134  0.664165  1
  O  O516  1  0.449617  0.668129  0.622205  1
  O  O517  1  0.449617  0.314865  0.613699  1
  O  O518  1  0.449592  0.021169  0.622177  1
  O  O519  1  0.399711  0.224159  0.667208  1
  O  O520  1  0.399746  0.224166  0.571741  1
  O  O521  1  0.399729  0.555887  0.619131  1
  O  O522  1  0.400080  0.077705  0.659519  1
  O  O523  1  0.400127  0.463257  0.626822  1
  O  O524  1  0.400133  0.463238  0.571738  1
  O  O525  1  0.308065  0.240102  0.622885  1
  O  O526  1  0.308056  0.882061  0.663450  1
  O  O527  1  0.308057  0.882099  0.571733  1
  O  O528  1  0.107590  0.215796  0.663616  1
  O  O529  1  0.107585  0.215803  0.571719  1
  O  O530  1  0.107609  0.572608  0.622698  1
  O  O531  1  0.149245  0.647698  0.613377  1
  O  O532  1  0.149230  0.000356  0.622106  1
  O  O533  1  0.149248  0.356112  0.622538  1
  O  O534  1  0.149242  0.356132  0.672936  1
  O  O535  1  0.149246  0.647692  0.664202  1
  O  O536  1  0.149243  0.000392  0.663765  1
  O  O537  1  0.049544  0.314130  0.664068  1
  O  O538  1  0.049544  0.022263  0.672887  1
  O  O539  1  0.049546  0.667738  0.663930  1
  O  O540  1  0.049547  0.667751  0.622241  1
  O  O541  1  0.049546  0.314151  0.613414  1
  O  O542  1  0.049534  0.022278  0.622367  1
  O  O543  1  0.207611  0.548997  0.571728  1
  O  O544  1  0.207627  0.906307  0.622780  1
  O  O545  1  0.207615  0.548959  0.663541  1
  O  O546  1  0.248889  0.689476  0.672806  1
  O  O547  1  0.248885  0.981987  0.664481  1
  O  O548  1  0.192215  0.786046  0.622284  1
  O  O549  1  0.192207  0.786009  0.571731  1
  O  O550  1  0.192193  0.432132  0.664026  1
  O  O551  1  0.091988  0.452919  0.622373  1
  O  O552  1  0.091982  0.452918  0.571727  1
  O  O553  1  0.091957  0.098296  0.663917  1
  O  O554  1  0.007492  0.238558  0.622544  1
  O  O555  1  0.007463  0.882819  0.663773  1
  O  O556  1  0.007457  0.882789  0.571714  1
  O  O557  1  0.248890  0.689452  0.622681  1
  O  O558  1  0.248869  0.981977  0.613513  1
  O  O559  1  0.248890  0.332770  0.621845  1
  O  O560  1  0.248882  0.332806  0.663640  1
  O  O561  1  0.891775  0.786974  0.714587  1
  O  O562  1  0.791757  0.453812  0.714593  1
  O  O563  1  0.807146  0.216670  0.714567  1
  O  O564  1  0.907374  0.549782  0.714565  1
  O  O565  1  0.991898  0.119959  0.714584  1
  O  O566  1  0.706371  0.884080  0.714575  1
  O  O567  1  0.507031  0.119242  0.714587  1
  O  O568  1  0.599631  0.778616  0.714598  1
  O  O569  1  0.599231  0.539496  0.714590  1
  O  O570  1  0.691311  0.120730  0.714606  1
  O  O571  1  0.292982  0.118620  0.714595  1
  O  O572  1  0.492324  0.883496  0.714603  1
  O  O573  1  0.399746  0.224166  0.714599  1
  O  O574  1  0.400133  0.463238  0.714595  1
  O  O575  1  0.308057  0.882099  0.714590  1
  O  O576  1  0.107585  0.215803  0.714576  1
  O  O577  1  0.207611  0.548997  0.714586  1
  O  O578  1  0.192207  0.786009  0.714588  1
  O  O579  1  0.091982  0.452918  0.714584  1
  O  O580  1  0.007457  0.882789  0.714571  1
  H  H581  1  0.891775  0.786974  0.725023  1
  H  H582  1  0.791757  0.453812  0.725029  1
  H  H583  1  0.807146  0.216670  0.725003  1
  H  H584  1  0.907374  0.549782  0.725001  1
  H  H585  1  0.991898  0.119959  0.725020  1
  H  H586  1  0.706371  0.884080  0.725011  1
  H  H587  1  0.507031  0.119242  0.725023  1
  H  H588  1  0.599631  0.778616  0.725035  1
  H  H589  1  0.599231  0.539496  0.725026  1
  H  H590  1  0.691311  0.120730  0.725042  1
  H  H591  1  0.292982  0.118620  0.725032  1
  H  H592  1  0.492324  0.883496  0.725039  1
  H  H593  1  0.399746  0.224166  0.725035  1
  H  H594  1  0.400133  0.463238  0.725032  1
  H  H595  1  0.308057  0.882099  0.725026  1
  H  H596  1  0.107585  0.215803  0.725012  1
  H  H597  1  0.207611  0.548997  0.725022  1
  H  H598  1  0.192207  0.786009  0.725024  1
  H  H599  1  0.091982  0.452918  0.725020  1
  H  H600  1  0.007457  0.882789  0.725007  1
