# generated using pymatgen
data_Si6H2O13
_symmetry_space_group_name_H-M   'P 1'
_cell_length_a   34.60850121
_cell_length_b   34.61039952
_cell_length_c   51.91288063
_cell_angle_alpha   90.00000000
_cell_angle_beta   45.00674678
_cell_angle_gamma   59.99402408
_symmetry_Int_Tables_number   1
_chemical_formula_structural   Si6H2O13
_chemical_formula_sum   'Si144 H48 O312'
_cell_volume   31092.6941105
_cell_formula_units_Z   24
loop_
 _symmetry_equiv_pos_site_id
 _symmetry_equiv_pos_as_xyz
  1  'x, y, z'
loop_
 _atom_site_type_symbol
 _atom_site_label
 _atom_site_symmetry_multiplicity
 _atom_site_fract_x
 _atom_site_fract_y
 _atom_site_fract_z
 _atom_site_occupancy
  O  O1  1  0.648181  0.250045  0.429122  1
  O  O2  1  0.953493  0.148223  0.237240  1
  O  O3  1  0.101669  0.250032  0.237273  1
  O  O4  1  -0.000000  0.148224  0.333165  1
  O  O5  1  0.851675  0.000000  0.333217  1
  O  O6  1  0.648100  0.101867  0.429188  1
  O  O7  1  0.398180  0.250029  0.429133  1
  O  O8  1  0.101744  0.148212  0.237217  1
  O  O9  1  0.851659  0.250038  0.237266  1
  O  O10  1  0.851742  0.148223  0.333180  1
  O  O11  1  0.546371  0.101847  0.429153  1
  O  O12  1  0.633787  0.327060  0.424228  1
  O  O13  1  0.749898  0.327059  0.314747  1
  O  O14  1  0.866137  0.210844  0.314719  1
  O  O15  1  0.962032  0.327046  0.314770  1
  O  O16  1  0.345900  0.327048  0.424259  1
  O  O17  1  0.962108  0.210839  0.314709  1
  O  O18  1  0.633817  0.077046  0.351645  1
  O  O19  1  0.749901  0.077063  0.351677  1
  O  O20  1  0.866046  0.173028  0.242166  1
  O  O21  1  0.749941  0.173021  0.351642  1
  O  O22  1  0.633700  0.289243  0.351674  1
  O  O23  1  0.537815  0.173027  0.351639  1
  O  O24  1  0.153945  0.173004  0.242142  1
  O  O25  1  0.537730  0.289231  0.351690  1
  O  O26  1  0.633721  0.039237  0.424288  1
  O  O27  1  0.749975  0.247256  0.396973  1
  O  O28  1  0.888046  0.247252  0.266785  1
  O  O29  1  0.005454  0.247247  0.266783  1
  O  O30  1  0.367374  0.247236  0.396980  1
  O  O31  1  0.611771  0.135447  0.399638  1
  O  O32  1  0.749861  0.252829  0.269418  1
  O  O33  1  0.888076  0.114634  0.269384  1
  O  O34  1  0.611787  0.252833  0.399609  1
  O  O35  1  0.494377  0.252836  0.399628  1
  O  O36  1  0.132579  0.114617  0.269353  1
  O  O37  1  0.132480  0.252808  0.269421  1
  O  O38  1  0.749876  0.002834  0.397038  1
  O  O39  1  0.611825  0.002814  0.397003  1
  O  O40  1  0.993197  0.072870  0.184186  1
  O  O41  1  0.249880  0.177202  0.184205  1
  O  O42  1  0.610988  0.322877  0.482179  1
  O  O43  1  0.993251  0.183852  0.252830  1
  O  O44  1  0.993194  0.322875  0.252878  1
  O  O45  1  0.888968  0.183856  0.351157  1
  O  O46  1  0.610992  0.072868  0.315202  1
  O  O47  1  0.645623  0.177218  0.413545  1
  O  O48  1  0.249965  0.072858  0.184155  1
  O  O49  1  0.888855  0.177196  0.184211  1
  O  O50  1  0.249972  0.322854  0.482195  1
  O  O51  1  0.854226  0.322861  0.252853  1
  O  O52  1  0.854224  0.072870  0.315217  1
  O  O53  1  0.506660  0.177201  0.413529  1
  O  O54  1  0.610883  0.066215  0.482251  1
  O  O55  1  0.506580  0.316239  0.413568  1
  O  O56  1  0.610864  0.316222  0.315239  1
  O  O57  1  0.506606  0.066225  0.482224  1
  O  O58  1  0.499986  0.148209  0.333181  1
  O  O59  1  0.648199  0.000000  0.333188  1
  O  O60  1  0.648092  0.351864  0.333211  1
  O  O61  1  0.953471  0.648231  0.237244  1
  O  O62  1  0.398085  0.351863  0.429185  1
  O  O63  1  0.000000  0.648191  0.333154  1
  O  O64  1  0.648195  0.500029  0.333182  1
  O  O65  1  0.648095  0.601864  0.429180  1
  O  O66  1  0.953496  0.398221  0.237246  1
  O  O67  1  0.101753  0.648195  0.237210  1
  O  O68  1  0.546342  0.351865  0.429154  1
  O  O69  1  0.851735  0.648215  0.333176  1
  O  O70  1  0.851663  0.500038  0.333214  1
  O  O71  1  0.546359  0.601845  0.429150  1
  O  O72  1  0.851760  0.398203  0.237217  1
  O  O73  1  0.633811  0.577037  0.351639  1
  O  O74  1  0.749894  0.577059  0.351670  1
  O  O75  1  0.866153  0.460826  0.242106  1
  O  O76  1  0.866044  0.423030  0.314758  1
  O  O77  1  0.749958  0.423007  0.314729  1
  O  O78  1  0.633708  0.539238  0.424288  1
  O  O79  1  0.611764  0.385449  0.397006  1
  O  O80  1  0.367267  0.385424  0.397037  1
  O  O81  1  0.749995  0.497232  0.269360  1
  O  O82  1  0.611769  0.635436  0.399628  1
  O  O83  1  0.888039  0.497252  0.269395  1
  O  O84  1  0.888056  0.614641  0.269384  1
  O  O85  1  0.132584  0.614601  0.269349  1
  O  O86  1  0.749866  0.502833  0.397036  1
  O  O87  1  0.888090  0.364623  0.266765  1
  O  O88  1  0.611811  0.502815  0.397005  1
  O  O89  1  0.993165  0.572887  0.184191  1
  O  O90  1  0.888989  0.433833  0.184144  1
  O  O91  1  0.645626  0.427211  0.351180  1
  O  O92  1  0.249865  0.427210  0.482239  1
  O  O93  1  0.611007  0.572857  0.315183  1
  O  O94  1  0.993255  0.433847  0.184172  1
  O  O95  1  0.249977  0.572846  0.184155  1
  O  O96  1  0.888866  0.427202  0.351204  1
  O  O97  1  0.506651  0.427215  0.482205  1
  O  O98  1  0.854218  0.572865  0.315209  1
  O  O99  1  0.610868  0.566231  0.482252  1
  O  O100  1  0.506592  0.566233  0.482230  1
  O  O101  1  -0.000000  0.351845  0.333224  1
  O  O102  1  0.648169  0.750040  0.429114  1
  O  O103  1  0.648081  0.851880  0.333206  1
  O  O104  1  0.101659  0.750025  0.237280  1
  O  O105  1  0.398105  0.851853  0.429159  1
  O  O106  1  0.953501  0.898222  0.237252  1
  O  O107  1  0.398203  0.750022  0.429114  1
  O  O108  1  0.851655  0.750046  0.237264  1
  O  O109  1  0.546346  0.851859  0.429140  1
  O  O110  1  0.851763  0.898207  0.237224  1
  O  O111  1  0.633791  0.827049  0.424216  1
  O  O112  1  0.749890  0.827065  0.314746  1
  O  O113  1  0.866127  0.710840  0.314722  1
  O  O114  1  0.962018  0.827036  0.314776  1
  O  O115  1  0.345907  0.827043  0.424245  1
  O  O116  1  0.962118  0.710814  0.314703  1
  O  O117  1  0.866155  0.960832  0.242116  1
  O  O118  1  0.866020  0.673045  0.242170  1
  O  O119  1  0.749934  0.673015  0.351635  1
  O  O120  1  0.633699  0.789251  0.351659  1
  O  O121  1  0.537840  0.673013  0.351617  1
  O  O122  1  0.153942  0.672993  0.242144  1
  O  O123  1  0.537747  0.789229  0.351662  1
  O  O124  1  0.866049  0.923031  0.314762  1
  O  O125  1  0.749963  0.923005  0.314731  1
  O  O126  1  0.749968  0.747243  0.396972  1
  O  O127  1  0.611761  0.885448  0.397001  1
  O  O128  1  0.888031  0.747256  0.266793  1
  O  O129  1  0.005453  0.747233  0.266783  1
  O  O130  1  0.367271  0.885421  0.397020  1
  O  O131  1  0.367385  0.747228  0.396972  1
  O  O132  1  0.749996  0.997240  0.269368  1
  O  O133  1  0.888047  0.997256  0.269402  1
  O  O134  1  0.749849  0.752851  0.269410  1
  O  O135  1  0.611795  0.752826  0.399587  1
  O  O136  1  0.494409  0.752823  0.399597  1
  O  O137  1  0.132463  0.752799  0.269434  1
  O  O138  1  0.888091  0.864625  0.266771  1
  O  O139  1  0.249868  0.677204  0.184216  1
  O  O140  1  0.889000  0.933831  0.184151  1
  O  O141  1  0.610968  0.822868  0.482175  1
  O  O142  1  0.645622  0.927219  0.351182  1
  O  O143  1  0.993246  0.683843  0.252830  1
  O  O144  1  0.993191  0.822870  0.252884  1
  O  O145  1  0.249880  0.927200  0.482224  1
  O  O146  1  0.888975  0.683832  0.351148  1
  O  O147  1  0.645609  0.677217  0.413536  1
  O  O148  1  0.993268  0.933841  0.184177  1
  O  O149  1  0.888840  0.677212  0.184210  1
  O  O150  1  0.249988  0.822842  0.482188  1
  O  O151  1  0.888864  0.927193  0.351212  1
  O  O152  1  0.854231  0.822861  0.252854  1
  O  O153  1  0.506650  0.927206  0.482196  1
  O  O154  1  0.506670  0.677195  0.413513  1
  O  O155  1  0.506593  0.816235  0.413543  1
  O  O156  1  0.610859  0.816236  0.315225  1
  O  O157  1  0.148204  0.250002  0.429119  1
  O  O158  1  0.453525  0.148172  0.237239  1
  O  O159  1  0.601669  0.250010  0.237276  1
  O  O160  1  0.351653  0.000000  0.333203  1
  O  O161  1  0.148089  0.101841  0.429169  1
  O  O162  1  0.898190  0.250030  0.429114  1
  O  O163  1  0.601763  0.148179  0.237224  1
  O  O164  1  0.351706  0.249989  0.237261  1
  O  O165  1  0.351775  0.148166  0.333181  1
  O  O166  1  0.046338  0.101838  0.429149  1
  O  O167  1  0.133839  0.327003  0.424211  1
  O  O168  1  0.249945  0.327015  0.314737  1
  O  O169  1  0.366169  0.210788  0.314719  1
  O  O170  1  0.462033  0.327016  0.314769  1
  O  O171  1  0.845907  0.327062  0.424249  1
  O  O172  1  0.462119  0.210808  0.314718  1
  O  O173  1  0.133790  0.077024  0.351637  1
  O  O174  1  0.249890  0.077041  0.351660  1
  O  O175  1  0.366076  0.172984  0.242166  1
  O  O176  1  0.249970  0.172977  0.351639  1
  O  O177  1  0.133737  0.289200  0.351659  1
  O  O178  1  0.037824  0.173015  0.351619  1
  O  O179  1  0.653957  0.172988  0.242145  1
  O  O180  1  0.037744  0.289228  0.351679  1
  O  O181  1  0.133687  0.039223  0.424281  1
  O  O182  1  0.250010  0.247198  0.396971  1
  O  O183  1  0.388085  0.247203  0.266785  1
  O  O184  1  0.505471  0.247206  0.266780  1
  O  O185  1  0.867370  0.247260  0.396969  1
  O  O186  1  0.111762  0.135424  0.399621  1
  O  O187  1  0.249899  0.252790  0.269409  1
  O  O188  1  0.388102  0.114589  0.269385  1
  O  O189  1  0.111830  0.252787  0.399590  1
  O  O190  1  0.994404  0.252815  0.399603  1
  O  O191  1  0.632584  0.114616  0.269370  1
  O  O192  1  0.632478  0.252800  0.269426  1
  O  O193  1  0.249851  0.002808  0.397025  1
  O  O194  1  0.111778  0.002809  0.397004  1
  O  O195  1  0.493208  0.072824  0.184190  1
  O  O196  1  0.749876  0.177192  0.184208  1
  O  O197  1  0.111013  0.322841  0.482173  1
  O  O198  1  0.493280  0.183798  0.252834  1
  O  O199  1  0.493206  0.322836  0.252872  1
  O  O200  1  0.388996  0.183811  0.351161  1
  O  O201  1  0.110966  0.072863  0.315191  1
  O  O202  1  0.145627  0.177185  0.413535  1
  O  O203  1  0.749984  0.072833  0.184165  1
  O  O204  1  0.388889  0.177161  0.184210  1
  O  O205  1  0.749980  0.322858  0.482185  1
  O  O206  1  0.354271  0.322813  0.252838  1
  O  O207  1  0.354234  0.072824  0.315207  1
  O  O208  1  0.006656  0.177186  0.413511  1
  O  O209  1  0.110859  0.066210  0.482241  1
  O  O210  1  0.006616  0.316202  0.413552  1
  O  O211  1  0.110897  0.316201  0.315226  1
  O  O212  1  0.006576  0.066212  0.482223  1
  O  O213  1  0.148151  -0.000000  0.333187  1
  O  O214  1  0.148140  0.351818  0.333197  1
  O  O215  1  0.453484  0.648203  0.237258  1
  O  O216  1  0.898108  0.351854  0.429173  1
  O  O217  1  0.148217  0.499993  0.333158  1
  O  O218  1  0.148107  0.601833  0.429161  1
  O  O219  1  0.453515  0.398186  0.237237  1
  O  O220  1  0.601761  0.648185  0.237214  1
  O  O221  1  0.046393  0.351813  0.429135  1
  O  O222  1  0.351759  0.648178  0.333192  1
  O  O223  1  0.351670  0.500005  0.333210  1
  O  O224  1  0.046378  0.601814  0.429129  1
  O  O225  1  0.351786  0.398170  0.237201  1
  O  O226  1  0.133821  0.577009  0.351620  1
  O  O227  1  0.249915  0.577027  0.351654  1
  O  O228  1  0.366159  0.460802  0.242106  1
  O  O229  1  0.366060  0.422993  0.314748  1
  O  O230  1  0.249986  0.422971  0.314706  1
  O  O231  1  0.133722  0.539206  0.424268  1
  O  O232  1  0.111816  0.385398  0.396990  1
  O  O233  1  0.867274  0.385446  0.397036  1
  O  O234  1  0.250007  0.497205  0.269347  1
  O  O235  1  0.111787  0.635409  0.399607  1
  O  O236  1  0.388068  0.497216  0.269385  1
  O  O237  1  0.388100  0.614591  0.269391  1
  O  O238  1  0.632602  0.614611  0.269350  1
  O  O239  1  0.249871  0.502802  0.397026  1
  O  O240  1  0.388109  0.364591  0.266753  1
  O  O241  1  0.111836  0.502781  0.396978  1
  O  O242  1  0.493200  0.572848  0.184196  1
  O  O243  1  0.389000  0.433821  0.184140  1
  O  O244  1  0.145665  0.427165  0.351160  1
  O  O245  1  0.749885  0.427208  0.482235  1
  O  O246  1  0.111008  0.572832  0.315170  1
  O  O247  1  0.493273  0.433814  0.184166  1
  O  O248  1  0.749988  0.572841  0.184147  1
  O  O249  1  0.388864  0.427173  0.351203  1
  O  O250  1  0.006693  0.427163  0.482187  1
  O  O251  1  0.354235  0.572828  0.315217  1
  O  O252  1  0.110864  0.566215  0.482239  1
  O  O253  1  0.006611  0.566196  0.482203  1
  O  O254  1  0.500005  0.648199  0.333163  1
  O  O255  1  0.499865  0.351830  0.333227  1
  O  O256  1  0.148190  0.750005  0.429127  1
  O  O257  1  0.148079  0.851841  0.333226  1
  O  O258  1  0.601667  0.750016  0.237258  1
  O  O259  1  0.898092  0.851833  0.429181  1
  O  O260  1  0.453468  0.898199  0.237243  1
  O  O261  1  0.898185  0.750003  0.429113  1
  O  O262  1  0.351641  0.750014  0.237295  1
  O  O263  1  0.046345  0.851821  0.429162  1
  O  O264  1  -0.000000  0.851834  0.333238  1
  O  O265  1  0.351724  0.898190  0.237218  1
  O  O266  1  0.133806  0.827013  0.424227  1
  O  O267  1  0.249870  0.827048  0.314773  1
  O  O268  1  0.366136  0.710809  0.314737  1
  O  O269  1  0.462033  0.827022  0.314753  1
  O  O270  1  0.845902  0.827033  0.424248  1
  O  O271  1  0.462120  0.710810  0.314713  1
  O  O272  1  0.366114  0.960814  0.242111  1
  O  O273  1  0.366037  0.672998  0.242188  1
  O  O274  1  0.249963  0.672981  0.351644  1
  O  O275  1  0.133688  0.789216  0.351685  1
  O  O276  1  0.037824  0.672994  0.351615  1
  O  O277  1  0.653954  0.672998  0.242132  1
  O  O278  1  0.037725  0.789216  0.351692  1
  O  O279  1  0.366029  0.923001  0.314750  1
  O  O280  1  0.249920  0.923000  0.314731  1
  O  O281  1  0.249986  0.747211  0.396985  1
  O  O282  1  0.111743  0.885425  0.397024  1
  O  O283  1  0.388017  0.747241  0.266818  1
  O  O284  1  0.505460  0.747214  0.266777  1
  O  O285  1  0.867258  0.885428  0.397043  1
  O  O286  1  0.867379  0.747227  0.396961  1
  O  O287  1  0.249956  0.997222  0.269362  1
  O  O288  1  0.388027  0.997229  0.269387  1
  O  O289  1  0.249852  0.752803  0.269435  1
  O  O290  1  0.111814  0.752787  0.399600  1
  O  O291  1  0.994391  0.752797  0.399608  1
  O  O292  1  0.632482  0.752813  0.269403  1
  O  O293  1  0.388055  0.864610  0.266766  1
  O  O294  1  0.749876  0.677196  0.184189  1
  O  O295  1  0.388953  0.933829  0.184147  1
  O  O296  1  0.110995  0.822846  0.482184  1
  O  O297  1  0.145591  0.927197  0.351194  1
  O  O298  1  0.493250  0.683820  0.252842  1
  O  O299  1  0.493179  0.822844  0.252866  1
  O  O300  1  0.749875  0.927178  0.482239  1
  O  O301  1  0.388989  0.683817  0.351163  1
  O  O302  1  0.145635  0.677177  0.413530  1
  O  O303  1  0.493239  0.933811  0.184167  1
  O  O304  1  0.388853  0.677181  0.184230  1
  O  O305  1  0.749973  0.822828  0.482180  1
  O  O306  1  0.388852  0.927180  0.351194  1
  O  O307  1  0.354195  0.822843  0.252867  1
  O  O308  1  0.006656  0.927169  0.482212  1
  O  O309  1  0.006670  0.677162  0.413502  1
  O  O310  1  0.006586  0.816193  0.413570  1
  O  O311  1  0.110858  0.816205  0.315248  1
  O  O312  1  0.499864  0.851838  0.333211  1
  Si  Si313  1  0.928134  0.124867  0.232112  1
  Si  Si314  1  0.660566  0.053158  0.434327  1
  Si  Si315  1  0.660552  0.303157  0.316324  1
  Si  Si316  1  0.660661  0.286277  0.434253  1
  Si  Si317  1  0.928174  0.196930  0.266252  1
  Si  Si318  1  0.016724  0.286267  0.266297  1
  Si  Si319  1  0.927888  0.196934  0.350065  1
  Si  Si320  1  0.660684  0.036264  0.316289  1
  Si  Si321  1  0.660990  0.125224  0.400152  1
  Si  Si322  1  0.338571  0.286253  0.434268  1
  Si  Si323  1  0.016796  0.196920  0.266241  1
  Si  Si324  1  0.838815  0.286267  0.266279  1
  Si  Si325  1  0.839282  0.196928  0.350068  1
  Si  Si326  1  0.838823  0.036269  0.316315  1
  Si  Si327  1  0.571722  0.125209  0.400124  1
  Si  Si328  1  0.839175  0.213806  0.232137  1
  Si  Si329  1  0.838854  0.124861  0.316298  1
  Si  Si330  1  0.571664  0.303157  0.400141  1
  Si  Si331  1  0.483121  0.213807  0.400112  1
  Si  Si332  1  0.161350  0.124847  0.232082  1
  Si  Si333  1  0.571953  0.303131  0.316330  1
  Si  Si334  1  0.571694  0.053141  0.434297  1
  Si  Si335  1  0.161281  0.213797  0.232133  1
  Si  Si336  1  0.572051  0.124862  0.316293  1
  Si  Si337  1  0.483034  0.303161  0.400162  1
  Si  Si338  1  0.661023  0.213815  0.400111  1
  Si  Si339  1  0.660556  0.553159  0.434324  1
  Si  Si340  1  0.928135  0.374867  0.266281  1
  Si  Si341  1  0.661036  0.463803  0.350090  1
  Si  Si342  1  0.928106  0.624882  0.232117  1
  Si  Si343  1  0.572077  0.624849  0.316270  1
  Si  Si344  1  0.660984  0.375222  0.350093  1
  Si  Si345  1  0.338485  0.375212  0.434318  1
  Si  Si346  1  0.660684  0.536254  0.316280  1
  Si  Si347  1  0.660983  0.625220  0.400144  1
  Si  Si348  1  0.928178  0.446923  0.232099  1
  Si  Si349  1  0.927801  0.375207  0.350115  1
  Si  Si350  1  0.571701  0.375222  0.434281  1
  Si  Si351  1  0.838815  0.536265  0.316309  1
  Si  Si352  1  0.571718  0.625200  0.400116  1
  Si  Si353  1  0.839305  0.446904  0.232070  1
  Si  Si354  1  0.838846  0.624857  0.316293  1
  Si  Si355  1  0.161355  0.624833  0.232078  1
  Si  Si356  1  0.839178  0.463809  0.350115  1
  Si  Si357  1  0.838868  0.374847  0.266253  1
  Si  Si358  1  0.571679  0.553144  0.434298  1
  Si  Si359  1  0.661014  0.713811  0.400100  1
  Si  Si360  1  0.928138  0.874867  0.266286  1
  Si  Si361  1  0.661042  0.963804  0.350091  1
  Si  Si362  1  0.660540  0.803176  0.316315  1
  Si  Si363  1  0.660655  0.786267  0.434245  1
  Si  Si364  1  0.660979  0.875228  0.350089  1
  Si  Si365  1  0.928160  0.696931  0.266257  1
  Si  Si366  1  0.016716  0.786257  0.266301  1
  Si  Si367  1  0.338496  0.875206  0.434299  1
  Si  Si368  1  0.927904  0.696902  0.350053  1
  Si  Si369  1  0.928183  0.946927  0.232106  1
  Si  Si370  1  0.338585  0.786246  0.434257  1
  Si  Si371  1  0.927783  0.875196  0.350125  1
  Si  Si372  1  0.016801  0.696903  0.266237  1
  Si  Si373  1  0.838811  0.786270  0.266280  1
  Si  Si374  1  0.571703  0.875214  0.434271  1
  Si  Si375  1  0.839278  0.696916  0.350066  1
  Si  Si376  1  0.839306  0.946911  0.232081  1
  Si  Si377  1  0.839161  0.713823  0.232137  1
  Si  Si378  1  0.571671  0.803154  0.400122  1
  Si  Si379  1  0.483147  0.713796  0.400088  1
  Si  Si380  1  0.571958  0.803139  0.316310  1
  Si  Si381  1  0.839188  0.963808  0.350117  1
  Si  Si382  1  0.838874  0.874846  0.266256  1
  Si  Si383  1  0.161272  0.713790  0.232140  1
  Si  Si384  1  0.483057  0.803152  0.400132  1
  Si  Si385  1  0.160697  0.286227  0.434245  1
  Si  Si386  1  0.428203  0.196878  0.266253  1
  Si  Si387  1  0.516730  0.286233  0.266295  1
  Si  Si388  1  0.427899  0.196906  0.350076  1
  Si  Si389  1  0.160644  0.036250  0.316285  1
  Si  Si390  1  0.160981  0.125200  0.400136  1
  Si  Si391  1  0.838574  0.286267  0.434256  1
  Si  Si392  1  0.516815  0.196880  0.266247  1
  Si  Si393  1  0.338866  0.286218  0.266271  1
  Si  Si394  1  0.339319  0.196870  0.350067  1
  Si  Si395  1  0.338812  0.036240  0.316299  1
  Si  Si396  1  0.071707  0.125188  0.400111  1
  Si  Si397  1  0.339212  0.213764  0.232136  1
  Si  Si398  1  0.338880  0.124813  0.316298  1
  Si  Si399  1  0.071704  0.303111  0.400125  1
  Si  Si400  1  0.983135  0.213794  0.400090  1
  Si  Si401  1  0.661367  0.124827  0.232089  1
  Si  Si402  1  0.071961  0.303135  0.316325  1
  Si  Si403  1  0.071652  0.053134  0.434296  1
  Si  Si404  1  0.661280  0.213786  0.232138  1
  Si  Si405  1  0.072049  0.124857  0.316274  1
  Si  Si406  1  0.983060  0.303143  0.400146  1
  Si  Si407  1  0.161048  0.213775  0.400104  1
  Si  Si408  1  0.428162  0.124819  0.232112  1
  Si  Si409  1  0.160591  0.303119  0.316311  1
  Si  Si410  1  0.160542  0.053139  0.434314  1
  Si  Si411  1  0.160563  0.553132  0.434307  1
  Si  Si412  1  0.161034  0.375174  0.350078  1
  Si  Si413  1  0.838501  0.375220  0.434309  1
  Si  Si414  1  0.160693  0.536227  0.316262  1
  Si  Si415  1  0.161000  0.625189  0.400125  1
  Si  Si416  1  0.428193  0.446892  0.232092  1
  Si  Si417  1  0.427797  0.375181  0.350115  1
  Si  Si418  1  0.071756  0.375165  0.434261  1
  Si  Si419  1  0.338832  0.536232  0.316303  1
  Si  Si420  1  0.071735  0.625170  0.400095  1
  Si  Si421  1  0.339315  0.446882  0.232066  1
  Si  Si422  1  0.338873  0.624819  0.316306  1
  Si  Si423  1  0.661371  0.624832  0.232074  1
  Si  Si424  1  0.339185  0.463776  0.350108  1
  Si  Si425  1  0.338898  0.374809  0.266234  1
  Si  Si426  1  0.071696  0.553111  0.434275  1
  Si  Si427  1  0.072065  0.624830  0.316265  1
  Si  Si428  1  0.428138  0.624836  0.232126  1
  Si  Si429  1  0.161066  0.463765  0.350063  1
  Si  Si430  1  0.428156  0.374829  0.266269  1
  Si  Si431  1  0.160998  0.963795  0.350092  1
  Si  Si432  1  0.428115  0.874840  0.266275  1
  Si  Si433  1  0.160673  0.786236  0.434258  1
  Si  Si434  1  0.160960  0.875206  0.350112  1
  Si  Si435  1  0.428158  0.696909  0.266275  1
  Si  Si436  1  0.516723  0.786241  0.266282  1
  Si  Si437  1  0.838492  0.875193  0.434312  1
  Si  Si438  1  0.427910  0.696901  0.350066  1
  Si  Si439  1  0.428147  0.946904  0.232099  1
  Si  Si440  1  0.838571  0.786237  0.434254  1
  Si  Si441  1  0.427795  0.875186  0.350101  1
  Si  Si442  1  0.516808  0.696887  0.266243  1
  Si  Si443  1  0.338791  0.786250  0.266307  1
  Si  Si444  1  0.071709  0.875176  0.434286  1
  Si  Si445  1  0.339296  0.696885  0.350081  1
  Si  Si446  1  0.339267  0.946894  0.232074  1
  Si  Si447  1  0.339164  0.713781  0.232162  1
  Si  Si448  1  0.071663  0.803118  0.400147  1
  Si  Si449  1  0.983129  0.713773  0.400088  1
  Si  Si450  1  0.071940  0.803125  0.316339  1
  Si  Si451  1  0.339164  0.963783  0.350104  1
  Si  Si452  1  0.338831  0.874837  0.266256  1
  Si  Si453  1  0.661280  0.713794  0.232119  1
  Si  Si454  1  0.983041  0.803128  0.400158  1
  Si  Si455  1  0.161041  0.713775  0.400109  1
  Si  Si456  1  0.160542  0.803134  0.316337  1
  H  H457  1  0.993197  0.072870  0.166849  1
  H  H458  1  0.249880  0.177202  0.166869  1
  H  H459  1  0.610988  0.322877  0.499516  1
  H  H460  1  0.249965  0.072858  0.166818  1
  H  H461  1  0.888855  0.177196  0.166874  1
  H  H462  1  0.249972  0.322854  0.499532  1
  H  H463  1  0.610883  0.066215  0.499588  1
  H  H464  1  0.506606  0.066225  0.499560  1
  H  H465  1  0.993165  0.572887  0.166855  1
  H  H466  1  0.888989  0.433833  0.166807  1
  H  H467  1  0.249865  0.427210  0.499575  1
  H  H468  1  0.993255  0.433847  0.166835  1
  H  H469  1  0.249977  0.572846  0.166818  1
  H  H470  1  0.506651  0.427215  0.499541  1
  H  H471  1  0.610868  0.566231  0.499589  1
  H  H472  1  0.506592  0.566233  0.499566  1
  H  H473  1  0.249868  0.677204  0.166879  1
  H  H474  1  0.889000  0.933831  0.166814  1
  H  H475  1  0.610968  0.822868  0.499512  1
  H  H476  1  0.249880  0.927200  0.499560  1
  H  H477  1  0.993268  0.933841  0.166840  1
  H  H478  1  0.888840  0.677212  0.166873  1
  H  H479  1  0.249988  0.822842  0.499524  1
  H  H480  1  0.506650  0.927206  0.499533  1
  H  H481  1  0.493208  0.072824  0.166853  1
  H  H482  1  0.749876  0.177192  0.166871  1
  H  H483  1  0.111013  0.322841  0.499509  1
  H  H484  1  0.749984  0.072833  0.166828  1
  H  H485  1  0.388889  0.177161  0.166873  1
  H  H486  1  0.749980  0.322858  0.499522  1
  H  H487  1  0.110859  0.066210  0.499577  1
  H  H488  1  0.006576  0.066212  0.499560  1
  H  H489  1  0.493200  0.572848  0.166860  1
  H  H490  1  0.389000  0.433821  0.166804  1
  H  H491  1  0.749885  0.427208  0.499572  1
  H  H492  1  0.493273  0.433814  0.166829  1
  H  H493  1  0.749988  0.572841  0.166811  1
  H  H494  1  0.006693  0.427163  0.499524  1
  H  H495  1  0.110864  0.566215  0.499575  1
  H  H496  1  0.006611  0.566196  0.499540  1
  H  H497  1  0.749876  0.677196  0.166853  1
  H  H498  1  0.388953  0.933829  0.166811  1
  H  H499  1  0.110995  0.822846  0.499520  1
  H  H500  1  0.749875  0.927178  0.499575  1
  H  H501  1  0.493239  0.933811  0.166831  1
  H  H502  1  0.388853  0.677181  0.166894  1
  H  H503  1  0.749973  0.822828  0.499517  1
  H  H504  1  0.006656  0.927169  0.499549  1
