# generated using pymatgen
data_Si36H2O73
_symmetry_space_group_name_H-M   'P 1'
_cell_length_a   14.03621034
_cell_length_b   7.42180539
_cell_length_c   58.94029425
_cell_angle_alpha   90.00000000
_cell_angle_beta   90.00000000
_cell_angle_gamma   90.00000000
_symmetry_Int_Tables_number   1
_chemical_formula_structural   Si36H2O73
_chemical_formula_sum   'Si72 H4 O146'
_cell_volume   6140.04748377
_cell_formula_units_Z   2
loop_
 _symmetry_equiv_pos_site_id
 _symmetry_equiv_pos_as_xyz
  1  'x, y, z'
loop_
 _atom_site_type_symbol
 _atom_site_label
 _atom_site_symmetry_multiplicity
 _atom_site_fract_x
 _atom_site_fract_y
 _atom_site_fract_z
 _atom_site_occupancy
  O  O1  1  0.093831  0.247971  0.198941  1
  O  O2  1  0.593858  0.747832  0.356468  1
  O  O3  1  0.093831  0.247873  0.316332  1
  O  O4  1  0.593859  0.747933  0.158800  1
  O  O5  1  0.906230  0.252519  0.199113  1
  O  O6  1  0.406259  0.752434  0.356651  1
  O  O7  1  0.906231  0.252413  0.316160  1
  O  O8  1  0.406263  0.752541  0.158617  1
  O  O9  1  0.906252  0.747743  0.316139  1
  O  O10  1  0.406228  0.247871  0.158615  1
  O  O11  1  0.906255  0.747847  0.199129  1
  O  O12  1  0.406229  0.247770  0.356659  1
  O  O13  1  0.093842  0.752355  0.316324  1
  O  O14  1  0.593832  0.252423  0.158787  1
  O  O15  1  0.093856  0.752455  0.198945  1
  O  O16  1  0.593833  0.252322  0.356486  1
  O  O17  1  0.250020  0.330723  0.220383  1
  O  O18  1  0.750054  0.830495  0.377902  1
  O  O19  1  0.250000  0.330631  0.294881  1
  O  O20  1  0.750077  0.830583  0.137376  1
  O  O21  1  0.748730  0.331370  0.220437  1
  O  O22  1  0.248821  0.831388  0.377991  1
  O  O23  1  0.748761  0.331285  0.294824  1
  O  O24  1  0.248805  0.831478  0.137280  1
  O  O25  1  0.748711  0.668854  0.294835  1
  O  O26  1  0.248663  0.169060  0.137317  1
  O  O27  1  0.748742  0.668943  0.220445  1
  O  O28  1  0.248642  0.168961  0.377946  1
  O  O29  1  0.250193  0.669757  0.294967  1
  O  O30  1  0.750063  0.169727  0.137367  1
  O  O31  1  0.250129  0.669808  0.220373  1
  O  O32  1  0.750085  0.169635  0.377895  1
  O  O33  1  0.217642  0.000000  0.205732  1
  O  O34  1  0.717643  0.500072  0.363265  1
  O  O35  1  0.217636  0.000000  0.309539  1
  O  O36  1  0.717644  0.500161  0.152005  1
  O  O37  1  0.787121  0.000000  0.207262  1
  O  O38  1  0.287118  0.500175  0.364796  1
  O  O39  1  0.787119  0.000000  0.308008  1
  O  O40  1  0.287121  0.500262  0.150475  1
  O  O41  1  0.249521  0.256481  0.178672  1
  O  O42  1  0.749520  0.756183  0.336192  1
  O  O43  1  0.249558  0.256428  0.336591  1
  O  O44  1  0.749483  0.756219  0.179088  1
  O  O45  1  0.749440  0.244039  0.179081  1
  O  O46  1  0.249432  0.744075  0.336603  1
  O  O47  1  0.749395  0.243999  0.336179  1
  O  O48  1  0.249406  0.744326  0.178623  1
  O  O49  1  0.092710  0.000000  0.133638  1
  O  O50  1  0.592708  0.500024  0.291171  1
  O  O51  1  0.092714  -0.000000  0.381632  1
  O  O52  1  0.592705  0.500165  0.224099  1
  O  O53  1  0.905614  -0.000000  0.133514  1
  O  O54  1  0.405618  0.500011  0.291045  1
  O  O55  1  0.905615  -0.000000  0.381757  1
  O  O56  1  0.405613  0.500156  0.224225  1
  O  O57  1  0.210963  0.000000  0.100102  1
  O  O58  1  0.710963  0.500112  0.257634  1
  O  O59  1  0.786672  0.000000  0.100101  1
  O  O60  1  0.286655  0.500414  0.257636  1
  O  O61  1  0.998939  0.170070  0.163821  1
  O  O62  1  0.498928  0.669957  0.321354  1
  O  O63  1  0.998944  0.169966  0.351452  1
  O  O64  1  0.498924  0.670055  0.193914  1
  O  O65  1  0.998921  0.830254  0.351438  1
  O  O66  1  0.498936  0.330342  0.193908  1
  O  O67  1  0.998923  0.830352  0.163831  1
  O  O68  1  0.498938  0.330244  0.321366  1
  O  O69  1  0.001064  0.500198  0.179599  1
  O  O70  1  0.501062  0.000000  0.337133  1
  O  O71  1  0.001060  0.500099  0.335672  1
  O  O72  1  0.501064  0.000000  0.178137  1
  O  O73  1  0.093831  0.247971  0.514008  1
  O  O74  1  0.593858  0.747832  0.671535  1
  O  O75  1  0.093831  0.247873  0.631399  1
  O  O76  1  0.593859  0.747933  0.473866  1
  O  O77  1  0.906230  0.252519  0.514180  1
  O  O78  1  0.406259  0.752434  0.671717  1
  O  O79  1  0.906231  0.252413  0.631227  1
  O  O80  1  0.406263  0.752541  0.473684  1
  O  O81  1  0.906252  0.747743  0.631206  1
  O  O82  1  0.406228  0.247871  0.473682  1
  O  O83  1  0.906255  0.747847  0.514196  1
  O  O84  1  0.406229  0.247770  0.671726  1
  O  O85  1  0.093842  0.752355  0.631391  1
  O  O86  1  0.593832  0.252423  0.473854  1
  O  O87  1  0.093856  0.752455  0.514012  1
  O  O88  1  0.593833  0.252322  0.671553  1
  O  O89  1  0.250020  0.330723  0.535450  1
  O  O90  1  0.750054  0.830495  0.692969  1
  O  O91  1  0.250000  0.330631  0.609948  1
  O  O92  1  0.750077  0.830583  0.452443  1
  O  O93  1  0.748730  0.331370  0.535504  1
  O  O94  1  0.248821  0.831388  0.693058  1
  O  O95  1  0.748761  0.331285  0.609891  1
  O  O96  1  0.248805  0.831478  0.452347  1
  O  O97  1  0.748711  0.668854  0.609902  1
  O  O98  1  0.248663  0.169060  0.452384  1
  O  O99  1  0.748742  0.668943  0.535512  1
  O  O100  1  0.248642  0.168961  0.693013  1
  O  O101  1  0.250193  0.669757  0.610034  1
  O  O102  1  0.750063  0.169727  0.452434  1
  O  O103  1  0.250129  0.669808  0.535440  1
  O  O104  1  0.750085  0.169635  0.692962  1
  O  O105  1  0.217642  0.000000  0.520799  1
  O  O106  1  0.717643  0.500072  0.678332  1
  O  O107  1  0.217636  0.000000  0.624606  1
  O  O108  1  0.717644  0.500161  0.467072  1
  O  O109  1  0.787121  0.000000  0.522329  1
  O  O110  1  0.287118  0.500175  0.679863  1
  O  O111  1  0.787119  0.000000  0.623075  1
  O  O112  1  0.287121  0.500262  0.465542  1
  O  O113  1  0.249521  0.256481  0.493739  1
  O  O114  1  0.749520  0.756183  0.651259  1
  O  O115  1  0.249558  0.256428  0.651658  1
  O  O116  1  0.749483  0.756219  0.494155  1
  O  O117  1  0.749440  0.244039  0.494148  1
  O  O118  1  0.249432  0.744075  0.651670  1
  O  O119  1  0.749395  0.243999  0.651246  1
  O  O120  1  0.249406  0.744326  0.493690  1
  O  O121  1  0.092710  -0.000000  0.448705  1
  O  O122  1  0.592708  0.500024  0.606238  1
  O  O123  1  0.092714  0.000000  0.696699  1
  O  O124  1  0.592705  0.500165  0.539166  1
  O  O125  1  0.905614  0.000000  0.448581  1
  O  O126  1  0.405618  0.500011  0.606112  1
  O  O127  1  0.905615  -0.000000  0.696824  1
  O  O128  1  0.405613  0.500156  0.539292  1
  O  O129  1  0.210963  0.000000  0.415169  1
  O  O130  1  0.710963  0.500112  0.572701  1
  O  O131  1  0.786672  0.000000  0.415168  1
  O  O132  1  0.286655  0.500414  0.572703  1
  O  O133  1  0.998939  0.170070  0.478888  1
  O  O134  1  0.498928  0.669957  0.636421  1
  O  O135  1  0.998944  0.169966  0.666519  1
  O  O136  1  0.498924  0.670055  0.508981  1
  O  O137  1  0.998921  0.830254  0.666505  1
  O  O138  1  0.498936  0.330342  0.508975  1
  O  O139  1  0.998923  0.830352  0.478898  1
  O  O140  1  0.498938  0.330244  0.636433  1
  O  O141  1  0.001064  0.500198  0.494666  1
  O  O142  1  0.501062  0.000000  0.652200  1
  O  O143  1  0.001060  0.500099  0.650739  1
  O  O144  1  0.501064  0.000000  0.493204  1
  O  O145  1  0.210963  0.000000  0.730235  1
  O  O146  1  0.786672  0.000000  0.730235  1
  Si  Si147  1  0.203072  0.207716  0.201891  1
  Si  Si148  1  0.703098  0.707487  0.359415  1
  Si  Si149  1  0.203073  0.207647  0.313376  1
  Si  Si150  1  0.703101  0.707570  0.155859  1
  Si  Si151  1  0.797799  0.207310  0.202429  1
  Si  Si152  1  0.297823  0.707324  0.359974  1
  Si  Si153  1  0.797798  0.207228  0.312837  1
  Si  Si154  1  0.297833  0.707411  0.155289  1
  Si  Si155  1  0.797806  0.792919  0.312835  1
  Si  Si156  1  0.297788  0.293116  0.155312  1
  Si  Si157  1  0.797814  0.793001  0.202438  1
  Si  Si158  1  0.297789  0.293035  0.359956  1
  Si  Si159  1  0.203098  0.792777  0.313398  1
  Si  Si160  1  0.703087  0.292738  0.155851  1
  Si  Si161  1  0.203137  0.792799  0.201871  1
  Si  Si162  1  0.703087  0.292656  0.359416  1
  Si  Si163  1  0.199927  0.000000  0.126390  1
  Si  Si164  1  0.699924  0.500070  0.283922  1
  Si  Si165  1  0.199934  0.000000  0.388880  1
  Si  Si166  1  0.699924  0.500147  0.231348  1
  Si  Si167  1  0.798181  0.000000  0.126395  1
  Si  Si168  1  0.298193  0.500204  0.283928  1
  Si  Si169  1  0.798180  0.000000  0.388875  1
  Si  Si170  1  0.298194  0.500261  0.231348  1
  Si  Si171  1  -0.000000  0.292886  0.185483  1
  Si  Si172  1  0.500094  0.792777  0.343015  1
  Si  Si173  1  -0.000000  0.292783  0.329790  1
  Si  Si174  1  0.500099  0.792881  0.172253  1
  Si  Si175  1  -0.000000  0.707403  0.329779  1
  Si  Si176  1  0.500076  0.207506  0.172247  1
  Si  Si177  1  -0.000000  0.707508  0.185490  1
  Si  Si178  1  0.500075  0.207405  0.343026  1
  Si  Si179  1  -0.000000  0.000000  0.148016  1
  Si  Si180  1  0.499014  0.500061  0.305549  1
  Si  Si181  1  0.000000  0.000000  0.367255  1
  Si  Si182  1  0.499011  0.500178  0.209721  1
  Si  Si183  1  0.203072  0.207716  0.516958  1
  Si  Si184  1  0.703098  0.707487  0.674482  1
  Si  Si185  1  0.203073  0.207647  0.628443  1
  Si  Si186  1  0.703101  0.707570  0.470926  1
  Si  Si187  1  0.797799  0.207310  0.517496  1
  Si  Si188  1  0.297823  0.707324  0.675041  1
  Si  Si189  1  0.797798  0.207228  0.627904  1
  Si  Si190  1  0.297833  0.707411  0.470356  1
  Si  Si191  1  0.797806  0.792919  0.627902  1
  Si  Si192  1  0.297788  0.293116  0.470379  1
  Si  Si193  1  0.797814  0.793001  0.517505  1
  Si  Si194  1  0.297789  0.293035  0.675023  1
  Si  Si195  1  0.203098  0.792777  0.628465  1
  Si  Si196  1  0.703087  0.292738  0.470917  1
  Si  Si197  1  0.203137  0.792799  0.516938  1
  Si  Si198  1  0.703087  0.292656  0.674483  1
  Si  Si199  1  0.199927  0.000000  0.441456  1
  Si  Si200  1  0.699924  0.500070  0.598989  1
  Si  Si201  1  0.199934  0.000000  0.703947  1
  Si  Si202  1  0.699924  0.500147  0.546415  1
  Si  Si203  1  0.798181  0.000000  0.441462  1
  Si  Si204  1  0.298193  0.500204  0.598995  1
  Si  Si205  1  0.798180  0.000000  0.703942  1
  Si  Si206  1  0.298194  0.500261  0.546415  1
  Si  Si207  1  -0.000000  0.292886  0.500550  1
  Si  Si208  1  0.500094  0.792777  0.658082  1
  Si  Si209  1  0.000000  0.292783  0.644856  1
  Si  Si210  1  0.500099  0.792881  0.487320  1
  Si  Si211  1  -0.000000  0.707403  0.644846  1
  Si  Si212  1  0.500076  0.207506  0.487314  1
  Si  Si213  1  -0.000000  0.707508  0.500557  1
  Si  Si214  1  0.500075  0.207405  0.658093  1
  Si  Si215  1  -0.000000  0.000000  0.463083  1
  Si  Si216  1  0.499014  0.500061  0.620616  1
  Si  Si217  1  -0.000000  0.000000  0.682322  1
  Si  Si218  1  0.499011  0.500178  0.524788  1
  H  H219  1  0.210963  0.000000  0.084832  1
  H  H220  1  0.786672  -0.000000  0.084832  1
  H  H221  1  0.210963  0.000000  0.745505  1
  H  H222  1  0.786672  0.000000  0.745505  1
