# generated using pymatgen
data_Si18H2O37
_symmetry_space_group_name_H-M   'P 1'
_cell_length_a   14.03621034
_cell_length_b   7.42180539
_cell_length_c   40.37015641
_cell_angle_alpha   90.00000000
_cell_angle_beta   90.00000000
_cell_angle_gamma   90.00000000
_symmetry_Int_Tables_number   1
_chemical_formula_structural   Si18H2O37
_chemical_formula_sum   'Si36 H4 O74'
_cell_volume   4205.52154411
_cell_formula_units_Z   2
loop_
 _symmetry_equiv_pos_site_id
 _symmetry_equiv_pos_as_xyz
  1  'x, y, z'
loop_
 _atom_site_type_symbol
 _atom_site_label
 _atom_site_symmetry_multiplicity
 _atom_site_fract_x
 _atom_site_fract_y
 _atom_site_fract_z
 _atom_site_occupancy
  O  O1  1  0.093831  0.247971  0.290453  1
  O  O2  1  0.593858  0.747832  0.520442  1
  O  O3  1  0.093831  0.247873  0.461844  1
  O  O4  1  0.593859  0.747933  0.231847  1
  O  O5  1  0.906230  0.252519  0.290705  1
  O  O6  1  0.406259  0.752434  0.520709  1
  O  O7  1  0.906231  0.252413  0.461592  1
  O  O8  1  0.406263  0.752541  0.231581  1
  O  O9  1  0.906252  0.747743  0.461562  1
  O  O10  1  0.406228  0.247871  0.231578  1
  O  O11  1  0.906255  0.747847  0.290727  1
  O  O12  1  0.406229  0.247770  0.520721  1
  O  O13  1  0.093842  0.752355  0.461832  1
  O  O14  1  0.593832  0.252423  0.231829  1
  O  O15  1  0.093856  0.752455  0.290459  1
  O  O16  1  0.593833  0.252322  0.520468  1
  O  O17  1  0.250020  0.330723  0.321758  1
  O  O18  1  0.750054  0.830495  0.551736  1
  O  O19  1  0.250000  0.330631  0.430525  1
  O  O20  1  0.750077  0.830583  0.200569  1
  O  O21  1  0.748730  0.331370  0.321837  1
  O  O22  1  0.248821  0.831388  0.551866  1
  O  O23  1  0.748761  0.331285  0.430442  1
  O  O24  1  0.248805  0.831478  0.200429  1
  O  O25  1  0.748711  0.668854  0.430458  1
  O  O26  1  0.248663  0.169060  0.200483  1
  O  O27  1  0.748742  0.668943  0.321849  1
  O  O28  1  0.248642  0.168961  0.551800  1
  O  O29  1  0.250193  0.669757  0.430650  1
  O  O30  1  0.750063  0.169727  0.200555  1
  O  O31  1  0.250129  0.669808  0.321744  1
  O  O32  1  0.750085  0.169635  0.551725  1
  O  O33  1  0.217642  0.000000  0.300368  1
  O  O34  1  0.717643  0.500072  0.530366  1
  O  O35  1  0.217636  0.000000  0.451926  1
  O  O36  1  0.717644  0.500161  0.221926  1
  O  O37  1  0.787121  0.000000  0.302602  1
  O  O38  1  0.287118  0.500175  0.532601  1
  O  O39  1  0.787119  0.000000  0.449691  1
  O  O40  1  0.287121  0.500262  0.219693  1
  O  O41  1  0.249521  0.256481  0.260861  1
  O  O42  1  0.749520  0.756183  0.490840  1
  O  O43  1  0.249558  0.256428  0.491422  1
  O  O44  1  0.749483  0.756219  0.261468  1
  O  O45  1  0.749440  0.244039  0.261458  1
  O  O46  1  0.249432  0.744075  0.491440  1
  O  O47  1  0.749395  0.243999  0.490820  1
  O  O48  1  0.249406  0.744326  0.260789  1
  O  O49  1  0.092710  0.000000  0.195111  1
  O  O50  1  0.592708  0.500024  0.425109  1
  O  O51  1  0.092714  0.000000  0.557182  1
  O  O52  1  0.592705  0.500165  0.327184  1
  O  O53  1  0.905614  0.000000  0.194930  1
  O  O54  1  0.405618  0.500011  0.424925  1
  O  O55  1  0.905615  0.000000  0.557363  1
  O  O56  1  0.405613  0.500156  0.327367  1
  O  O57  1  0.210963  0.000000  0.146148  1
  O  O58  1  0.710963  0.500112  0.376145  1
  O  O59  1  0.786672  0.000000  0.146148  1
  O  O60  1  0.286655  0.500414  0.376148  1
  O  O61  1  0.998939  0.170070  0.239178  1
  O  O62  1  0.498928  0.669957  0.469176  1
  O  O63  1  0.998944  0.169966  0.513118  1
  O  O64  1  0.498924  0.670055  0.283114  1
  O  O65  1  0.998921  0.830254  0.513098  1
  O  O66  1  0.498936  0.330342  0.283105  1
  O  O67  1  0.998923  0.830352  0.239193  1
  O  O68  1  0.498938  0.330244  0.469194  1
  O  O69  1  0.001064  0.500198  0.262214  1
  O  O70  1  0.501062  0.000000  0.492214  1
  O  O71  1  0.001060  0.500099  0.490080  1
  O  O72  1  0.501064  0.000000  0.260080  1
  O  O73  1  0.210963  0.000000  0.606145  1
  O  O74  1  0.786672  0.000000  0.606144  1
  Si  Si75  1  0.203072  0.207716  0.294760  1
  Si  Si76  1  0.703098  0.707487  0.524745  1
  Si  Si77  1  0.203073  0.207647  0.457529  1
  Si  Si78  1  0.703101  0.707570  0.227553  1
  Si  Si79  1  0.797799  0.207310  0.295546  1
  Si  Si80  1  0.297823  0.707324  0.525562  1
  Si  Si81  1  0.797798  0.207228  0.456741  1
  Si  Si82  1  0.297833  0.707411  0.226721  1
  Si  Si83  1  0.797806  0.792919  0.456738  1
  Si  Si84  1  0.297788  0.293116  0.226756  1
  Si  Si85  1  0.797814  0.793001  0.295559  1
  Si  Si86  1  0.297789  0.293035  0.525535  1
  Si  Si87  1  0.203098  0.792777  0.457560  1
  Si  Si88  1  0.703087  0.292738  0.227541  1
  Si  Si89  1  0.203137  0.792799  0.294731  1
  Si  Si90  1  0.703087  0.292656  0.524746  1
  Si  Si91  1  0.199927  0.000000  0.184528  1
  Si  Si92  1  0.699924  0.500070  0.414525  1
  Si  Si93  1  0.199934  0.000000  0.567764  1
  Si  Si94  1  0.699924  0.500147  0.337767  1
  Si  Si95  1  0.798181  0.000000  0.184537  1
  Si  Si96  1  0.298193  0.500204  0.414534  1
  Si  Si97  1  0.798180  0.000000  0.567757  1
  Si  Si98  1  0.298194  0.500261  0.337767  1
  Si  Si99  1  -0.000000  0.292886  0.270804  1
  Si  Si100  1  0.500094  0.792777  0.500801  1
  Si  Si101  1  -0.000000  0.292783  0.481492  1
  Si  Si102  1  0.500099  0.792881  0.251489  1
  Si  Si103  1  -0.000000  0.707403  0.481476  1
  Si  Si104  1  0.500076  0.207506  0.251480  1
  Si  Si105  1  -0.000000  0.707508  0.270815  1
  Si  Si106  1  0.500075  0.207405  0.500817  1
  Si  Si107  1  -0.000000  0.000000  0.216103  1
  Si  Si108  1  0.499014  0.500061  0.446101  1
  Si  Si109  1  0.000000  0.000000  0.536192  1
  Si  Si110  1  0.499011  0.500178  0.306192  1
  H  H111  1  0.210963  0.000000  0.123854  1
  H  H112  1  0.786672  0.000000  0.123854  1
  H  H113  1  0.210963  0.000000  0.628438  1
  H  H114  1  0.786672  0.000000  0.628438  1
