# generated using pymatgen
data_Si54H2O109
_symmetry_space_group_name_H-M   'P 1'
_cell_length_a   14.03621034
_cell_length_b   7.42180539
_cell_length_c   77.51043209
_cell_angle_alpha   90.00000000
_cell_angle_beta   90.00000000
_cell_angle_gamma   90.00000000
_symmetry_Int_Tables_number   1
_chemical_formula_structural   Si54H2O109
_chemical_formula_sum   'Si108 H4 O218'
_cell_volume   8074.57342342
_cell_formula_units_Z   2
loop_
 _symmetry_equiv_pos_site_id
 _symmetry_equiv_pos_as_xyz
  1  'x, y, z'
loop_
 _atom_site_type_symbol
 _atom_site_label
 _atom_site_symmetry_multiplicity
 _atom_site_fract_x
 _atom_site_fract_y
 _atom_site_fract_z
 _atom_site_occupancy
  O  O1  1  0.093831  0.247971  0.151278  1
  O  O2  1  0.593858  0.747832  0.271065  1
  O  O3  1  0.093831  0.247873  0.240545  1
  O  O4  1  0.593859  0.747933  0.120754  1
  O  O5  1  0.906230  0.252519  0.151409  1
  O  O6  1  0.406259  0.752434  0.271203  1
  O  O7  1  0.906231  0.252413  0.240413  1
  O  O8  1  0.406263  0.752541  0.120615  1
  O  O9  1  0.906252  0.747743  0.240398  1
  O  O10  1  0.406228  0.247871  0.120614  1
  O  O11  1  0.906255  0.747847  0.151421  1
  O  O12  1  0.406229  0.247770  0.271210  1
  O  O13  1  0.093842  0.752355  0.240538  1
  O  O14  1  0.593832  0.252423  0.120745  1
  O  O15  1  0.093856  0.752455  0.151281  1
  O  O16  1  0.593833  0.252322  0.271078  1
  O  O17  1  0.250020  0.330723  0.167583  1
  O  O18  1  0.750054  0.830495  0.287363  1
  O  O19  1  0.250000  0.330631  0.224233  1
  O  O20  1  0.750077  0.830583  0.104463  1
  O  O21  1  0.748730  0.331370  0.167624  1
  O  O22  1  0.248821  0.831388  0.287431  1
  O  O23  1  0.748761  0.331285  0.224189  1
  O  O24  1  0.248805  0.831478  0.104390  1
  O  O25  1  0.748711  0.668854  0.224197  1
  O  O26  1  0.248663  0.169060  0.104419  1
  O  O27  1  0.748742  0.668943  0.167630  1
  O  O28  1  0.248642  0.168961  0.287397  1
  O  O29  1  0.250193  0.669757  0.224298  1
  O  O30  1  0.750063  0.169727  0.104456  1
  O  O31  1  0.250129  0.669808  0.167576  1
  O  O32  1  0.750085  0.169635  0.287358  1
  O  O33  1  0.217642  -0.000000  0.156442  1
  O  O34  1  0.717643  0.500072  0.276233  1
  O  O35  1  0.217636  -0.000000  0.235379  1
  O  O36  1  0.717644  0.500161  0.115587  1
  O  O37  1  0.787121  0.000000  0.157606  1
  O  O38  1  0.287118  0.500175  0.277397  1
  O  O39  1  0.787119  0.000000  0.234215  1
  O  O40  1  0.287121  0.500262  0.114424  1
  O  O41  1  0.249521  0.256481  0.135866  1
  O  O42  1  0.749520  0.756183  0.255647  1
  O  O43  1  0.249558  0.256428  0.255950  1
  O  O44  1  0.749483  0.756219  0.136182  1
  O  O45  1  0.749440  0.244039  0.136177  1
  O  O46  1  0.249432  0.744075  0.255959  1
  O  O47  1  0.749395  0.243999  0.255636  1
  O  O48  1  0.249406  0.744326  0.135828  1
  O  O49  1  0.092710  -0.000000  0.101620  1
  O  O50  1  0.592708  0.500024  0.221412  1
  O  O51  1  0.092714  0.000000  0.290200  1
  O  O52  1  0.592705  0.500165  0.170409  1
  O  O53  1  0.905614  -0.000000  0.101526  1
  O  O54  1  0.405618  0.500011  0.221316  1
  O  O55  1  0.905615  0.000000  0.290294  1
  O  O56  1  0.405613  0.500156  0.170504  1
  O  O57  1  0.210963  -0.000000  0.076119  1
  O  O58  1  0.710963  0.500112  0.195910  1
  O  O59  1  0.786672  -0.000000  0.076119  1
  O  O60  1  0.286655  0.500414  0.195911  1
  O  O61  1  0.998939  0.170070  0.124572  1
  O  O62  1  0.498928  0.669957  0.244363  1
  O  O63  1  0.998944  0.169966  0.267250  1
  O  O64  1  0.498924  0.670055  0.147456  1
  O  O65  1  0.998921  0.830254  0.267240  1
  O  O66  1  0.498936  0.330342  0.147451  1
  O  O67  1  0.998923  0.830352  0.124580  1
  O  O68  1  0.498938  0.330244  0.244372  1
  O  O69  1  0.001064  0.500198  0.136570  1
  O  O70  1  0.501062  0.000000  0.256362  1
  O  O71  1  0.001060  0.500099  0.255251  1
  O  O72  1  0.501064  0.000000  0.135459  1
  O  O73  1  0.093831  0.247971  0.390861  1
  O  O74  1  0.593858  0.747832  0.510647  1
  O  O75  1  0.093831  0.247873  0.480127  1
  O  O76  1  0.593859  0.747933  0.360336  1
  O  O77  1  0.906230  0.252519  0.390992  1
  O  O78  1  0.406259  0.752434  0.510786  1
  O  O79  1  0.906231  0.252413  0.479996  1
  O  O80  1  0.406263  0.752541  0.360198  1
  O  O81  1  0.906252  0.747743  0.479980  1
  O  O82  1  0.406228  0.247871  0.360196  1
  O  O83  1  0.906255  0.747847  0.391003  1
  O  O84  1  0.406229  0.247770  0.510792  1
  O  O85  1  0.093842  0.752355  0.480121  1
  O  O86  1  0.593832  0.252423  0.360327  1
  O  O87  1  0.093856  0.752455  0.390864  1
  O  O88  1  0.593833  0.252322  0.510661  1
  O  O89  1  0.250020  0.330723  0.407165  1
  O  O90  1  0.750054  0.830495  0.526946  1
  O  O91  1  0.250000  0.330631  0.463815  1
  O  O92  1  0.750077  0.830583  0.344046  1
  O  O93  1  0.748730  0.331370  0.407207  1
  O  O94  1  0.248821  0.831388  0.527013  1
  O  O95  1  0.748761  0.331285  0.463772  1
  O  O96  1  0.248805  0.831478  0.343973  1
  O  O97  1  0.748711  0.668854  0.463780  1
  O  O98  1  0.248663  0.169060  0.344001  1
  O  O99  1  0.748742  0.668943  0.407213  1
  O  O100  1  0.248642  0.168961  0.526979  1
  O  O101  1  0.250193  0.669757  0.463880  1
  O  O102  1  0.750063  0.169727  0.344039  1
  O  O103  1  0.250129  0.669808  0.407158  1
  O  O104  1  0.750085  0.169635  0.526940  1
  O  O105  1  0.217642  0.000000  0.396025  1
  O  O106  1  0.717643  0.500072  0.515816  1
  O  O107  1  0.217636  0.000000  0.474961  1
  O  O108  1  0.717644  0.500161  0.355170  1
  O  O109  1  0.787121  0.000000  0.397188  1
  O  O110  1  0.287118  0.500175  0.516980  1
  O  O111  1  0.787119  0.000000  0.473797  1
  O  O112  1  0.287121  0.500262  0.354006  1
  O  O113  1  0.249521  0.256481  0.375448  1
  O  O114  1  0.749520  0.756183  0.495229  1
  O  O115  1  0.249558  0.256428  0.495532  1
  O  O116  1  0.749483  0.756219  0.375764  1
  O  O117  1  0.749440  0.244039  0.375759  1
  O  O118  1  0.249432  0.744075  0.495542  1
  O  O119  1  0.749395  0.243999  0.495219  1
  O  O120  1  0.249406  0.744326  0.375410  1
  O  O121  1  0.092710  -0.000000  0.341203  1
  O  O122  1  0.592708  0.500024  0.460994  1
  O  O123  1  0.092714  0.000000  0.529782  1
  O  O124  1  0.592705  0.500165  0.409992  1
  O  O125  1  0.905614  -0.000000  0.341109  1
  O  O126  1  0.405618  0.500011  0.460898  1
  O  O127  1  0.905615  -0.000000  0.529877  1
  O  O128  1  0.405613  0.500156  0.410087  1
  O  O129  1  0.210963  -0.000000  0.315701  1
  O  O130  1  0.710963  0.500112  0.435492  1
  O  O131  1  0.786672  0.000000  0.315701  1
  O  O132  1  0.286655  0.500414  0.435494  1
  O  O133  1  0.998939  0.170070  0.364155  1
  O  O134  1  0.498928  0.669957  0.483946  1
  O  O135  1  0.998944  0.169966  0.506832  1
  O  O136  1  0.498924  0.670055  0.387038  1
  O  O137  1  0.998921  0.830254  0.506822  1
  O  O138  1  0.498936  0.330342  0.387034  1
  O  O139  1  0.998923  0.830352  0.364163  1
  O  O140  1  0.498938  0.330244  0.483955  1
  O  O141  1  0.001064  0.500198  0.376153  1
  O  O142  1  0.501062  0.000000  0.495945  1
  O  O143  1  0.001060  0.500099  0.494833  1
  O  O144  1  0.501064  -0.000000  0.375041  1
  O  O145  1  0.093831  0.247971  0.630443  1
  O  O146  1  0.593858  0.747832  0.750229  1
  O  O147  1  0.093831  0.247873  0.719710  1
  O  O148  1  0.593859  0.747933  0.599919  1
  O  O149  1  0.906230  0.252519  0.630574  1
  O  O150  1  0.406259  0.752434  0.750368  1
  O  O151  1  0.906231  0.252413  0.719578  1
  O  O152  1  0.406263  0.752541  0.599780  1
  O  O153  1  0.906252  0.747743  0.719563  1
  O  O154  1  0.406228  0.247871  0.599779  1
  O  O155  1  0.906255  0.747847  0.630586  1
  O  O156  1  0.406229  0.247770  0.750374  1
  O  O157  1  0.093842  0.752355  0.719703  1
  O  O158  1  0.593832  0.252423  0.599909  1
  O  O159  1  0.093856  0.752455  0.630446  1
  O  O160  1  0.593833  0.252322  0.750243  1
  O  O161  1  0.250020  0.330723  0.646748  1
  O  O162  1  0.750054  0.830495  0.766528  1
  O  O163  1  0.250000  0.330631  0.703398  1
  O  O164  1  0.750077  0.830583  0.583628  1
  O  O165  1  0.748730  0.331370  0.646789  1
  O  O166  1  0.248821  0.831388  0.766596  1
  O  O167  1  0.748761  0.331285  0.703354  1
  O  O168  1  0.248805  0.831478  0.583555  1
  O  O169  1  0.748711  0.668854  0.703362  1
  O  O170  1  0.248663  0.169060  0.583583  1
  O  O171  1  0.748742  0.668943  0.646795  1
  O  O172  1  0.248642  0.168961  0.766562  1
  O  O173  1  0.250193  0.669757  0.703463  1
  O  O174  1  0.750063  0.169727  0.583621  1
  O  O175  1  0.250129  0.669808  0.646740  1
  O  O176  1  0.750085  0.169635  0.766523  1
  O  O177  1  0.217642  -0.000000  0.635607  1
  O  O178  1  0.717643  0.500072  0.755398  1
  O  O179  1  0.217636  0.000000  0.714544  1
  O  O180  1  0.717644  0.500161  0.594752  1
  O  O181  1  0.787121  0.000000  0.636770  1
  O  O182  1  0.287118  0.500175  0.756562  1
  O  O183  1  0.787119  -0.000000  0.713380  1
  O  O184  1  0.287121  0.500262  0.593589  1
  O  O185  1  0.249521  0.256481  0.615030  1
  O  O186  1  0.749520  0.756183  0.734811  1
  O  O187  1  0.249558  0.256428  0.735114  1
  O  O188  1  0.749483  0.756219  0.615347  1
  O  O189  1  0.749440  0.244039  0.615341  1
  O  O190  1  0.249432  0.744075  0.735124  1
  O  O191  1  0.749395  0.243999  0.734801  1
  O  O192  1  0.249406  0.744326  0.614993  1
  O  O193  1  0.092710  0.000000  0.580785  1
  O  O194  1  0.592708  0.500024  0.700577  1
  O  O195  1  0.092714  0.000000  0.769365  1
  O  O196  1  0.592705  0.500165  0.649574  1
  O  O197  1  0.905614  0.000000  0.580691  1
  O  O198  1  0.405618  0.500011  0.700481  1
  O  O199  1  0.905615  -0.000000  0.769459  1
  O  O200  1  0.405613  0.500156  0.649669  1
  O  O201  1  0.210963  0.000000  0.555284  1
  O  O202  1  0.710963  0.500112  0.675075  1
  O  O203  1  0.786672  0.000000  0.555284  1
  O  O204  1  0.286655  0.500414  0.675076  1
  O  O205  1  0.998939  0.170070  0.603737  1
  O  O206  1  0.498928  0.669957  0.723528  1
  O  O207  1  0.998944  0.169966  0.746415  1
  O  O208  1  0.498924  0.670055  0.626621  1
  O  O209  1  0.998921  0.830254  0.746405  1
  O  O210  1  0.498936  0.330342  0.626616  1
  O  O211  1  0.998923  0.830352  0.603745  1
  O  O212  1  0.498938  0.330244  0.723537  1
  O  O213  1  0.001064  0.500198  0.615735  1
  O  O214  1  0.501062  -0.000000  0.735527  1
  O  O215  1  0.001060  0.500099  0.734416  1
  O  O216  1  0.501064  0.000000  0.614624  1
  O  O217  1  0.210963  0.000000  0.794866  1
  O  O218  1  0.786672  0.000000  0.794866  1
  Si  Si219  1  0.203072  0.207716  0.153521  1
  Si  Si220  1  0.703098  0.707487  0.273305  1
  Si  Si221  1  0.203073  0.207647  0.238297  1
  Si  Si222  1  0.703101  0.707570  0.118518  1
  Si  Si223  1  0.797799  0.207310  0.153931  1
  Si  Si224  1  0.297823  0.707324  0.273731  1
  Si  Si225  1  0.797798  0.207228  0.237887  1
  Si  Si226  1  0.297833  0.707411  0.118084  1
  Si  Si227  1  0.797806  0.792919  0.237885  1
  Si  Si228  1  0.297788  0.293116  0.118102  1
  Si  Si229  1  0.797814  0.793001  0.153937  1
  Si  Si230  1  0.297789  0.293035  0.273717  1
  Si  Si231  1  0.203098  0.792777  0.238313  1
  Si  Si232  1  0.703087  0.292738  0.118511  1
  Si  Si233  1  0.203137  0.792799  0.153506  1
  Si  Si234  1  0.703087  0.292656  0.273306  1
  Si  Si235  1  0.199927  0.000000  0.096109  1
  Si  Si236  1  0.699924  0.500070  0.215899  1
  Si  Si237  1  0.199934  0.000000  0.295711  1
  Si  Si238  1  0.699924  0.500147  0.175921  1
  Si  Si239  1  0.798181  -0.000000  0.096113  1
  Si  Si240  1  0.298193  0.500204  0.215904  1
  Si  Si241  1  0.798180  0.000000  0.295708  1
  Si  Si242  1  0.298194  0.500261  0.175921  1
  Si  Si243  1  -0.000000  0.292886  0.141044  1
  Si  Si244  1  0.500094  0.792777  0.260835  1
  Si  Si245  1  -0.000000  0.292783  0.250778  1
  Si  Si246  1  0.500099  0.792881  0.130984  1
  Si  Si247  1  -0.000000  0.707403  0.250770  1
  Si  Si248  1  0.500076  0.207506  0.130980  1
  Si  Si249  1  -0.000000  0.707508  0.141050  1
  Si  Si250  1  0.500075  0.207405  0.260843  1
  Si  Si251  1  0.000000  0.000000  0.112554  1
  Si  Si252  1  0.499014  0.500061  0.232345  1
  Si  Si253  1  0.000000  0.000000  0.279267  1
  Si  Si254  1  0.499011  0.500178  0.159476  1
  Si  Si255  1  0.203072  0.207716  0.393104  1
  Si  Si256  1  0.703098  0.707487  0.512888  1
  Si  Si257  1  0.203073  0.207647  0.477879  1
  Si  Si258  1  0.703101  0.707570  0.358100  1
  Si  Si259  1  0.797799  0.207310  0.393513  1
  Si  Si260  1  0.297823  0.707324  0.513313  1
  Si  Si261  1  0.797798  0.207228  0.477469  1
  Si  Si262  1  0.297833  0.707411  0.357667  1
  Si  Si263  1  0.797806  0.792919  0.477468  1
  Si  Si264  1  0.297788  0.293116  0.357685  1
  Si  Si265  1  0.797814  0.793001  0.393520  1
  Si  Si266  1  0.297789  0.293035  0.513299  1
  Si  Si267  1  0.203098  0.792777  0.477896  1
  Si  Si268  1  0.703087  0.292738  0.358094  1
  Si  Si269  1  0.203137  0.792799  0.393089  1
  Si  Si270  1  0.703087  0.292656  0.512889  1
  Si  Si271  1  0.199927  0.000000  0.335691  1
  Si  Si272  1  0.699924  0.500070  0.455482  1
  Si  Si273  1  0.199934  0.000000  0.535294  1
  Si  Si274  1  0.699924  0.500147  0.415503  1
  Si  Si275  1  0.798181  0.000000  0.335696  1
  Si  Si276  1  0.298193  0.500204  0.455487  1
  Si  Si277  1  0.798180  0.000000  0.535290  1
  Si  Si278  1  0.298194  0.500261  0.415503  1
  Si  Si279  1  -0.000000  0.292886  0.380627  1
  Si  Si280  1  0.500094  0.792777  0.500417  1
  Si  Si281  1  -0.000000  0.292783  0.490360  1
  Si  Si282  1  0.500099  0.792881  0.370567  1
  Si  Si283  1  -0.000000  0.707403  0.490352  1
  Si  Si284  1  0.500076  0.207506  0.370562  1
  Si  Si285  1  -0.000000  0.707508  0.380633  1
  Si  Si286  1  0.500075  0.207405  0.500426  1
  Si  Si287  1  0.000000  0.000000  0.352137  1
  Si  Si288  1  0.499014  0.500061  0.471927  1
  Si  Si289  1  -0.000000  0.000000  0.518850  1
  Si  Si290  1  0.499011  0.500178  0.399058  1
  Si  Si291  1  0.203072  0.207716  0.632686  1
  Si  Si292  1  0.703098  0.707487  0.752470  1
  Si  Si293  1  0.203073  0.207647  0.717462  1
  Si  Si294  1  0.703101  0.707570  0.597683  1
  Si  Si295  1  0.797799  0.207310  0.633095  1
  Si  Si296  1  0.297823  0.707324  0.752896  1
  Si  Si297  1  0.797798  0.207228  0.717052  1
  Si  Si298  1  0.297833  0.707411  0.597249  1
  Si  Si299  1  0.797806  0.792919  0.717050  1
  Si  Si300  1  0.297788  0.293116  0.597267  1
  Si  Si301  1  0.797814  0.793001  0.633102  1
  Si  Si302  1  0.297789  0.293035  0.752882  1
  Si  Si303  1  0.203098  0.792777  0.717478  1
  Si  Si304  1  0.703087  0.292738  0.597676  1
  Si  Si305  1  0.203137  0.792799  0.632671  1
  Si  Si306  1  0.703087  0.292656  0.752471  1
  Si  Si307  1  0.199927  0.000000  0.575274  1
  Si  Si308  1  0.699924  0.500070  0.695064  1
  Si  Si309  1  0.199934  0.000000  0.774876  1
  Si  Si310  1  0.699924  0.500147  0.655086  1
  Si  Si311  1  0.798181  0.000000  0.575278  1
  Si  Si312  1  0.298193  0.500204  0.695069  1
  Si  Si313  1  0.798180  -0.000000  0.774872  1
  Si  Si314  1  0.298194  0.500261  0.655086  1
  Si  Si315  1  -0.000000  0.292886  0.620209  1
  Si  Si316  1  0.500094  0.792777  0.740000  1
  Si  Si317  1  -0.000000  0.292783  0.729943  1
  Si  Si318  1  0.500099  0.792881  0.610149  1
  Si  Si319  1  -0.000000  0.707403  0.729934  1
  Si  Si320  1  0.500076  0.207506  0.610144  1
  Si  Si321  1  -0.000000  0.707508  0.620215  1
  Si  Si322  1  0.500075  0.207405  0.740008  1
  Si  Si323  1  -0.000000  0.000000  0.591719  1
  Si  Si324  1  0.499014  0.500061  0.711510  1
  Si  Si325  1  0.000000  0.000000  0.758432  1
  Si  Si326  1  0.499011  0.500178  0.638641  1
  H  H327  1  0.210963  0.000000  0.064508  1
  H  H328  1  0.786672  -0.000000  0.064507  1
  H  H329  1  0.210963  0.000000  0.806478  1
  H  H330  1  0.786672  0.000000  0.806477  1
