# generated using pymatgen
data_Si21(H4O23)2
_symmetry_space_group_name_H-M   'P 1'
_cell_length_a   12.29755406
_cell_length_b   35.64908765
_cell_length_c   38.38540868
_cell_angle_alpha   90.00000000
_cell_angle_beta   120.00000000
_cell_angle_gamma   90.00000000
_symmetry_Int_Tables_number   1
_chemical_formula_structural   Si21(H4O23)2
_chemical_formula_sum   'Si84 H32 O184'
_cell_volume   14573.5031941
_cell_formula_units_Z   4
loop_
 _symmetry_equiv_pos_site_id
 _symmetry_equiv_pos_as_xyz
  1  'x, y, z'
loop_
 _atom_site_type_symbol
 _atom_site_label
 _atom_site_symmetry_multiplicity
 _atom_site_fract_x
 _atom_site_fract_y
 _atom_site_fract_z
 _atom_site_occupancy
  O  O1  1  0.094523  0.041279  0.204841  1
  O  O2  1  0.451878  0.041272  0.319056  1
  O  O3  1  0.452377  0.041342  0.204961  1
  O  O4  1  0.018688  0.070963  0.249801  1
  O  O5  1  0.667756  0.071048  0.343588  1
  O  O6  1  0.312376  0.071195  0.343495  1
  O  O7  1  0.668381  0.071065  0.249788  1
  O  O8  1  0.214405  0.030443  0.280910  1
  O  O9  1  0.570343  0.030389  0.280979  1
  O  O10  1  0.119379  0.113229  0.311525  1
  O  O11  1  0.760304  0.113272  0.311510  1
  O  O12  1  0.882432  0.102755  0.274712  1
  O  O13  1  0.684137  0.142152  0.241995  1
  O  O14  1  0.978670  0.142055  0.241981  1
  O  O15  1  0.646129  0.000000  0.236404  1
  O  O16  1  0.778315  0.320771  0.207749  1
  O  O17  1  0.776984  0.178881  0.207088  1
  O  O18  1  0.982894  0.286190  0.243881  1
  O  O19  1  0.686552  0.286308  0.244034  1
  O  O20  1  0.980500  0.214047  0.243141  1
  O  O21  1  0.686054  0.214151  0.243072  1
  O  O22  1  0.920837  0.320090  0.177063  1
  O  O23  1  0.540126  0.319890  0.177026  1
  O  O24  1  0.922295  0.179919  0.177152  1
  O  O25  1  0.538133  0.179941  0.177137  1
  O  O26  1  0.888937  0.250078  0.278735  1
  O  O27  1  0.126422  0.248772  0.309320  1
  O  O28  1  0.746946  0.248690  0.309353  1
  O  O29  1  0.095207  0.458546  0.204621  1
  O  O30  1  0.452321  0.458664  0.318995  1
  O  O31  1  0.452399  0.458797  0.204583  1
  O  O32  1  0.019245  0.429095  0.249657  1
  O  O33  1  0.668814  0.429182  0.343450  1
  O  O34  1  0.312111  0.429315  0.343526  1
  O  O35  1  0.668627  0.429191  0.249632  1
  O  O36  1  0.214918  0.469623  0.280621  1
  O  O37  1  0.570057  0.469750  0.280640  1
  O  O38  1  -0.000000  0.499960  0.236000  1
  O  O39  1  0.119928  0.386924  0.311442  1
  O  O40  1  0.760526  0.386822  0.311343  1
  O  O41  1  0.882869  0.397483  0.274645  1
  O  O42  1  0.684226  0.358209  0.241751  1
  O  O43  1  0.978957  0.358086  0.241931  1
  O  O44  1  0.905527  0.541400  0.174024  1
  O  O45  1  0.547357  0.541289  0.173855  1
  O  O46  1  0.687864  0.570940  0.243060  1
  O  O47  1  0.980936  0.570819  0.243343  1
  O  O48  1  0.784813  0.530398  0.211439  1
  O  O49  1  0.880576  0.613173  0.272768  1
  O  O50  1  0.117668  0.602757  0.311854  1
  O  O51  1  0.765239  0.602487  0.311726  1
  O  O52  1  0.021038  0.641817  0.248080  1
  O  O53  1  0.663013  0.641822  0.342546  1
  O  O54  1  0.315750  0.642231  0.342405  1
  O  O55  1  0.663320  0.641922  0.248189  1
  O  O56  1  0.353784  0.500241  0.349296  1
  O  O57  1  0.646107  0.500057  0.235993  1
  O  O58  1  0.222460  0.821135  0.278561  1
  O  O59  1  0.554026  0.821120  0.278072  1
  O  O60  1  0.221712  0.679100  0.277792  1
  O  O61  1  0.556683  0.679168  0.278306  1
  O  O62  1  0.312915  0.786372  0.344051  1
  O  O63  1  0.666633  0.786008  0.248881  1
  O  O64  1  0.666437  0.785859  0.343165  1
  O  O65  1  0.019374  0.785829  0.248759  1
  O  O66  1  0.313949  0.714213  0.342999  1
  O  O67  1  0.669235  0.713848  0.248866  1
  O  O68  1  0.669676  0.713710  0.343910  1
  O  O69  1  0.016837  0.713667  0.248959  1
  O  O70  1  0.079747  0.820341  0.202104  1
  O  O71  1  0.460460  0.820036  0.324584  1
  O  O72  1  0.460482  0.820021  0.201569  1
  O  O73  1  0.076742  0.680212  0.201424  1
  O  O74  1  0.460683  0.680116  0.323850  1
  O  O75  1  0.460698  0.680027  0.201989  1
  O  O76  1  0.110790  0.749949  0.313768  1
  O  O77  1  0.777900  0.750012  0.313783  1
  O  O78  1  0.873216  0.751273  0.268203  1
  O  O79  1  0.904107  0.958688  0.174221  1
  O  O80  1  0.547295  0.958723  0.174327  1
  O  O81  1  0.687514  0.929055  0.243514  1
  O  O82  1  0.980139  0.928949  0.243351  1
  O  O83  1  0.784680  0.969605  0.211979  1
  O  O84  1  0.880052  0.886759  0.273023  1
  O  O85  1  0.116970  0.897453  0.311925  1
  O  O86  1  0.764648  0.897329  0.311987  1
  O  O87  1  0.020725  0.857876  0.248512  1
  O  O88  1  0.662836  0.857873  0.342776  1
  O  O89  1  0.315735  0.858293  0.342928  1
  O  O90  1  0.662731  0.857992  0.248368  1
  O  O91  1  -0.000000  -0.000000  0.236404  1
  O  O92  1  0.094523  0.041279  0.525207  1
  O  O93  1  0.452377  0.041342  0.525327  1
  O  O94  1  0.311900  0.070902  0.456074  1
  O  O95  1  0.018815  0.070637  0.455869  1
  O  O96  1  0.214986  0.030332  0.487746  1
  O  O97  1  0.353878  -0.000000  0.349848  1
  O  O98  1  0.645892  0.000000  0.349782  1
  O  O99  1  0.118924  0.112929  0.426246  1
  O  O100  1  0.881966  0.102516  0.387368  1
  O  O101  1  0.234838  0.102505  0.387419  1
  O  O102  1  0.979092  0.141688  0.451057  1
  O  O103  1  0.336230  0.142237  0.356633  1
  O  O104  1  0.684217  0.142135  0.356672  1
  O  O105  1  0.335842  0.141920  0.450987  1
  O  O106  1  0.353761  0.000000  0.463241  1
  O  O107  1  0.776833  0.321028  0.420865  1
  O  O108  1  0.444933  0.320995  0.420839  1
  O  O109  1  0.778564  0.178985  0.421266  1
  O  O110  1  0.443762  0.179049  0.421249  1
  O  O111  1  0.686869  0.286349  0.355293  1
  O  O112  1  0.333322  0.286011  0.450375  1
  O  O113  1  0.329911  0.286428  0.355242  1
  O  O114  1  0.980047  0.285765  0.450475  1
  O  O115  1  0.685680  0.214183  0.356133  1
  O  O116  1  0.330093  0.213850  0.450310  1
  O  O117  1  0.333530  0.214274  0.356147  1
  O  O118  1  0.983287  0.213605  0.450271  1
  O  O119  1  0.920837  0.320090  0.497429  1
  O  O120  1  0.538486  0.319736  0.374466  1
  O  O121  1  0.540126  0.319890  0.497393  1
  O  O122  1  0.922295  0.179919  0.497518  1
  O  O123  1  0.539934  0.179810  0.375622  1
  O  O124  1  0.538133  0.179941  0.497504  1
  O  O125  1  0.888872  0.249928  0.385455  1
  O  O126  1  0.221833  0.250081  0.385426  1
  O  O127  1  0.126356  0.251449  0.430938  1
  O  O128  1  0.095207  0.458546  0.524988  1
  O  O129  1  0.452399  0.458797  0.524950  1
  O  O130  1  0.312209  0.429026  0.455828  1
  O  O131  1  0.019547  0.428767  0.455865  1
  O  O132  1  0.214931  0.469548  0.487291  1
  O  O133  1  -0.000000  0.499712  0.462804  1
  O  O134  1  0.119912  0.386539  0.426382  1
  O  O135  1  0.882835  0.397209  0.387274  1
  O  O136  1  0.234894  0.397371  0.387349  1
  O  O137  1  0.978691  0.357751  0.450782  1
  O  O138  1  0.337417  0.358294  0.356511  1
  O  O139  1  0.683738  0.358202  0.356472  1
  O  O140  1  0.337578  0.357992  0.450935  1
  O  O141  1  0.905527  0.541400  0.494391  1
  O  O142  1  0.547805  0.541388  0.380105  1
  O  O143  1  0.547357  0.541289  0.494222  1
  O  O144  1  0.981399  0.570617  0.449212  1
  O  O145  1  0.331907  0.571202  0.355606  1
  O  O146  1  0.687896  0.570866  0.355618  1
  O  O147  1  0.331487  0.571081  0.449394  1
  O  O148  1  0.785155  0.530354  0.418373  1
  O  O149  1  0.429269  0.530402  0.418188  1
  O  O150  1  0.645880  0.500017  0.349513  1
  O  O151  1  0.880383  0.613118  0.387664  1
  O  O152  1  0.240017  0.613499  0.387760  1
  O  O153  1  0.117457  0.602756  0.424360  1
  O  O154  1  0.315736  0.642138  0.457389  1
  O  O155  1  0.021161  0.641625  0.457390  1
  O  O156  1  0.353462  0.500061  0.462813  1
  O  O157  1  0.222482  0.820874  0.491725  1
  O  O158  1  0.221681  0.678991  0.491873  1
  O  O159  1  0.019412  0.785620  0.456438  1
  O  O160  1  0.313174  0.786301  0.455115  1
  O  O161  1  0.016622  0.713472  0.454969  1
  O  O162  1  0.313813  0.714136  0.456237  1
  O  O163  1  0.079747  0.820341  0.522471  1
  O  O164  1  0.460482  0.820021  0.521936  1
  O  O165  1  0.076742  0.680212  0.521791  1
  O  O166  1  0.460698  0.680027  0.522356  1
  O  O167  1  0.110877  0.750015  0.420523  1
  O  O168  1  0.873430  0.751341  0.389880  1
  O  O169  1  0.252646  0.748539  0.389856  1
  O  O170  1  0.904107  0.958688  0.494588  1
  O  O171  1  0.547412  0.958760  0.380273  1
  O  O172  1  0.547295  0.958723  0.494694  1
  O  O173  1  0.980065  0.928748  0.449800  1
  O  O174  1  0.330942  0.929336  0.355804  1
  O  O175  1  0.687093  0.928985  0.355797  1
  O  O176  1  0.330918  0.929219  0.449625  1
  O  O177  1  0.784927  0.969532  0.418536  1
  O  O178  1  0.429815  0.969762  0.418643  1
  O  O179  1  0.879771  0.886802  0.387854  1
  O  O180  1  0.238457  0.887074  0.387816  1
  O  O181  1  0.116678  0.897497  0.424761  1
  O  O182  1  0.315328  0.858207  0.457294  1
  O  O183  1  0.020711  0.857663  0.457192  1
  O  O184  1  -0.000000  -0.000000  0.463236  1
  Si  Si185  1  0.000000  0.107081  0.269346  1
  Si  Si186  1  0.081533  0.035687  0.243006  1
  Si  Si187  1  0.584301  0.035674  0.323457  1
  Si  Si188  1  0.333022  0.035809  0.323387  1
  Si  Si189  1  0.584654  0.035726  0.243046  1
  Si  Si190  1  0.748317  0.107163  0.269342  1
  Si  Si191  1  0.917990  0.321529  0.217165  1
  Si  Si192  1  0.668021  0.321537  0.217163  1
  Si  Si193  1  0.917163  0.178420  0.216864  1
  Si  Si194  1  0.667265  0.178486  0.216838  1
  Si  Si195  1  0.748881  0.249935  0.269091  1
  Si  Si196  1  0.998815  0.249902  0.269057  1
  Si  Si197  1  0.082053  0.464299  0.242736  1
  Si  Si198  1  0.584456  0.464367  0.323181  1
  Si  Si199  1  0.333288  0.464437  0.323187  1
  Si  Si200  1  0.584530  0.464465  0.242719  1
  Si  Si201  1  0.748631  0.393115  0.269205  1
  Si  Si202  1  0.000000  0.393070  0.269284  1
  Si  Si203  1  0.748798  0.606965  0.268799  1
  Si  Si204  1  0.666571  0.535659  0.216153  1
  Si  Si205  1  0.917905  0.535658  0.216257  1
  Si  Si206  1  -0.000000  0.606974  0.268887  1
  Si  Si207  1  0.748706  0.606908  0.349372  1
  Si  Si208  1  0.251837  0.607293  0.349409  1
  Si  Si209  1  0.332112  0.821707  0.323425  1
  Si  Si210  1  0.584449  0.821591  0.242920  1
  Si  Si211  1  0.584475  0.821522  0.322974  1
  Si  Si212  1  0.082864  0.821627  0.243153  1
  Si  Si213  1  0.332114  0.678588  0.322571  1
  Si  Si214  1  0.585996  0.678479  0.242960  1
  Si  Si215  1  0.586006  0.678437  0.323045  1
  Si  Si216  1  0.081481  0.678444  0.242726  1
  Si  Si217  1  0.000000  0.750040  0.268888  1
  Si  Si218  1  0.747753  0.750107  0.349002  1
  Si  Si219  1  0.250846  0.749889  0.348997  1
  Si  Si220  1  0.747655  0.750168  0.268899  1
  Si  Si221  1  0.748284  0.892919  0.269073  1
  Si  Si222  1  0.666401  0.964361  0.216652  1
  Si  Si223  1  0.917451  0.964313  0.216589  1
  Si  Si224  1  0.000000  0.892886  0.269031  1
  Si  Si225  1  0.250856  0.106899  0.430295  1
  Si  Si226  1  0.333193  0.035662  0.483034  1
  Si  Si227  1  0.081907  0.035477  0.482954  1
  Si  Si228  1  0.000000  0.106760  0.430281  1
  Si  Si229  1  0.251206  0.107144  0.349767  1
  Si  Si230  1  0.747974  0.107102  0.349766  1
  Si  Si231  1  0.667328  0.321597  0.375943  1
  Si  Si232  1  0.415560  0.321559  0.456206  1
  Si  Si233  1  0.414222  0.321620  0.375921  1
  Si  Si234  1  0.916641  0.321512  0.456206  1
  Si  Si235  1  0.667958  0.178472  0.376555  1
  Si  Si236  1  0.413387  0.178461  0.456376  1
  Si  Si237  1  0.414790  0.178527  0.376539  1
  Si  Si238  1  0.918607  0.178317  0.456385  1
  Si  Si239  1  0.998781  0.250047  0.430330  1
  Si  Si240  1  0.252026  0.250019  0.350218  1
  Si  Si241  1  0.748827  0.249910  0.350228  1
  Si  Si242  1  0.252009  0.250221  0.430305  1
  Si  Si243  1  0.251591  0.392865  0.430300  1
  Si  Si244  1  0.333261  0.464379  0.482621  1
  Si  Si245  1  0.082139  0.464125  0.482647  1
  Si  Si246  1  -0.000000  0.392681  0.430220  1
  Si  Si247  1  0.251592  0.393167  0.349723  1
  Si  Si248  1  0.748588  0.393018  0.349672  1
  Si  Si249  1  -0.000000  0.606844  0.429790  1
  Si  Si250  1  0.918232  0.535535  0.456200  1
  Si  Si251  1  0.415381  0.535832  0.375729  1
  Si  Si252  1  0.666719  0.535672  0.375845  1
  Si  Si253  1  0.415038  0.535699  0.456147  1
  Si  Si254  1  0.251748  0.607221  0.429878  1
  Si  Si255  1  0.082893  0.821412  0.482420  1
  Si  Si256  1  0.332100  0.821563  0.481975  1
  Si  Si257  1  0.081441  0.678314  0.482006  1
  Si  Si258  1  0.332081  0.678494  0.482464  1
  Si  Si259  1  0.250904  0.749886  0.430147  1
  Si  Si260  1  -0.000000  0.749988  0.430169  1
  Si  Si261  1  0.000000  0.892833  0.430063  1
  Si  Si262  1  0.917576  0.964157  0.456504  1
  Si  Si263  1  0.415301  0.964520  0.376076  1
  Si  Si264  1  0.666396  0.964291  0.376017  1
  Si  Si265  1  0.415241  0.964437  0.456536  1
  Si  Si266  1  0.748005  0.892921  0.349603  1
  Si  Si267  1  0.250692  0.893188  0.430016  1
  Si  Si268  1  0.250995  0.893213  0.349595  1
  H  H269  1  0.094523  0.041279  0.181394  1
  H  H270  1  0.452377  0.041342  0.181514  1
  H  H271  1  0.920837  0.320090  0.153616  1
  H  H272  1  0.540126  0.319890  0.153580  1
  H  H273  1  0.922295  0.179919  0.153705  1
  H  H274  1  0.538133  0.179941  0.153691  1
  H  H275  1  0.095207  0.458546  0.181175  1
  H  H276  1  0.452399  0.458797  0.181137  1
  H  H277  1  0.905527  0.541400  0.150578  1
  H  H278  1  0.547357  0.541289  0.150409  1
  H  H279  1  0.079747  0.820341  0.178658  1
  H  H280  1  0.460482  0.820021  0.178122  1
  H  H281  1  0.076742  0.680212  0.177978  1
  H  H282  1  0.460698  0.680027  0.178543  1
  H  H283  1  0.904107  0.958688  0.150775  1
  H  H284  1  0.547295  0.958723  0.150881  1
  H  H285  1  0.094523  0.041279  0.548654  1
  H  H286  1  0.452377  0.041342  0.548774  1
  H  H287  1  0.920837  0.320090  0.520876  1
  H  H288  1  0.540126  0.319890  0.520839  1
  H  H289  1  0.922295  0.179919  0.520965  1
  H  H290  1  0.538133  0.179941  0.520950  1
  H  H291  1  0.095207  0.458546  0.548434  1
  H  H292  1  0.452399  0.458797  0.548396  1
  H  H293  1  0.905527  0.541400  0.517837  1
  H  H294  1  0.547357  0.541289  0.517668  1
  H  H295  1  0.079747  0.820341  0.545917  1
  H  H296  1  0.460482  0.820021  0.545382  1
  H  H297  1  0.076742  0.680212  0.545237  1
  H  H298  1  0.460698  0.680027  0.545803  1
  H  H299  1  0.904107  0.958688  0.518034  1
  H  H300  1  0.547295  0.958723  0.518141  1
