# generated using pymatgen
data_Si8H2O17
_symmetry_space_group_name_H-M   'P 1'
_cell_length_a   9.65333091
_cell_length_b   14.00623971
_cell_length_c   48.71832120
_cell_angle_alpha   133.57649780
_cell_angle_beta   90.00000000
_cell_angle_gamma   90.00000000
_symmetry_Int_Tables_number   1
_chemical_formula_structural   Si8H2O17
_chemical_formula_sum   'Si32 H8 O68'
_cell_volume   4772.02030393
_cell_formula_units_Z   4
loop_
 _symmetry_equiv_pos_site_id
 _symmetry_equiv_pos_as_xyz
  1  'x, y, z'
loop_
 _atom_site_type_symbol
 _atom_site_label
 _atom_site_symmetry_multiplicity
 _atom_site_fract_x
 _atom_site_fract_y
 _atom_site_fract_z
 _atom_site_occupancy
  O  O1  1  0.749788  0.404428  0.204815  1
  O  O2  1  0.249934  0.904505  0.204821  1
  O  O3  1  0.429092  0.845303  0.228597  1
  O  O4  1  0.929002  0.345454  0.228641  1
  O  O5  1  0.749933  0.095427  0.242666  1
  O  O6  1  0.249788  0.595350  0.242642  1
  O  O7  1  0.570616  0.345303  0.228609  1
  O  O8  1  0.070706  0.845455  0.228624  1
  O  O9  1  0.554999  0.249810  0.160143  1
  O  O10  1  0.054999  0.750069  0.160173  1
  O  O11  1  0.444709  0.749807  0.259214  1
  O  O12  1  0.499758  0.499800  0.220606  1
  O  O13  1  -0.000000  0.000000  0.220661  1
  O  O14  1  0.554999  0.249887  0.259247  1
  O  O15  1  0.054999  0.749945  0.259236  1
  O  O16  1  0.499974  -0.000000  0.220618  1
  O  O17  1  0.000000  0.499974  0.220641  1
  O  O18  1  0.444710  0.749885  0.160140  1
  O  O19  1  0.944710  0.249947  0.160175  1
  O  O20  1  0.570706  0.154401  0.289865  1
  O  O21  1  0.070616  0.654552  0.289880  1
  O  O22  1  0.249920  0.904428  0.275825  1
  O  O23  1  0.749775  0.404505  0.275849  1
  O  O24  1  0.429002  0.654401  0.289853  1
  O  O25  1  0.929092  0.154552  0.289898  1
  O  O26  1  0.749788  0.404428  0.402991  1
  O  O27  1  0.249934  0.904505  0.402997  1
  O  O28  1  0.429092  0.845303  0.426773  1
  O  O29  1  0.929002  0.345454  0.426818  1
  O  O30  1  0.749933  0.095427  0.440843  1
  O  O31  1  0.249788  0.595350  0.440818  1
  O  O32  1  0.570616  0.345303  0.426785  1
  O  O33  1  0.070706  0.845455  0.426800  1
  O  O34  1  0.249775  0.595427  0.313676  1
  O  O35  1  0.749921  0.095351  0.313671  1
  O  O36  1  0.554999  0.249810  0.358319  1
  O  O37  1  0.054999  0.750069  0.358349  1
  O  O38  1  0.499949  -0.000000  0.297834  1
  O  O39  1  -0.000000  0.500079  0.297890  1
  O  O40  1  0.444709  0.749807  0.457390  1
  O  O41  1  0.944710  0.250071  0.259286  1
  O  O42  1  0.499758  0.499800  0.418783  1
  O  O43  1  0.000000  -0.000000  0.418838  1
  O  O44  1  0.554999  0.249887  0.457423  1
  O  O45  1  0.054999  0.749945  0.457412  1
  O  O46  1  0.499974  0.000000  0.418794  1
  O  O47  1  -0.000000  0.499974  0.418817  1
  O  O48  1  0.444710  0.749885  0.358316  1
  O  O49  1  0.944710  0.249947  0.358351  1
  O  O50  1  0.499734  0.499859  0.297846  1
  O  O51  1  0.000000  -0.000000  0.297869  1
  O  O52  1  0.570706  0.154401  0.488041  1
  O  O53  1  0.070616  0.654552  0.488056  1
  O  O54  1  0.249920  0.904428  0.474001  1
  O  O55  1  0.749775  0.404505  0.474026  1
  O  O56  1  0.429002  0.654401  0.488029  1
  O  O57  1  0.929092  0.154552  0.488074  1
  O  O58  1  0.249775  0.595427  0.511853  1
  O  O59  1  0.749921  0.095351  0.511847  1
  O  O60  1  0.554999  0.249810  0.556495  1
  O  O61  1  0.054999  0.750069  0.556525  1
  O  O62  1  0.499949  -0.000000  0.496011  1
  O  O63  1  -0.000000  0.500079  0.496066  1
  O  O64  1  0.944710  0.250071  0.457463  1
  O  O65  1  0.444710  0.749885  0.556492  1
  O  O66  1  0.944710  0.249947  0.556528  1
  O  O67  1  0.499734  0.499859  0.496022  1
  O  O68  1  0.000000  -0.000000  0.496046  1
  Si  Si69  1  0.409189  0.624843  0.252412  1
  Si  Si70  1  0.909306  0.125044  0.252464  1
  Si  Si71  1  0.590412  0.374823  0.202874  1
  Si  Si72  1  0.090528  0.875026  0.202903  1
  Si  Si73  1  0.590529  0.124898  0.252433  1
  Si  Si74  1  0.090412  0.624964  0.252434  1
  Si  Si75  1  0.409308  0.874881  0.202876  1
  Si  Si76  1  0.909187  0.374943  0.202900  1
  Si  Si77  1  0.590520  0.124842  0.315589  1
  Si  Si78  1  0.090400  0.625044  0.315618  1
  Si  Si79  1  0.409298  0.874824  0.266032  1
  Si  Si80  1  0.909178  0.375025  0.266084  1
  Si  Si81  1  0.409189  0.624843  0.450588  1
  Si  Si82  1  0.909306  0.125044  0.450640  1
  Si  Si83  1  0.590412  0.374823  0.401050  1
  Si  Si84  1  0.090528  0.875026  0.401079  1
  Si  Si85  1  0.590529  0.124898  0.450609  1
  Si  Si86  1  0.090412  0.624964  0.450610  1
  Si  Si87  1  0.409308  0.874881  0.401052  1
  Si  Si88  1  0.909187  0.374943  0.401076  1
  Si  Si89  1  0.409178  0.624898  0.315591  1
  Si  Si90  1  0.909297  0.124963  0.315616  1
  Si  Si91  1  0.590403  0.374877  0.266053  1
  Si  Si92  1  0.090519  0.874946  0.266054  1
  Si  Si93  1  0.590520  0.124842  0.513766  1
  Si  Si94  1  0.090400  0.625044  0.513794  1
  Si  Si95  1  0.409298  0.874824  0.464208  1
  Si  Si96  1  0.909178  0.375025  0.464261  1
  Si  Si97  1  0.409178  0.624898  0.513767  1
  Si  Si98  1  0.909297  0.124963  0.513792  1
  Si  Si99  1  0.590403  0.374877  0.464229  1
  Si  Si100  1  0.090519  0.874946  0.464230  1
  H  H101  1  0.554999  0.249810  0.141669  1
  H  H102  1  0.054999  0.750069  0.141699  1
  H  H103  1  0.444710  0.749885  0.141666  1
  H  H104  1  0.944710  0.249947  0.141702  1
  H  H105  1  0.554999  0.249810  0.574969  1
  H  H106  1  0.054999  0.750069  0.574999  1
  H  H107  1  0.444710  0.749885  0.574966  1
  H  H108  1  0.944710  0.249947  0.575001  1
