# generated using pymatgen
data_Si48H2O97
_symmetry_space_group_name_H-M   'P 1'
_cell_length_a   16.64856489
_cell_length_b   5.10304398
_cell_length_c   81.41826655
_cell_angle_alpha   90.00000000
_cell_angle_beta   90.00000000
_cell_angle_gamma   90.00000000
_symmetry_Int_Tables_number   1
_chemical_formula_structural   Si48H2O97
_chemical_formula_sum   'Si96 H4 O194'
_cell_volume   6917.16230517
_cell_formula_units_Z   2
loop_
 _symmetry_equiv_pos_site_id
 _symmetry_equiv_pos_as_xyz
  1  'x, y, z'
loop_
 _atom_site_type_symbol
 _atom_site_label
 _atom_site_symmetry_multiplicity
 _atom_site_fract_x
 _atom_site_fract_y
 _atom_site_fract_z
 _atom_site_occupancy
  O  O1  1  0.639722  0.229088  0.269098  1
  O  O2  1  0.139700  0.229033  0.147058  1
  O  O3  1  0.639697  0.770680  0.119916  1
  O  O4  1  0.139725  0.770767  0.241956  1
  O  O5  1  0.360188  0.770766  0.269099  1
  O  O6  1  0.860170  0.770679  0.147057  1
  O  O7  1  0.360167  0.229032  0.119915  1
  O  O8  1  0.860190  0.229086  0.241957  1
  O  O9  1  0.632832  0.728459  0.268775  1
  O  O10  1  0.132811  0.728406  0.146735  1
  O  O11  1  0.632813  0.271307  0.120238  1
  O  O12  1  0.132830  0.271395  0.242280  1
  O  O13  1  0.367081  0.271392  0.268775  1
  O  O14  1  0.867055  0.271308  0.146735  1
  O  O15  1  0.367057  0.728404  0.120239  1
  O  O16  1  0.867079  0.728459  0.242279  1
  O  O17  1  0.749953  0.496093  0.255526  1
  O  O18  1  0.249937  0.496030  0.133488  1
  O  O19  1  0.749937  0.503683  0.133485  1
  O  O20  1  0.249953  0.503759  0.255529  1
  O  O21  1  0.741394  0.493494  0.286377  1
  O  O22  1  0.241367  0.493443  0.164339  1
  O  O23  1  0.741367  0.506291  0.102634  1
  O  O24  1  0.241394  0.506336  0.224677  1
  O  O25  1  0.258523  0.506343  0.286380  1
  O  O26  1  0.758496  0.506284  0.164336  1
  O  O27  1  0.258496  0.493449  0.102637  1
  O  O28  1  0.758523  0.493487  0.224675  1
  O  O29  1  0.861809  0.215767  0.294326  1
  O  O30  1  0.361780  0.215689  0.172287  1
  O  O31  1  0.861785  0.784023  0.094687  1
  O  O32  1  0.361804  0.784084  0.216727  1
  O  O33  1  0.138112  0.784105  0.294328  1
  O  O34  1  0.638079  0.784004  0.172285  1
  O  O35  1  0.138085  0.215707  0.094687  1
  O  O36  1  0.638106  0.215748  0.216728  1
  O  O37  1  0.797710  0.499886  0.072465  1
  O  O38  1  0.297711  0.499896  0.194508  1
  O  O39  1  0.202179  0.499893  0.072467  1
  O  O40  1  0.702180  0.499890  0.194506  1
  O  O41  1  0.873991  0.711197  0.292865  1
  O  O42  1  0.373975  0.711118  0.170821  1
  O  O43  1  0.873970  0.288594  0.096150  1
  O  O44  1  0.373996  0.288654  0.218191  1
  O  O45  1  0.125914  0.288675  0.292862  1
  O  O46  1  0.625900  0.288574  0.170824  1
  O  O47  1  0.125895  0.711137  0.096150  1
  O  O48  1  0.625919  0.711178  0.218191  1
  O  O49  1  0.000000  -0.000000  0.290063  1
  O  O50  1  0.499933  -0.000000  0.168022  1
  O  O51  1  -0.000000  -0.000000  0.098951  1
  O  O52  1  0.499955  -0.000000  0.220992  1
  O  O53  1  0.896347  0.989985  0.267658  1
  O  O54  1  0.396324  0.989960  0.145618  1
  O  O55  1  0.896326  0.009785  0.121355  1
  O  O56  1  0.396345  0.009833  0.243396  1
  O  O57  1  0.103565  0.009831  0.267658  1
  O  O58  1  0.603543  0.009788  0.145618  1
  O  O59  1  0.103545  0.989958  0.121355  1
  O  O60  1  0.603563  0.989989  0.243396  1
  O  O61  1  -0.000000  -0.000000  0.245278  1
  O  O62  1  0.499934  -0.000000  0.123237  1
  O  O63  1  -0.000000  -0.000000  0.143736  1
  O  O64  1  0.499955  0.000000  0.265777  1
  O  O65  1  0.639722  0.229088  0.513180  1
  O  O66  1  0.139700  0.229033  0.391140  1
  O  O67  1  0.639697  0.770680  0.363998  1
  O  O68  1  0.139725  0.770767  0.486038  1
  O  O69  1  0.360188  0.770766  0.513181  1
  O  O70  1  0.860170  0.770679  0.391138  1
  O  O71  1  0.360167  0.229032  0.363997  1
  O  O72  1  0.860190  0.229086  0.486038  1
  O  O73  1  0.632832  0.728459  0.512857  1
  O  O74  1  0.132811  0.728406  0.390816  1
  O  O75  1  0.632813  0.271307  0.364320  1
  O  O76  1  0.132830  0.271395  0.486362  1
  O  O77  1  0.367081  0.271392  0.512857  1
  O  O78  1  0.867055  0.271308  0.390817  1
  O  O79  1  0.367057  0.728404  0.364321  1
  O  O80  1  0.867079  0.728459  0.486361  1
  O  O81  1  0.749953  0.496093  0.499608  1
  O  O82  1  0.249937  0.496030  0.377570  1
  O  O83  1  0.749937  0.503683  0.377567  1
  O  O84  1  0.249953  0.503759  0.499611  1
  O  O85  1  0.741394  0.493494  0.530459  1
  O  O86  1  0.241367  0.493443  0.408421  1
  O  O87  1  0.741367  0.506291  0.346716  1
  O  O88  1  0.241394  0.506336  0.468759  1
  O  O89  1  0.258523  0.506343  0.530461  1
  O  O90  1  0.758496  0.506284  0.408418  1
  O  O91  1  0.258496  0.493449  0.346718  1
  O  O92  1  0.758523  0.493487  0.468757  1
  O  O93  1  0.861809  0.215767  0.538408  1
  O  O94  1  0.361780  0.215689  0.416369  1
  O  O95  1  0.861785  0.784023  0.338769  1
  O  O96  1  0.361804  0.784084  0.460809  1
  O  O97  1  0.138112  0.784105  0.538409  1
  O  O98  1  0.638079  0.784004  0.416367  1
  O  O99  1  0.138085  0.215707  0.338768  1
  O  O100  1  0.638106  0.215748  0.460810  1
  O  O101  1  0.797710  0.499886  0.316547  1
  O  O102  1  0.297711  0.499896  0.438589  1
  O  O103  1  0.202179  0.499893  0.316549  1
  O  O104  1  0.702180  0.499890  0.438588  1
  O  O105  1  0.873991  0.711197  0.536947  1
  O  O106  1  0.373975  0.711118  0.414903  1
  O  O107  1  0.873970  0.288594  0.340232  1
  O  O108  1  0.373996  0.288654  0.462273  1
  O  O109  1  0.125914  0.288675  0.536944  1
  O  O110  1  0.625900  0.288574  0.414906  1
  O  O111  1  0.125895  0.711137  0.340232  1
  O  O112  1  0.625919  0.711178  0.462273  1
  O  O113  1  -0.000000  -0.000000  0.534145  1
  O  O114  1  0.499933  -0.000000  0.412104  1
  O  O115  1  -0.000000  -0.000000  0.343032  1
  O  O116  1  0.499955  -0.000000  0.465073  1
  O  O117  1  0.896347  0.989985  0.511740  1
  O  O118  1  0.396324  0.989960  0.389699  1
  O  O119  1  0.896326  0.009785  0.365437  1
  O  O120  1  0.396345  0.009833  0.487478  1
  O  O121  1  0.103565  0.009831  0.511740  1
  O  O122  1  0.603543  0.009788  0.389699  1
  O  O123  1  0.103545  0.989958  0.365437  1
  O  O124  1  0.603563  0.989989  0.487478  1
  O  O125  1  -0.000000  -0.000000  0.489359  1
  O  O126  1  0.499934  -0.000000  0.367319  1
  O  O127  1  0.000000  -0.000000  0.387818  1
  O  O128  1  0.499955  -0.000000  0.509859  1
  O  O129  1  0.639722  0.229088  0.757261  1
  O  O130  1  0.139700  0.229033  0.635221  1
  O  O131  1  0.639697  0.770680  0.608079  1
  O  O132  1  0.139725  0.770767  0.730120  1
  O  O133  1  0.360188  0.770766  0.757263  1
  O  O134  1  0.860170  0.770679  0.635220  1
  O  O135  1  0.360167  0.229032  0.608079  1
  O  O136  1  0.860190  0.229086  0.730120  1
  O  O137  1  0.632832  0.728459  0.756939  1
  O  O138  1  0.132811  0.728406  0.634898  1
  O  O139  1  0.632813  0.271307  0.608401  1
  O  O140  1  0.132830  0.271395  0.730444  1
  O  O141  1  0.367081  0.271392  0.756939  1
  O  O142  1  0.867055  0.271308  0.634898  1
  O  O143  1  0.367057  0.728404  0.608403  1
  O  O144  1  0.867079  0.728459  0.730442  1
  O  O145  1  0.749953  0.496093  0.743689  1
  O  O146  1  0.249937  0.496030  0.621652  1
  O  O147  1  0.749937  0.503683  0.621649  1
  O  O148  1  0.249953  0.503759  0.743692  1
  O  O149  1  0.741394  0.493494  0.774541  1
  O  O150  1  0.241367  0.493443  0.652502  1
  O  O151  1  0.741367  0.506291  0.590798  1
  O  O152  1  0.241394  0.506336  0.712841  1
  O  O153  1  0.258523  0.506343  0.774543  1
  O  O154  1  0.758496  0.506284  0.652500  1
  O  O155  1  0.258496  0.493449  0.590800  1
  O  O156  1  0.758523  0.493487  0.712839  1
  O  O157  1  0.861809  0.215767  0.782490  1
  O  O158  1  0.361780  0.215689  0.660451  1
  O  O159  1  0.861785  0.784023  0.582851  1
  O  O160  1  0.361804  0.784084  0.704891  1
  O  O161  1  0.138112  0.784105  0.782491  1
  O  O162  1  0.638079  0.784004  0.660449  1
  O  O163  1  0.138085  0.215707  0.582850  1
  O  O164  1  0.638106  0.215748  0.704892  1
  O  O165  1  0.797710  0.499886  0.560629  1
  O  O166  1  0.297711  0.499896  0.682671  1
  O  O167  1  0.202179  0.499893  0.560630  1
  O  O168  1  0.702180  0.499890  0.682670  1
  O  O169  1  0.873991  0.711197  0.781029  1
  O  O170  1  0.373975  0.711118  0.658985  1
  O  O171  1  0.873970  0.288594  0.584314  1
  O  O172  1  0.373996  0.288654  0.706355  1
  O  O173  1  0.125914  0.288675  0.781026  1
  O  O174  1  0.625900  0.288574  0.658988  1
  O  O175  1  0.125895  0.711137  0.584314  1
  O  O176  1  0.625919  0.711178  0.706355  1
  O  O177  1  -0.000000  -0.000000  0.778227  1
  O  O178  1  0.499933  -0.000000  0.656186  1
  O  O179  1  -0.000000  -0.000000  0.587114  1
  O  O180  1  0.499955  0.000000  0.709155  1
  O  O181  1  0.896347  0.989985  0.755822  1
  O  O182  1  0.396324  0.989960  0.633781  1
  O  O183  1  0.896326  0.009785  0.609519  1
  O  O184  1  0.396345  0.009833  0.731560  1
  O  O185  1  0.103565  0.009831  0.755822  1
  O  O186  1  0.603543  0.009788  0.633781  1
  O  O187  1  0.103545  0.989958  0.609519  1
  O  O188  1  0.603563  0.989989  0.731560  1
  O  O189  1  -0.000000  -0.000000  0.733441  1
  O  O190  1  0.499934  -0.000000  0.611400  1
  O  O191  1  -0.000000  -0.000000  0.631900  1
  O  O192  1  0.499955  -0.000000  0.753941  1
  O  O193  1  0.797710  0.499886  0.804711  1
  O  O194  1  0.202179  0.499893  0.804712  1
  Si  Si195  1  0.690126  0.486511  0.270224  1
  Si  Si196  1  0.190104  0.486457  0.148185  1
  Si  Si197  1  0.690103  0.513262  0.118788  1
  Si  Si198  1  0.190127  0.513336  0.240830  1
  Si  Si199  1  0.309786  0.513336  0.270226  1
  Si  Si200  1  0.809763  0.513261  0.148183  1
  Si  Si201  1  0.309763  0.486457  0.118790  1
  Si  Si202  1  0.809787  0.486510  0.240829  1
  Si  Si203  1  0.817298  0.479689  0.297718  1
  Si  Si204  1  0.317278  0.479634  0.175678  1
  Si  Si205  1  0.817278  0.520096  0.091295  1
  Si  Si206  1  0.317298  0.520146  0.213336  1
  Si  Si207  1  0.182611  0.520156  0.297719  1
  Si  Si208  1  0.682592  0.520086  0.175677  1
  Si  Si209  1  0.182592  0.479644  0.091295  1
  Si  Si210  1  0.682612  0.479679  0.213336  1
  Si  Si211  1  0.907566  0.978994  0.286630  1
  Si  Si212  1  0.407543  0.978938  0.164589  1
  Si  Si213  1  0.907544  0.020790  0.102384  1
  Si  Si214  1  0.407565  0.020841  0.224425  1
  Si  Si215  1  0.092347  0.020852  0.286630  1
  Si  Si216  1  0.592324  0.020780  0.164589  1
  Si  Si217  1  0.092325  0.978948  0.102384  1
  Si  Si218  1  0.592346  0.978984  0.224425  1
  Si  Si219  1  0.907182  0.986426  0.248643  1
  Si  Si220  1  0.407160  0.986377  0.126602  1
  Si  Si221  1  0.907161  0.013344  0.140371  1
  Si  Si222  1  0.407181  0.013417  0.262412  1
  Si  Si223  1  0.092730  0.013416  0.248643  1
  Si  Si224  1  0.592708  0.013345  0.126602  1
  Si  Si225  1  0.092709  0.986376  0.140371  1
  Si  Si226  1  0.592729  0.986428  0.262412  1
  Si  Si227  1  0.690126  0.486511  0.514306  1
  Si  Si228  1  0.190104  0.486457  0.392267  1
  Si  Si229  1  0.690103  0.513262  0.362870  1
  Si  Si230  1  0.190127  0.513336  0.484912  1
  Si  Si231  1  0.309786  0.513336  0.514308  1
  Si  Si232  1  0.809763  0.513261  0.392265  1
  Si  Si233  1  0.309763  0.486457  0.362871  1
  Si  Si234  1  0.809787  0.486510  0.484911  1
  Si  Si235  1  0.817298  0.479689  0.541800  1
  Si  Si236  1  0.317278  0.479634  0.419760  1
  Si  Si237  1  0.817278  0.520096  0.335377  1
  Si  Si238  1  0.317298  0.520146  0.457418  1
  Si  Si239  1  0.182611  0.520156  0.541801  1
  Si  Si240  1  0.682592  0.520086  0.419759  1
  Si  Si241  1  0.182592  0.479644  0.335377  1
  Si  Si242  1  0.682612  0.479679  0.457418  1
  Si  Si243  1  0.907566  0.978994  0.530712  1
  Si  Si244  1  0.407543  0.978938  0.408671  1
  Si  Si245  1  0.907544  0.020790  0.346466  1
  Si  Si246  1  0.407565  0.020841  0.468507  1
  Si  Si247  1  0.092347  0.020852  0.530712  1
  Si  Si248  1  0.592324  0.020780  0.408671  1
  Si  Si249  1  0.092325  0.978948  0.346466  1
  Si  Si250  1  0.592346  0.978984  0.468507  1
  Si  Si251  1  0.907182  0.986426  0.492724  1
  Si  Si252  1  0.407160  0.986377  0.370683  1
  Si  Si253  1  0.907161  0.013344  0.384453  1
  Si  Si254  1  0.407181  0.013417  0.506494  1
  Si  Si255  1  0.092730  0.013416  0.492724  1
  Si  Si256  1  0.592708  0.013345  0.370683  1
  Si  Si257  1  0.092709  0.986376  0.384453  1
  Si  Si258  1  0.592729  0.986428  0.506494  1
  Si  Si259  1  0.690126  0.486511  0.758388  1
  Si  Si260  1  0.190104  0.486457  0.636349  1
  Si  Si261  1  0.690103  0.513262  0.606951  1
  Si  Si262  1  0.190127  0.513336  0.728994  1
  Si  Si263  1  0.309786  0.513336  0.758390  1
  Si  Si264  1  0.809763  0.513261  0.636347  1
  Si  Si265  1  0.309763  0.486457  0.606953  1
  Si  Si266  1  0.809787  0.486510  0.728992  1
  Si  Si267  1  0.817298  0.479689  0.785882  1
  Si  Si268  1  0.317278  0.479634  0.663842  1
  Si  Si269  1  0.817278  0.520096  0.579458  1
  Si  Si270  1  0.317298  0.520146  0.701500  1
  Si  Si271  1  0.182611  0.520156  0.785883  1
  Si  Si272  1  0.682592  0.520086  0.663841  1
  Si  Si273  1  0.182592  0.479644  0.579459  1
  Si  Si274  1  0.682612  0.479679  0.701499  1
  Si  Si275  1  0.907566  0.978994  0.774793  1
  Si  Si276  1  0.407543  0.978938  0.652752  1
  Si  Si277  1  0.907544  0.020790  0.590548  1
  Si  Si278  1  0.407565  0.020841  0.712589  1
  Si  Si279  1  0.092347  0.020852  0.774793  1
  Si  Si280  1  0.592324  0.020780  0.652752  1
  Si  Si281  1  0.092325  0.978948  0.590548  1
  Si  Si282  1  0.592346  0.978984  0.712589  1
  Si  Si283  1  0.907182  0.986426  0.736806  1
  Si  Si284  1  0.407160  0.986377  0.614765  1
  Si  Si285  1  0.907161  0.013344  0.628535  1
  Si  Si286  1  0.407181  0.013417  0.750576  1
  Si  Si287  1  0.092730  0.013416  0.736806  1
  Si  Si288  1  0.592708  0.013345  0.614765  1
  Si  Si289  1  0.092709  0.986376  0.628535  1
  Si  Si290  1  0.592729  0.986428  0.750576  1
  H  H291  1  0.797710  0.499886  0.061411  1
  H  H292  1  0.202179  0.499893  0.061413  1
  H  H293  1  0.797710  0.499886  0.815765  1
  H  H294  1  0.202179  0.499893  0.815766  1
