# generated using pymatgen
data_Si32H18O73
_symmetry_space_group_name_H-M   'P 1'
_cell_length_a   12.26957123
_cell_length_b   40.91417750
_cell_length_c   34.27263785
_cell_angle_alpha   90.00000000
_cell_angle_beta   120.00000000
_cell_angle_gamma   90.00000000
_symmetry_Int_Tables_number   1
_chemical_formula_structural   Si32H18O73
_chemical_formula_sum   'Si64 H36 O146'
_cell_volume   14899.832108
_cell_formula_units_Z   2
loop_
 _symmetry_equiv_pos_site_id
 _symmetry_equiv_pos_as_xyz
  1  'x, y, z'
loop_
 _atom_site_type_symbol
 _atom_site_label
 _atom_site_symmetry_multiplicity
 _atom_site_fract_x
 _atom_site_fract_y
 _atom_site_fract_z
 _atom_site_occupancy
  O  O1  1  0.978291  0.030872  0.265115  1
  O  O2  1  0.686389  0.030840  0.391075  1
  O  O3  1  0.978370  0.030909  0.390324  1
  O  O4  1  0.334797  0.030938  0.264836  1
  O  O5  1  0.118562  0.004939  0.237769  1
  O  O6  1  0.118381  0.004868  0.467744  1
  O  O7  1  0.763769  0.004446  0.468366  1
  O  O8  1  0.645156  0.092782  0.385549  1
  O  O9  1  0.004046  0.092795  0.279590  1
  O  O10  1  0.350460  0.092799  0.279435  1
  O  O11  1  0.003835  0.092910  0.385261  1
  O  O12  1  0.786152  0.067906  0.357980  1
  O  O13  1  0.786083  0.067919  0.228658  1
  O  O14  1  0.428222  0.067734  0.229198  1
  O  O15  1  0.549146  0.058486  0.314284  1
  O  O16  1  0.899959  0.058895  0.313723  1
  O  O17  1  0.110501  0.125479  0.351571  1
  O  O18  1  0.444569  0.125456  0.351348  1
  O  O19  1  0.996695  0.155425  0.277902  1
  O  O20  1  0.649963  0.155517  0.384171  1
  O  O21  1  0.996375  0.155614  0.384207  1
  O  O22  1  0.352796  0.155453  0.277777  1
  O  O23  1  0.205787  0.126361  0.300054  1
  O  O24  1  0.205445  0.126578  0.437211  1
  O  O25  1  0.587128  0.126829  0.436883  1
  O  O26  1  0.110639  0.250013  0.351639  1
  O  O27  1  0.444535  0.249988  0.351863  1
  O  O28  1  -0.000000  0.281339  0.278839  1
  O  O29  1  0.647030  0.281614  0.385147  1
  O  O30  1  0.003065  0.281762  0.385557  1
  O  O31  1  0.352579  0.281361  0.279050  1
  O  O32  1  0.003091  0.218294  0.279129  1
  O  O33  1  0.647541  0.218536  0.384962  1
  O  O34  1  0.000000  0.218655  0.384621  1
  O  O35  1  0.349818  0.218340  0.279235  1
  O  O36  1  0.206737  0.251239  0.300924  1
  O  O37  1  0.206555  0.248835  0.436799  1
  O  O38  1  0.588492  0.249768  0.437219  1
  O  O39  1  0.554400  0.187551  0.311912  1
  O  O40  1  0.889535  0.187459  0.311748  1
  O  O41  1  0.556000  0.312536  0.311927  1
  O  O42  1  0.889259  0.312551  0.312196  1
  O  O43  1  0.792197  0.188533  0.362131  1
  O  O44  1  0.793973  0.188701  0.226624  1
  O  O45  1  0.413238  0.188824  0.226830  1
  O  O46  1  0.794018  0.311254  0.363221  1
  O  O47  1  0.792052  0.311451  0.226897  1
  O  O48  1  0.413670  0.311196  0.226588  1
  O  O49  1  0.978789  0.469005  0.264998  1
  O  O50  1  0.686255  0.469098  0.390918  1
  O  O51  1  0.978142  0.469196  0.390246  1
  O  O52  1  0.334709  0.469072  0.264896  1
  O  O53  1  0.118779  0.495155  0.237753  1
  O  O54  1  0.118609  0.495166  0.467788  1
  O  O55  1  0.763309  0.495422  0.468269  1
  O  O56  1  0.644957  0.407203  0.385347  1
  O  O57  1  0.003993  0.407013  0.279406  1
  O  O58  1  0.350032  0.407071  0.279310  1
  O  O59  1  0.004059  0.407296  0.385134  1
  O  O60  1  0.785970  0.432125  0.357730  1
  O  O61  1  0.786358  0.432058  0.228644  1
  O  O62  1  0.427513  0.432285  0.229074  1
  O  O63  1  0.548779  0.441434  0.314112  1
  O  O64  1  0.900346  0.441177  0.313626  1
  O  O65  1  0.110449  0.374493  0.351407  1
  O  O66  1  0.444354  0.374457  0.351211  1
  O  O67  1  0.996282  0.344323  0.277962  1
  O  O68  1  0.650133  0.344537  0.384173  1
  O  O69  1  0.996350  0.344664  0.384329  1
  O  O70  1  0.353395  0.344341  0.277773  1
  O  O71  1  0.205553  0.373325  0.299832  1
  O  O72  1  0.205588  0.373619  0.437045  1
  O  O73  1  0.587100  0.373258  0.436788  1
  O  O74  1  0.021373  0.530902  0.397962  1
  O  O75  1  0.313701  0.530965  0.272041  1
  O  O76  1  0.021295  0.530860  0.272581  1
  O  O77  1  0.664631  0.530860  0.398160  1
  O  O78  1  0.881064  0.504926  0.425278  1
  O  O79  1  0.881237  0.504766  0.195180  1
  O  O80  1  0.236251  0.504535  0.194745  1
  O  O81  1  0.354826  0.592934  0.277593  1
  O  O82  1  0.996325  0.592812  0.383497  1
  O  O83  1  0.649465  0.592736  0.383610  1
  O  O84  1  0.995560  0.592830  0.277673  1
  O  O85  1  0.213454  0.567971  0.304973  1
  O  O86  1  0.213906  0.567825  0.434251  1
  O  O87  1  0.571797  0.567719  0.433954  1
  O  O88  1  0.450523  0.558602  0.348851  1
  O  O89  1  0.099592  0.558772  0.349177  1
  O  O90  1  0.889598  0.625506  0.311549  1
  O  O91  1  0.555587  0.625481  0.311702  1
  O  O92  1  0.003165  0.655469  0.385222  1
  O  O93  1  0.350411  0.655654  0.279006  1
  O  O94  1  0.003460  0.655524  0.278733  1
  O  O95  1  0.647778  0.655379  0.385398  1
  O  O96  1  0.794391  0.626214  0.363067  1
  O  O97  1  0.793886  0.626584  0.225931  1
  O  O98  1  0.412317  0.626916  0.226073  1
  O  O99  1  0.889027  0.749979  0.310989  1
  O  O100  1  0.554889  0.750014  0.311401  1
  O  O101  1  0.000000  0.781423  0.383766  1
  O  O102  1  0.352752  0.781798  0.277326  1
  O  O103  1  0.998747  0.781605  0.277805  1
  O  O104  1  0.647754  0.781346  0.384213  1
  O  O105  1  0.996140  0.718378  0.383703  1
  O  O106  1  0.351841  0.718699  0.278577  1
  O  O107  1  -0.000000  0.718521  0.277950  1
  O  O108  1  0.650946  0.718271  0.383926  1
  O  O109  1  0.792270  0.751355  0.361475  1
  O  O110  1  0.794618  0.749920  0.225695  1
  O  O111  1  0.413606  0.748642  0.226302  1
  O  O112  1  0.446281  0.687471  0.351465  1
  O  O113  1  0.109320  0.687523  0.351068  1
  O  O114  1  0.444095  0.812473  0.350762  1
  O  O115  1  0.111352  0.812629  0.350959  1
  O  O116  1  0.208299  0.688378  0.301459  1
  O  O117  1  0.205942  0.688860  0.436162  1
  O  O118  1  0.588116  0.688820  0.436524  1
  O  O119  1  0.206219  0.811482  0.299686  1
  O  O120  1  0.207016  0.811195  0.436298  1
  O  O121  1  0.584147  0.811331  0.435971  1
  O  O122  1  0.021201  0.969107  0.397819  1
  O  O123  1  0.313557  0.969201  0.272169  1
  O  O124  1  0.021474  0.969101  0.272689  1
  O  O125  1  0.665121  0.968998  0.398207  1
  O  O126  1  0.881134  0.995045  0.425203  1
  O  O127  1  0.881117  0.995162  0.195279  1
  O  O128  1  0.236190  0.995512  0.194718  1
  O  O129  1  0.355427  0.907358  0.277618  1
  O  O130  1  0.995957  0.907082  0.383545  1
  O  O131  1  0.649678  0.907053  0.383707  1
  O  O132  1  0.995337  0.907160  0.277659  1
  O  O133  1  0.213537  0.931992  0.305018  1
  O  O134  1  0.213500  0.932210  0.434269  1
  O  O135  1  0.572070  0.932242  0.433954  1
  O  O136  1  0.450812  0.941424  0.348947  1
  O  O137  1  0.099539  0.941058  0.349221  1
  O  O138  1  0.889232  0.874489  0.311566  1
  O  O139  1  0.555938  0.874517  0.311765  1
  O  O140  1  0.003899  0.844390  0.385053  1
  O  O141  1  0.349985  0.844709  0.278764  1
  O  O142  1  0.003040  0.844525  0.278624  1
  O  O143  1  0.646555  0.844351  0.385205  1
  O  O144  1  0.794699  0.873389  0.363327  1
  O  O145  1  0.793639  0.873448  0.225893  1
  O  O146  1  0.412653  0.873336  0.226100  1
  Si  Si147  1  0.666637  0.062361  0.362446  1
  Si  Si148  1  0.917590  0.062471  0.271748  1
  Si  Si149  1  0.415196  0.062358  0.271930  1
  Si  Si150  1  0.917719  0.062536  0.362027  1
  Si  Si151  1  0.080821  0.124761  0.301387  1
  Si  Si152  1  0.584493  0.124892  0.390998  1
  Si  Si153  1  0.080595  0.124910  0.391071  1
  Si  Si154  1  0.334205  0.124747  0.301187  1
  Si  Si155  1  0.251015  -0.000000  0.242450  1
  Si  Si156  1  0.000000  0.000000  0.242850  1
  Si  Si157  1  0.665163  0.187425  0.362031  1
  Si  Si158  1  0.919989  0.187396  0.272376  1
  Si  Si159  1  0.414179  0.187479  0.272443  1
  Si  Si160  1  0.918740  0.187411  0.361882  1
  Si  Si161  1  0.665807  0.312575  0.362260  1
  Si  Si162  1  0.918482  0.312566  0.272519  1
  Si  Si163  1  0.415712  0.312496  0.272401  1
  Si  Si164  1  0.919879  0.312639  0.362500  1
  Si  Si165  1  0.080580  0.250105  0.301414  1
  Si  Si166  1  0.585028  0.249997  0.391168  1
  Si  Si167  1  0.080516  0.249932  0.391083  1
  Si  Si168  1  0.334490  0.250116  0.301579  1
  Si  Si169  1  0.666456  0.437607  0.362232  1
  Si  Si170  1  0.918017  0.437436  0.271677  1
  Si  Si171  1  0.414652  0.437572  0.271852  1
  Si  Si172  1  0.917621  0.437598  0.361865  1
  Si  Si173  1  0.080622  0.375016  0.301203  1
  Si  Si174  1  0.584287  0.375124  0.390867  1
  Si  Si175  1  0.080679  0.375280  0.390939  1
  Si  Si176  1  0.334069  0.375047  0.301025  1
  Si  Si177  1  0.251282  0.499940  0.242500  1
  Si  Si178  1  -0.000000  0.499931  0.242766  1
  Si  Si179  1  0.333231  0.562496  0.300644  1
  Si  Si180  1  0.082294  0.562411  0.391218  1
  Si  Si181  1  0.584607  0.562345  0.391171  1
  Si  Si182  1  0.081882  0.562488  0.300888  1
  Si  Si183  1  0.919350  0.624750  0.361731  1
  Si  Si184  1  0.415579  0.625002  0.272075  1
  Si  Si185  1  0.919078  0.624866  0.271953  1
  Si  Si186  1  0.665903  0.624670  0.361878  1
  Si  Si187  1  0.748572  0.500077  0.420559  1
  Si  Si188  1  -0.000000  0.500052  0.420215  1
  Si  Si189  1  0.335134  0.687409  0.301407  1
  Si  Si190  1  0.079465  0.687494  0.390559  1
  Si  Si191  1  0.586659  0.687425  0.390818  1
  Si  Si192  1  0.080808  0.687364  0.301036  1
  Si  Si193  1  0.334213  0.812670  0.300479  1
  Si  Si194  1  0.081294  0.812561  0.390452  1
  Si  Si195  1  0.584017  0.812522  0.390499  1
  Si  Si196  1  0.080658  0.812683  0.300632  1
  Si  Si197  1  0.918704  0.750168  0.361184  1
  Si  Si198  1  0.414739  0.749901  0.271935  1
  Si  Si199  1  0.919832  0.750004  0.271717  1
  Si  Si200  1  0.665504  0.750122  0.361527  1
  Si  Si201  1  0.333353  0.937652  0.300752  1
  Si  Si202  1  0.081883  0.937499  0.391191  1
  Si  Si203  1  0.584990  0.937528  0.391189  1
  Si  Si204  1  0.081931  0.937448  0.300940  1
  Si  Si205  1  0.919422  0.875060  0.361812  1
  Si  Si206  1  0.415986  0.875263  0.272102  1
  Si  Si207  1  0.918711  0.875153  0.271958  1
  Si  Si208  1  0.665999  0.875073  0.362003  1
  Si  Si209  1  0.748795  0.000000  0.420616  1
  Si  Si210  1  -0.000000  0.000000  0.420127  1
  H  H211  1  0.118381  0.004868  0.494004  1
  H  H212  1  0.763769  0.004446  0.494626  1
  H  H213  1  0.786083  0.067919  0.202398  1
  H  H214  1  0.428222  0.067734  0.202938  1
  H  H215  1  0.205445  0.126578  0.463471  1
  H  H216  1  0.587128  0.126829  0.463143  1
  H  H217  1  0.206555  0.248835  0.463059  1
  H  H218  1  0.588492  0.249768  0.463479  1
  H  H219  1  0.793973  0.188701  0.200364  1
  H  H220  1  0.413238  0.188824  0.200570  1
  H  H221  1  0.792052  0.311451  0.200637  1
  H  H222  1  0.413670  0.311196  0.200328  1
  H  H223  1  0.118609  0.495166  0.494048  1
  H  H224  1  0.763309  0.495422  0.494529  1
  H  H225  1  0.786358  0.432058  0.202384  1
  H  H226  1  0.427513  0.432285  0.202814  1
  H  H227  1  0.205588  0.373619  0.463305  1
  H  H228  1  0.587100  0.373258  0.463048  1
  H  H229  1  0.881237  0.504766  0.168919  1
  H  H230  1  0.236251  0.504535  0.168485  1
  H  H231  1  0.213906  0.567825  0.460511  1
  H  H232  1  0.571797  0.567719  0.460214  1
  H  H233  1  0.793886  0.626584  0.199671  1
  H  H234  1  0.412317  0.626916  0.199813  1
  H  H235  1  0.794618  0.749920  0.199435  1
  H  H236  1  0.413606  0.748642  0.200042  1
  H  H237  1  0.205942  0.688860  0.462423  1
  H  H238  1  0.588116  0.688820  0.462784  1
  H  H239  1  0.207016  0.811195  0.462558  1
  H  H240  1  0.584147  0.811331  0.462231  1
  H  H241  1  0.881117  0.995162  0.169019  1
  H  H242  1  0.236190  0.995512  0.168458  1
  H  H243  1  0.213500  0.932210  0.460529  1
  H  H244  1  0.572070  0.932242  0.460214  1
  H  H245  1  0.793639  0.873448  0.199633  1
  H  H246  1  0.412653  0.873336  0.199840  1
