# generated using pymatgen
data_Si64H18O137
_symmetry_space_group_name_H-M   'P 1'
_cell_length_a   12.26957123
_cell_length_b   40.91417750
_cell_length_c   42.43215035
_cell_angle_alpha   90.00000000
_cell_angle_beta   120.00000000
_cell_angle_gamma   90.00000000
_symmetry_Int_Tables_number   1
_chemical_formula_structural   Si64H18O137
_chemical_formula_sum   'Si128 H36 O274'
_cell_volume   18447.1332202
_cell_formula_units_Z   2
loop_
 _symmetry_equiv_pos_site_id
 _symmetry_equiv_pos_as_xyz
  1  'x, y, z'
loop_
 _atom_site_type_symbol
 _atom_site_label
 _atom_site_symmetry_multiplicity
 _atom_site_fract_x
 _atom_site_fract_y
 _atom_site_fract_z
 _atom_site_occupancy
  O  O1  1  0.118381  0.004868  0.184567  1
  O  O2  1  0.763769  0.004446  0.185070  1
  O  O3  1  0.350573  0.093034  0.218317  1
  O  O4  1  0.644732  0.092863  0.217803  1
  O  O5  1  0.444315  0.125715  0.187443  1
  O  O6  1  0.205445  0.126578  0.159905  1
  O  O7  1  0.587128  0.126829  0.159640  1
  O  O8  1  0.444381  0.250054  0.187166  1
  O  O9  1  0.349832  0.281725  0.218456  1
  O  O10  1  0.647266  0.281559  0.218980  1
  O  O11  1  0.352597  0.218690  0.219396  1
  O  O12  1  0.647076  0.218501  0.219111  1
  O  O13  1  0.206555  0.248835  0.159573  1
  O  O14  1  0.588492  0.249768  0.159912  1
  O  O15  1  0.118609  0.495166  0.184603  1
  O  O16  1  0.763309  0.495422  0.184991  1
  O  O17  1  0.350282  0.407296  0.218112  1
  O  O18  1  0.644786  0.407212  0.217775  1
  O  O19  1  0.444358  0.374450  0.187376  1
  O  O20  1  0.205588  0.373619  0.159772  1
  O  O21  1  0.587100  0.373258  0.159564  1
  O  O22  1  0.665232  0.530952  0.213164  1
  O  O23  1  0.313282  0.531039  0.213328  1
  O  O24  1  0.213906  0.567825  0.157515  1
  O  O25  1  0.571797  0.567719  0.157275  1
  O  O26  1  0.450886  0.558472  0.191006  1
  O  O27  1  0.646608  0.655540  0.217936  1
  O  O28  1  0.349433  0.655739  0.217894  1
  O  O29  1  0.648513  0.781475  0.219316  1
  O  O30  1  0.648280  0.718436  0.219424  1
  O  O31  1  0.352725  0.718715  0.218965  1
  O  O32  1  0.444262  0.687388  0.186653  1
  O  O33  1  0.444415  0.812403  0.187263  1
  O  O34  1  0.205942  0.688860  0.159059  1
  O  O35  1  0.588116  0.688820  0.159351  1
  O  O36  1  0.207016  0.811195  0.159168  1
  O  O37  1  0.584147  0.811331  0.158904  1
  O  O38  1  0.665005  0.969092  0.213129  1
  O  O39  1  0.313459  0.969284  0.213189  1
  O  O40  1  0.213500  0.932210  0.157530  1
  O  O41  1  0.572070  0.932242  0.157275  1
  O  O42  1  0.450594  0.941588  0.190815  1
  O  O43  1  0.646301  0.844450  0.217892  1
  O  O44  1  0.348866  0.844642  0.217827  1
  O  O45  1  0.978291  0.030872  0.310255  1
  O  O46  1  0.334261  0.031101  0.225253  1
  O  O47  1  0.686389  0.030840  0.411994  1
  O  O48  1  0.686247  0.030931  0.225126  1
  O  O49  1  0.978370  0.030909  0.411387  1
  O  O50  1  0.334797  0.030938  0.310030  1
  O  O51  1  0.118562  0.004939  0.288167  1
  O  O52  1  0.118381  0.004868  0.473919  1
  O  O53  1  0.763769  0.004446  0.474422  1
  O  O54  1  0.645156  0.092782  0.407530  1
  O  O55  1  0.004046  0.092795  0.321946  1
  O  O56  1  0.350573  0.093034  0.507669  1
  O  O57  1  0.350460  0.092799  0.321821  1
  O  O58  1  0.644732  0.092863  0.507155  1
  O  O59  1  0.003835  0.092910  0.407297  1
  O  O60  1  0.786152  0.067906  0.385263  1
  O  O61  1  0.786083  0.067919  0.280809  1
  O  O62  1  0.428222  0.067734  0.281245  1
  O  O63  1  0.549146  0.058486  0.349969  1
  O  O64  1  0.899959  0.058895  0.349516  1
  O  O65  1  0.548917  0.058502  0.247493  1
  O  O66  1  0.110501  0.125479  0.380086  1
  O  O67  1  0.444315  0.125715  0.476795  1
  O  O68  1  0.444569  0.125456  0.379906  1
  O  O69  1  0.996695  0.155425  0.320583  1
  O  O70  1  0.353068  0.155724  0.220463  1
  O  O71  1  0.649963  0.155517  0.406417  1
  O  O72  1  0.650150  0.155562  0.220446  1
  O  O73  1  0.996375  0.155614  0.406446  1
  O  O74  1  0.352796  0.155453  0.320482  1
  O  O75  1  0.205787  0.126361  0.338475  1
  O  O76  1  0.205445  0.126578  0.449257  1
  O  O77  1  0.587128  0.126829  0.448992  1
  O  O78  1  0.110639  0.250013  0.380141  1
  O  O79  1  0.444381  0.250054  0.476518  1
  O  O80  1  0.444535  0.249988  0.380321  1
  O  O81  1  -0.000000  0.281339  0.321340  1
  O  O82  1  0.349832  0.281725  0.507808  1
  O  O83  1  0.647030  0.281614  0.407205  1
  O  O84  1  0.647266  0.281559  0.508332  1
  O  O85  1  0.003065  0.281762  0.407537  1
  O  O86  1  0.352579  0.281361  0.321511  1
  O  O87  1  0.003091  0.218294  0.321575  1
  O  O88  1  0.352597  0.218690  0.508748  1
  O  O89  1  0.647541  0.218536  0.407056  1
  O  O90  1  0.647076  0.218501  0.508463  1
  O  O91  1  -0.000000  0.218655  0.406781  1
  O  O92  1  0.349818  0.218340  0.321660  1
  O  O93  1  0.206737  0.251239  0.339178  1
  O  O94  1  0.206555  0.248835  0.448925  1
  O  O95  1  0.588492  0.249768  0.449264  1
  O  O96  1  0.554400  0.187551  0.348053  1
  O  O97  1  0.889535  0.187459  0.347921  1
  O  O98  1  0.555873  0.187381  0.251688  1
  O  O99  1  0.556000  0.312536  0.348065  1
  O  O100  1  0.889259  0.312551  0.348283  1
  O  O101  1  0.554356  0.312535  0.251125  1
  O  O102  1  0.792197  0.188533  0.388616  1
  O  O103  1  0.793973  0.188701  0.279165  1
  O  O104  1  0.413238  0.188824  0.279332  1
  O  O105  1  0.794018  0.311254  0.389496  1
  O  O106  1  0.792052  0.311451  0.279386  1
  O  O107  1  0.413670  0.311196  0.279137  1
  O  O108  1  0.978789  0.469005  0.310161  1
  O  O109  1  0.335030  0.469207  0.225355  1
  O  O110  1  0.686255  0.469098  0.411867  1
  O  O111  1  0.686106  0.469129  0.225186  1
  O  O112  1  0.978142  0.469196  0.411324  1
  O  O113  1  0.334709  0.469072  0.310078  1
  O  O114  1  0.118779  0.495155  0.288155  1
  O  O115  1  0.118609  0.495166  0.473955  1
  O  O116  1  0.763309  0.495422  0.474343  1
  O  O117  1  0.644957  0.407203  0.407367  1
  O  O118  1  0.003993  0.407013  0.321798  1
  O  O119  1  0.350282  0.407296  0.507464  1
  O  O120  1  0.350032  0.407071  0.321720  1
  O  O121  1  0.644786  0.407212  0.507127  1
  O  O122  1  0.004059  0.407296  0.407195  1
  O  O123  1  0.785970  0.432125  0.385061  1
  O  O124  1  0.786358  0.432058  0.280797  1
  O  O125  1  0.427513  0.432285  0.281145  1
  O  O126  1  0.548779  0.441434  0.349830  1
  O  O127  1  0.900346  0.441177  0.349438  1
  O  O128  1  0.549245  0.441494  0.247664  1
  O  O129  1  0.110449  0.374493  0.379953  1
  O  O130  1  0.444358  0.374450  0.476728  1
  O  O131  1  0.444354  0.374457  0.379795  1
  O  O132  1  0.996282  0.344323  0.320631  1
  O  O133  1  0.352756  0.344626  0.220419  1
  O  O134  1  0.650133  0.344537  0.406419  1
  O  O135  1  0.649990  0.344517  0.220380  1
  O  O136  1  0.996350  0.344664  0.406544  1
  O  O137  1  0.353395  0.344341  0.320479  1
  O  O138  1  0.205553  0.373325  0.338296  1
  O  O139  1  0.205588  0.373619  0.449124  1
  O  O140  1  0.587100  0.373258  0.448916  1
  O  O141  1  0.021373  0.530902  0.417556  1
  O  O142  1  0.665232  0.530952  0.502516  1
  O  O143  1  0.313701  0.530965  0.315849  1
  O  O144  1  0.313282  0.531039  0.502680  1
  O  O145  1  0.021295  0.530860  0.316285  1
  O  O146  1  0.664631  0.530860  0.417716  1
  O  O147  1  0.881064  0.504926  0.439619  1
  O  O148  1  0.881237  0.504766  0.253768  1
  O  O149  1  0.236251  0.504535  0.253417  1
  O  O150  1  0.354826  0.592934  0.320333  1
  O  O151  1  0.996325  0.592812  0.405872  1
  O  O152  1  0.649302  0.592876  0.220271  1
  O  O153  1  0.649465  0.592736  0.405964  1
  O  O154  1  0.354372  0.593014  0.220456  1
  O  O155  1  0.995560  0.592830  0.320398  1
  O  O156  1  0.213454  0.567971  0.342448  1
  O  O157  1  0.213906  0.567825  0.446867  1
  O  O158  1  0.571797  0.567719  0.446627  1
  O  O159  1  0.450523  0.558602  0.377889  1
  O  O160  1  0.099592  0.558772  0.378152  1
  O  O161  1  0.450886  0.558472  0.480358  1
  O  O162  1  0.889598  0.625506  0.347760  1
  O  O163  1  0.554914  0.625710  0.250909  1
  O  O164  1  0.555587  0.625481  0.347884  1
  O  O165  1  0.003165  0.655469  0.407266  1
  O  O166  1  0.646608  0.655540  0.507288  1
  O  O167  1  0.350411  0.655654  0.321475  1
  O  O168  1  0.349433  0.655739  0.507246  1
  O  O169  1  0.003460  0.655524  0.321255  1
  O  O170  1  0.647778  0.655379  0.407408  1
  O  O171  1  0.794391  0.626214  0.389371  1
  O  O172  1  0.793886  0.626584  0.278606  1
  O  O173  1  0.412317  0.626916  0.278720  1
  O  O174  1  0.889027  0.749979  0.347308  1
  O  O175  1  0.556028  0.750067  0.251302  1
  O  O176  1  0.554889  0.750014  0.347641  1
  O  O177  1  0.000000  0.781423  0.406090  1
  O  O178  1  0.648513  0.781475  0.508668  1
  O  O179  1  0.352752  0.781798  0.320118  1
  O  O180  1  0.353196  0.781738  0.220117  1
  O  O181  1  0.998747  0.781605  0.320505  1
  O  O182  1  0.647754  0.781346  0.406451  1
  O  O183  1  0.996140  0.718378  0.406039  1
  O  O184  1  0.648280  0.718436  0.508776  1
  O  O185  1  0.351841  0.718699  0.321128  1
  O  O186  1  0.352725  0.718715  0.508317  1
  O  O187  1  -0.000000  0.718521  0.320622  1
  O  O188  1  0.650946  0.718271  0.406219  1
  O  O189  1  0.792270  0.751355  0.388085  1
  O  O190  1  0.794618  0.749920  0.278416  1
  O  O191  1  0.413606  0.748642  0.278906  1
  O  O192  1  0.446281  0.687471  0.380000  1
  O  O193  1  0.109320  0.687523  0.379679  1
  O  O194  1  0.444262  0.687388  0.476005  1
  O  O195  1  0.444095  0.812473  0.379432  1
  O  O196  1  0.111352  0.812629  0.379592  1
  O  O197  1  0.444415  0.812403  0.476615  1
  O  O198  1  0.208299  0.688378  0.339610  1
  O  O199  1  0.205942  0.688860  0.448411  1
  O  O200  1  0.588116  0.688820  0.448703  1
  O  O201  1  0.206219  0.811482  0.338178  1
  O  O202  1  0.207016  0.811195  0.448520  1
  O  O203  1  0.584147  0.811331  0.448256  1
  O  O204  1  0.021201  0.969107  0.417441  1
  O  O205  1  0.665005  0.969092  0.502481  1
  O  O206  1  0.313557  0.969201  0.315953  1
  O  O207  1  0.313459  0.969284  0.502541  1
  O  O208  1  0.021474  0.969101  0.316373  1
  O  O209  1  0.665121  0.968998  0.417754  1
  O  O210  1  0.881134  0.995045  0.439559  1
  O  O211  1  0.881117  0.995162  0.253849  1
  O  O212  1  0.236190  0.995512  0.253395  1
  O  O213  1  0.355427  0.907358  0.320354  1
  O  O214  1  0.995957  0.907082  0.405912  1
  O  O215  1  0.649208  0.907162  0.220218  1
  O  O216  1  0.649678  0.907053  0.406042  1
  O  O217  1  0.354589  0.907355  0.220560  1
  O  O218  1  0.995337  0.907160  0.320386  1
  O  O219  1  0.213537  0.931992  0.342485  1
  O  O220  1  0.213500  0.932210  0.446882  1
  O  O221  1  0.572070  0.932242  0.446627  1
  O  O222  1  0.450812  0.941424  0.377966  1
  O  O223  1  0.099539  0.941058  0.378188  1
  O  O224  1  0.450594  0.941588  0.480167  1
  O  O225  1  0.889232  0.874489  0.347774  1
  O  O226  1  0.554824  0.874427  0.250847  1
  O  O227  1  0.555938  0.874517  0.347934  1
  O  O228  1  0.003899  0.844390  0.407130  1
  O  O229  1  0.646301  0.844450  0.507244  1
  O  O230  1  0.349985  0.844709  0.321280  1
  O  O231  1  0.348866  0.844642  0.507179  1
  O  O232  1  0.003040  0.844525  0.321166  1
  O  O233  1  0.646555  0.844351  0.407252  1
  O  O234  1  0.794699  0.873389  0.389581  1
  O  O235  1  0.793639  0.873448  0.278575  1
  O  O236  1  0.412653  0.873336  0.278743  1
  O  O237  1  0.334261  0.031101  0.514605  1
  O  O238  1  0.686247  0.030931  0.514478  1
  O  O239  1  0.786083  0.067919  0.570161  1
  O  O240  1  0.428222  0.067734  0.570597  1
  O  O241  1  0.548917  0.058502  0.536845  1
  O  O242  1  0.353068  0.155724  0.509815  1
  O  O243  1  0.650150  0.155562  0.509798  1
  O  O244  1  0.555873  0.187381  0.541040  1
  O  O245  1  0.554356  0.312535  0.540477  1
  O  O246  1  0.793973  0.188701  0.568517  1
  O  O247  1  0.413238  0.188824  0.568684  1
  O  O248  1  0.792052  0.311451  0.568738  1
  O  O249  1  0.413670  0.311196  0.568489  1
  O  O250  1  0.335030  0.469207  0.514707  1
  O  O251  1  0.686106  0.469129  0.514538  1
  O  O252  1  0.786358  0.432058  0.570149  1
  O  O253  1  0.427513  0.432285  0.570497  1
  O  O254  1  0.549245  0.441494  0.537016  1
  O  O255  1  0.352756  0.344626  0.509771  1
  O  O256  1  0.649990  0.344517  0.509732  1
  O  O257  1  0.881237  0.504766  0.543120  1
  O  O258  1  0.236251  0.504535  0.542769  1
  O  O259  1  0.649302  0.592876  0.509623  1
  O  O260  1  0.354372  0.593014  0.509808  1
  O  O261  1  0.554914  0.625710  0.540261  1
  O  O262  1  0.793886  0.626584  0.567958  1
  O  O263  1  0.412317  0.626916  0.568072  1
  O  O264  1  0.556028  0.750067  0.540654  1
  O  O265  1  0.353196  0.781738  0.509469  1
  O  O266  1  0.794618  0.749920  0.567768  1
  O  O267  1  0.413606  0.748642  0.568258  1
  O  O268  1  0.881117  0.995162  0.543201  1
  O  O269  1  0.236190  0.995512  0.542747  1
  O  O270  1  0.649208  0.907162  0.509570  1
  O  O271  1  0.354589  0.907355  0.509912  1
  O  O272  1  0.554824  0.874427  0.540199  1
  O  O273  1  0.793639  0.873448  0.567927  1
  O  O274  1  0.412653  0.873336  0.568095  1
  Si  Si275  1  0.334077  0.125033  0.196097  1
  Si  Si276  1  0.584281  0.125006  0.195914  1
  Si  Si277  1  0.250877  -0.000000  0.219114  1
  Si  Si278  1  0.334393  0.249942  0.195974  1
  Si  Si279  1  0.584910  0.249992  0.196088  1
  Si  Si280  1  0.334050  0.375249  0.195994  1
  Si  Si281  1  0.584311  0.375091  0.195847  1
  Si  Si282  1  0.251041  0.499989  0.219148  1
  Si  Si283  1  0.584849  0.562372  0.195569  1
  Si  Si284  1  0.333179  0.562456  0.195791  1
  Si  Si285  1  0.748637  0.500070  0.219274  1
  Si  Si286  1  0.584882  0.687425  0.195584  1
  Si  Si287  1  0.334092  0.687531  0.195404  1
  Si  Si288  1  0.584262  0.812539  0.195631  1
  Si  Si289  1  0.334056  0.812535  0.195870  1
  Si  Si290  1  0.584746  0.937660  0.195507  1
  Si  Si291  1  0.333026  0.937783  0.195702  1
  Si  Si292  1  0.748701  -0.000000  0.219300  1
  Si  Si293  1  0.666637  0.062361  0.388869  1
  Si  Si294  1  0.917590  0.062471  0.315612  1
  Si  Si295  1  0.414938  0.062467  0.242914  1
  Si  Si296  1  0.415196  0.062358  0.315759  1
  Si  Si297  1  0.666492  0.062399  0.242626  1
  Si  Si298  1  0.917719  0.062536  0.388531  1
  Si  Si299  1  0.080821  0.124761  0.339552  1
  Si  Si300  1  0.334077  0.125033  0.485449  1
  Si  Si301  1  0.584493  0.124892  0.411932  1
  Si  Si302  1  0.584281  0.125006  0.485266  1
  Si  Si303  1  0.080595  0.124910  0.411990  1
  Si  Si304  1  0.334205  0.124747  0.339391  1
  Si  Si305  1  0.250877  0.000000  0.508466  1
  Si  Si306  1  0.251015  0.000000  0.291949  1
  Si  Si307  1  0.000000  0.000000  0.292271  1
  Si  Si308  1  0.665163  0.187425  0.388534  1
  Si  Si309  1  0.919989  0.187396  0.316119  1
  Si  Si310  1  0.415496  0.187508  0.242954  1
  Si  Si311  1  0.414179  0.187479  0.316174  1
  Si  Si312  1  0.665786  0.187423  0.242842  1
  Si  Si313  1  0.918740  0.187411  0.388414  1
  Si  Si314  1  0.665807  0.312575  0.388720  1
  Si  Si315  1  0.918482  0.312566  0.316235  1
  Si  Si316  1  0.414225  0.312608  0.242511  1
  Si  Si317  1  0.415712  0.312496  0.316140  1
  Si  Si318  1  0.665111  0.312627  0.242686  1
  Si  Si319  1  0.919879  0.312639  0.388913  1
  Si  Si320  1  0.080580  0.250105  0.339574  1
  Si  Si321  1  0.334393  0.249942  0.485326  1
  Si  Si322  1  0.585028  0.249997  0.412068  1
  Si  Si323  1  0.584910  0.249992  0.485440  1
  Si  Si324  1  0.080516  0.249932  0.412000  1
  Si  Si325  1  0.334490  0.250116  0.339707  1
  Si  Si326  1  0.666456  0.437607  0.388697  1
  Si  Si327  1  0.918017  0.437436  0.315555  1
  Si  Si328  1  0.414984  0.437719  0.242932  1
  Si  Si329  1  0.414652  0.437572  0.315697  1
  Si  Si330  1  0.666584  0.437623  0.242674  1
  Si  Si331  1  0.917621  0.437598  0.388400  1
  Si  Si332  1  0.080622  0.375016  0.339403  1
  Si  Si333  1  0.334050  0.375249  0.485346  1
  Si  Si334  1  0.584287  0.375124  0.411825  1
  Si  Si335  1  0.584311  0.375091  0.485199  1
  Si  Si336  1  0.080679  0.375280  0.411884  1
  Si  Si337  1  0.334069  0.375047  0.339260  1
  Si  Si338  1  0.251282  0.499940  0.291989  1
  Si  Si339  1  -0.000000  0.499931  0.292203  1
  Si  Si340  1  0.251041  0.499989  0.508500  1
  Si  Si341  1  0.333231  0.562496  0.338952  1
  Si  Si342  1  0.082294  0.562411  0.412109  1
  Si  Si343  1  0.584849  0.562372  0.484921  1
  Si  Si344  1  0.584607  0.562345  0.412071  1
  Si  Si345  1  0.333179  0.562456  0.485143  1
  Si  Si346  1  0.081882  0.562488  0.339149  1
  Si  Si347  1  0.919350  0.624750  0.388292  1
  Si  Si348  1  0.665409  0.624928  0.242374  1
  Si  Si349  1  0.415579  0.625002  0.315877  1
  Si  Si350  1  0.414922  0.625132  0.242402  1
  Si  Si351  1  0.919078  0.624866  0.315778  1
  Si  Si352  1  0.665903  0.624670  0.388411  1
  Si  Si353  1  0.748572  0.500077  0.435808  1
  Si  Si354  1  0.748637  0.500070  0.508626  1
  Si  Si355  1  -0.000000  0.500052  0.435530  1
  Si  Si356  1  0.335134  0.687409  0.339568  1
  Si  Si357  1  0.079465  0.687494  0.411577  1
  Si  Si358  1  0.584882  0.687425  0.484936  1
  Si  Si359  1  0.586659  0.687425  0.411786  1
  Si  Si360  1  0.334092  0.687531  0.484756  1
  Si  Si361  1  0.080808  0.687364  0.339269  1
  Si  Si362  1  0.334213  0.812670  0.338819  1
  Si  Si363  1  0.081294  0.812561  0.411490  1
  Si  Si364  1  0.584262  0.812539  0.484983  1
  Si  Si365  1  0.584017  0.812522  0.411528  1
  Si  Si366  1  0.334056  0.812535  0.485222  1
  Si  Si367  1  0.080658  0.812683  0.338942  1
  Si  Si368  1  0.918704  0.750168  0.387850  1
  Si  Si369  1  0.665628  0.749984  0.242340  1
  Si  Si370  1  0.414739  0.749901  0.315763  1
  Si  Si371  1  0.415571  0.749909  0.242498  1
  Si  Si372  1  0.919832  0.750004  0.315588  1
  Si  Si373  1  0.665504  0.750122  0.388128  1
  Si  Si374  1  0.333353  0.937652  0.339039  1
  Si  Si375  1  0.081883  0.937499  0.412087  1
  Si  Si376  1  0.584746  0.937660  0.484859  1
  Si  Si377  1  0.584990  0.937528  0.412086  1
  Si  Si378  1  0.333026  0.937783  0.485054  1
  Si  Si379  1  0.081931  0.937448  0.339191  1
  Si  Si380  1  0.919422  0.875060  0.388357  1
  Si  Si381  1  0.665292  0.875106  0.242308  1
  Si  Si382  1  0.415986  0.875263  0.315898  1
  Si  Si383  1  0.414914  0.875177  0.242386  1
  Si  Si384  1  0.918711  0.875153  0.315782  1
  Si  Si385  1  0.665999  0.875073  0.388511  1
  Si  Si386  1  0.748795  -0.000000  0.435854  1
  Si  Si387  1  0.748701  -0.000000  0.508652  1
  Si  Si388  1  -0.000000  0.000000  0.435459  1
  Si  Si389  1  0.414938  0.062467  0.532266  1
  Si  Si390  1  0.666492  0.062399  0.531978  1
  Si  Si391  1  0.415496  0.187508  0.532306  1
  Si  Si392  1  0.665786  0.187423  0.532194  1
  Si  Si393  1  0.414225  0.312608  0.531863  1
  Si  Si394  1  0.665111  0.312627  0.532038  1
  Si  Si395  1  0.414984  0.437719  0.532284  1
  Si  Si396  1  0.666584  0.437623  0.532026  1
  Si  Si397  1  0.665409  0.624928  0.531726  1
  Si  Si398  1  0.414922  0.625132  0.531754  1
  Si  Si399  1  0.665628  0.749984  0.531692  1
  Si  Si400  1  0.415571  0.749909  0.531850  1
  Si  Si401  1  0.665292  0.875106  0.531660  1
  Si  Si402  1  0.414914  0.875177  0.531738  1
  H  H403  1  0.118381  0.004868  0.163357  1
  H  H404  1  0.763769  0.004446  0.163859  1
  H  H405  1  0.205445  0.126578  0.138695  1
  H  H406  1  0.587128  0.126829  0.138430  1
  H  H407  1  0.206555  0.248835  0.138363  1
  H  H408  1  0.588492  0.249768  0.138702  1
  H  H409  1  0.118609  0.495166  0.163393  1
  H  H410  1  0.763309  0.495422  0.163781  1
  H  H411  1  0.205588  0.373619  0.138561  1
  H  H412  1  0.587100  0.373258  0.138354  1
  H  H413  1  0.213906  0.567825  0.136305  1
  H  H414  1  0.571797  0.567719  0.136064  1
  H  H415  1  0.205942  0.688860  0.137848  1
  H  H416  1  0.588116  0.688820  0.138140  1
  H  H417  1  0.207016  0.811195  0.137958  1
  H  H418  1  0.584147  0.811331  0.137694  1
  H  H419  1  0.213500  0.932210  0.136319  1
  H  H420  1  0.572070  0.932242  0.136065  1
  H  H421  1  0.786083  0.067919  0.591371  1
  H  H422  1  0.428222  0.067734  0.591807  1
  H  H423  1  0.793973  0.188701  0.589728  1
  H  H424  1  0.413238  0.188824  0.589894  1
  H  H425  1  0.792052  0.311451  0.589948  1
  H  H426  1  0.413670  0.311196  0.589699  1
  H  H427  1  0.786358  0.432058  0.591359  1
  H  H428  1  0.427513  0.432285  0.591707  1
  H  H429  1  0.881237  0.504766  0.564330  1
  H  H430  1  0.236251  0.504535  0.563979  1
  H  H431  1  0.793886  0.626584  0.589168  1
  H  H432  1  0.412317  0.626916  0.589283  1
  H  H433  1  0.794618  0.749920  0.588978  1
  H  H434  1  0.413606  0.748642  0.589468  1
  H  H435  1  0.881117  0.995162  0.564411  1
  H  H436  1  0.236190  0.995512  0.563957  1
  H  H437  1  0.793639  0.873448  0.589137  1
  H  H438  1  0.412653  0.873336  0.589305  1
