# generated using pymatgen
data_Si8H2O17
_symmetry_space_group_name_H-M   'P 1'
_cell_length_a   16.95225116
_cell_length_b   14.66622717
_cell_length_c   45.22424561
_cell_angle_alpha   126.56654430
_cell_angle_beta   90.00000000
_cell_angle_gamma   90.00000000
_symmetry_Int_Tables_number   1
_chemical_formula_structural   Si8H2O17
_chemical_formula_sum   'Si64 H16 O136'
_cell_volume   9030.71531259
_cell_formula_units_Z   8
loop_
 _symmetry_equiv_pos_site_id
 _symmetry_equiv_pos_as_xyz
  1  'x, y, z'
loop_
 _atom_site_type_symbol
 _atom_site_label
 _atom_site_symmetry_multiplicity
 _atom_site_fract_x
 _atom_site_fract_y
 _atom_site_fract_z
 _atom_site_occupancy
  O  O1  1  0.326963  0.012858  0.217133  1
  O  O2  1  0.326964  0.512860  0.217133  1
  O  O3  1  0.672972  0.987466  0.212227  1
  O  O4  1  0.672973  0.487467  0.212227  1
  O  O5  1  0.201888  0.896143  0.212592  1
  O  O6  1  0.201888  0.396145  0.212591  1
  O  O7  1  0.798048  0.104180  0.252785  1
  O  O8  1  0.798049  0.604182  0.252786  1
  O  O9  1  0.790663  0.186042  0.180725  1
  O  O10  1  0.790663  0.686039  0.180725  1
  O  O11  1  0.290663  0.814283  0.157557  1
  O  O12  1  0.290663  0.314286  0.157556  1
  O  O13  1  0.709274  0.186039  0.229380  1
  O  O14  1  0.709274  0.686042  0.229382  1
  O  O15  1  0.161969  0.833753  0.250777  1
  O  O16  1  0.161969  0.333754  0.250776  1
  O  O17  1  0.337968  0.833754  0.216408  1
  O  O18  1  0.337968  0.333753  0.216407  1
  O  O19  1  0.550126  0.918951  0.224403  1
  O  O20  1  0.550126  0.418952  0.224402  1
  O  O21  1  0.449811  0.081373  0.255783  1
  O  O22  1  0.449811  0.581375  0.255784  1
  O  O23  1  0.116665  0.218495  0.180449  1
  O  O24  1  0.116666  0.718492  0.180449  1
  O  O25  1  0.616665  0.781830  0.157833  1
  O  O26  1  0.616666  0.281833  0.157832  1
  O  O27  1  0.383271  0.218492  0.242196  1
  O  O28  1  0.383272  0.718495  0.242198  1
  O  O29  1  0.815955  0.832043  0.249073  1
  O  O30  1  0.815954  0.332043  0.249073  1
  O  O31  1  0.683983  0.832043  0.217450  1
  O  O32  1  0.683981  0.332043  0.217450  1
  O  O33  1  0.057174  0.422001  0.236683  1
  O  O34  1  0.057174  0.921997  0.236683  1
  O  O35  1  0.442763  0.421997  0.264599  1
  O  O36  1  0.442763  0.922001  0.264600  1
  O  O37  1  0.172972  0.012859  0.319258  1
  O  O38  1  0.172973  0.512858  0.319258  1
  O  O39  1  0.826963  0.987468  0.314352  1
  O  O40  1  0.826964  0.487465  0.314352  1
  O  O41  1  0.326963  0.012858  0.410337  1
  O  O42  1  0.326964  0.512860  0.410337  1
  O  O43  1  0.672972  0.987466  0.405431  1
  O  O44  1  0.672973  0.487467  0.405431  1
  O  O45  1  0.298049  0.896145  0.278701  1
  O  O46  1  0.298049  0.396143  0.278699  1
  O  O47  1  0.701888  0.104183  0.318893  1
  O  O48  1  0.701888  0.604180  0.318894  1
  O  O49  1  0.201888  0.896143  0.405796  1
  O  O50  1  0.201888  0.396145  0.405795  1
  O  O51  1  0.798048  0.104180  0.445988  1
  O  O52  1  0.798049  0.604182  0.445990  1
  O  O53  1  0.209274  0.814286  0.302105  1
  O  O54  1  0.209274  0.314283  0.302103  1
  O  O55  1  0.790663  0.186042  0.373928  1
  O  O56  1  0.790663  0.686039  0.373929  1
  O  O57  1  0.290663  0.814283  0.350761  1
  O  O58  1  0.290663  0.314286  0.350760  1
  O  O59  1  0.709274  0.186039  0.422584  1
  O  O60  1  0.709274  0.686042  0.422586  1
  O  O61  1  0.161969  0.833753  0.443980  1
  O  O62  1  0.161969  0.333754  0.443979  1
  O  O63  1  0.837968  0.166571  0.315077  1
  O  O64  1  0.837968  0.666572  0.315078  1
  O  O65  1  0.337968  0.833754  0.409612  1
  O  O66  1  0.337968  0.333753  0.409611  1
  O  O67  1  0.661969  0.166572  0.280709  1
  O  O68  1  0.661969  0.666571  0.280710  1
  O  O69  1  0.949811  0.918952  0.275703  1
  O  O70  1  0.949811  0.418950  0.275701  1
  O  O71  1  0.050126  0.081375  0.307083  1
  O  O72  1  0.050126  0.581374  0.307083  1
  O  O73  1  0.550126  0.918951  0.417607  1
  O  O74  1  0.550126  0.418952  0.417606  1
  O  O75  1  0.449811  0.081373  0.448986  1
  O  O76  1  0.449811  0.581375  0.448988  1
  O  O77  1  0.883271  0.781833  0.289289  1
  O  O78  1  0.883272  0.281830  0.289287  1
  O  O79  1  0.116665  0.218495  0.373653  1
  O  O80  1  0.116666  0.718492  0.373653  1
  O  O81  1  0.616665  0.781830  0.351037  1
  O  O82  1  0.616666  0.281833  0.351036  1
  O  O83  1  0.383271  0.218492  0.435400  1
  O  O84  1  0.383272  0.718495  0.435402  1
  O  O85  1  0.815955  0.832043  0.442277  1
  O  O86  1  0.815954  0.332043  0.442276  1
  O  O87  1  0.183983  0.168282  0.314035  1
  O  O88  1  0.183981  0.668282  0.314036  1
  O  O89  1  0.683983  0.832043  0.410654  1
  O  O90  1  0.683981  0.332043  0.410653  1
  O  O91  1  0.315955  0.168282  0.282412  1
  O  O92  1  0.315954  0.668282  0.282413  1
  O  O93  1  0.942763  0.578328  0.266887  1
  O  O94  1  0.942763  0.078324  0.266885  1
  O  O95  1  0.057174  0.422001  0.429887  1
  O  O96  1  0.057174  0.921997  0.429887  1
  O  O97  1  0.557174  0.578324  0.294802  1
  O  O98  1  0.557174  0.078328  0.294802  1
  O  O99  1  0.442763  0.421997  0.457802  1
  O  O100  1  0.442763  0.922001  0.457804  1
  O  O101  1  0.172972  0.012859  0.512462  1
  O  O102  1  0.172973  0.512858  0.512462  1
  O  O103  1  0.826963  0.987468  0.507556  1
  O  O104  1  0.826964  0.487465  0.507556  1
  O  O105  1  0.298049  0.896145  0.471904  1
  O  O106  1  0.298049  0.396143  0.471903  1
  O  O107  1  0.701888  0.104183  0.512097  1
  O  O108  1  0.701888  0.604180  0.512098  1
  O  O109  1  0.209274  0.814286  0.495309  1
  O  O110  1  0.209274  0.314283  0.495307  1
  O  O111  1  0.790663  0.186042  0.567132  1
  O  O112  1  0.790663  0.686039  0.567133  1
  O  O113  1  0.290663  0.814283  0.543964  1
  O  O114  1  0.290663  0.314286  0.543964  1
  O  O115  1  0.837968  0.166571  0.508281  1
  O  O116  1  0.837968  0.666572  0.508282  1
  O  O117  1  0.661969  0.166572  0.473913  1
  O  O118  1  0.661969  0.666571  0.473914  1
  O  O119  1  0.949811  0.918952  0.468906  1
  O  O120  1  0.949811  0.418950  0.468905  1
  O  O121  1  0.050126  0.081375  0.500286  1
  O  O122  1  0.050126  0.581374  0.500287  1
  O  O123  1  0.883271  0.781833  0.482493  1
  O  O124  1  0.883272  0.281830  0.482491  1
  O  O125  1  0.116665  0.218495  0.566856  1
  O  O126  1  0.116666  0.718492  0.566857  1
  O  O127  1  0.616665  0.781830  0.544240  1
  O  O128  1  0.616666  0.281833  0.544240  1
  O  O129  1  0.183983  0.168282  0.507239  1
  O  O130  1  0.183981  0.668282  0.507239  1
  O  O131  1  0.315955  0.168282  0.475616  1
  O  O132  1  0.315954  0.668282  0.475616  1
  O  O133  1  0.942763  0.578328  0.460090  1
  O  O134  1  0.942763  0.078324  0.460089  1
  O  O135  1  0.557174  0.578324  0.488006  1
  O  O136  1  0.557174  0.078328  0.488006  1
  Si  Si137  1  0.291099  0.891262  0.200870  1
  Si  Si138  1  0.291099  0.391264  0.200870  1
  Si  Si139  1  0.708837  0.109061  0.242949  1
  Si  Si140  1  0.708838  0.609063  0.242950  1
  Si  Si141  1  0.627981  0.876276  0.200792  1
  Si  Si142  1  0.627981  0.376278  0.200792  1
  Si  Si143  1  0.371955  0.124048  0.248662  1
  Si  Si144  1  0.371955  0.624049  0.248663  1
  Si  Si145  1  0.130666  0.338881  0.218687  1
  Si  Si146  1  0.130666  0.838879  0.218688  1
  Si  Si147  1  0.369270  0.338879  0.250477  1
  Si  Si148  1  0.369271  0.838882  0.250478  1
  Si  Si149  1  0.749968  0.261553  0.219642  1
  Si  Si150  1  0.749969  0.761554  0.219643  1
  Si  Si151  1  0.499968  -0.000000  0.260681  1
  Si  Si152  1  0.499969  0.500162  0.260681  1
  Si  Si153  1  0.208837  0.891264  0.288537  1
  Si  Si154  1  0.208838  0.391262  0.288535  1
  Si  Si155  1  0.791099  0.109063  0.330615  1
  Si  Si156  1  0.791099  0.609061  0.330616  1
  Si  Si157  1  0.291099  0.891262  0.394074  1
  Si  Si158  1  0.291099  0.391264  0.394073  1
  Si  Si159  1  0.708837  0.109061  0.436152  1
  Si  Si160  1  0.708838  0.609063  0.436154  1
  Si  Si161  1  0.871956  0.876278  0.282823  1
  Si  Si162  1  0.871955  0.376276  0.282822  1
  Si  Si163  1  0.127981  0.124049  0.330693  1
  Si  Si164  1  0.127981  0.624047  0.330694  1
  Si  Si165  1  0.627981  0.876276  0.393996  1
  Si  Si166  1  0.627981  0.376278  0.393996  1
  Si  Si167  1  0.371955  0.124048  0.441866  1
  Si  Si168  1  0.371955  0.624049  0.441866  1
  Si  Si169  1  0.869271  0.661446  0.281009  1
  Si  Si170  1  0.869271  0.161443  0.281007  1
  Si  Si171  1  0.130666  0.338881  0.411891  1
  Si  Si172  1  0.130666  0.838879  0.411891  1
  Si  Si173  1  0.630665  0.661444  0.312798  1
  Si  Si174  1  0.630666  0.161446  0.312798  1
  Si  Si175  1  0.369270  0.338879  0.443680  1
  Si  Si176  1  0.369271  0.838882  0.443682  1
  Si  Si177  1  0.249968  0.738772  0.311843  1
  Si  Si178  1  0.249969  0.238772  0.311843  1
  Si  Si179  1  0.749968  0.261553  0.412846  1
  Si  Si180  1  0.749969  0.761554  0.412847  1
  Si  Si181  1  -0.000000  0.000000  0.270804  1
  Si  Si182  1  -0.000000  0.500163  0.270804  1
  Si  Si183  1  0.499968  -0.000000  0.453885  1
  Si  Si184  1  0.499969  0.500162  0.453885  1
  Si  Si185  1  0.208837  0.891264  0.481740  1
  Si  Si186  1  0.208838  0.391262  0.481739  1
  Si  Si187  1  0.791099  0.109063  0.523819  1
  Si  Si188  1  0.791099  0.609061  0.523819  1
  Si  Si189  1  0.871956  0.876278  0.476027  1
  Si  Si190  1  0.871955  0.376276  0.476026  1
  Si  Si191  1  0.127981  0.124049  0.523897  1
  Si  Si192  1  0.127981  0.624047  0.523897  1
  Si  Si193  1  0.869271  0.661446  0.474212  1
  Si  Si194  1  0.869271  0.161443  0.474211  1
  Si  Si195  1  0.630665  0.661444  0.506002  1
  Si  Si196  1  0.630666  0.161446  0.506001  1
  Si  Si197  1  0.249968  0.738772  0.505047  1
  Si  Si198  1  0.249969  0.238772  0.505046  1
  Si  Si199  1  0.000000  0.000000  0.464008  1
  Si  Si200  1  -0.000000  0.500163  0.464008  1
  H  H201  1  0.790663  0.186042  0.160824  1
  H  H202  1  0.790663  0.686039  0.160824  1
  H  H203  1  0.290663  0.814283  0.137656  1
  H  H204  1  0.290663  0.314286  0.137656  1
  H  H205  1  0.116665  0.218495  0.160548  1
  H  H206  1  0.116666  0.718492  0.160549  1
  H  H207  1  0.616665  0.781830  0.137932  1
  H  H208  1  0.616666  0.281833  0.137931  1
  H  H209  1  0.790663  0.186042  0.587033  1
  H  H210  1  0.790663  0.686039  0.587033  1
  H  H211  1  0.290663  0.814283  0.563865  1
  H  H212  1  0.290663  0.314286  0.563865  1
  H  H213  1  0.116665  0.218495  0.586757  1
  H  H214  1  0.116666  0.718492  0.586758  1
  H  H215  1  0.616665  0.781830  0.564141  1
  H  H216  1  0.616666  0.281833  0.564141  1
