# generated using pymatgen
data_Si4H2O9
_symmetry_space_group_name_H-M   'P 1'
_cell_length_a   9.65333091
_cell_length_b   14.00623971
_cell_length_c   39.06350591
_cell_angle_alpha   133.57649780
_cell_angle_beta   90.00000000
_cell_angle_gamma   90.00000000
_symmetry_Int_Tables_number   1
_chemical_formula_structural   Si4H2O9
_chemical_formula_sum   'Si16 H8 O36'
_cell_volume   3826.31910849
_cell_formula_units_Z   4
loop_
 _symmetry_equiv_pos_site_id
 _symmetry_equiv_pos_as_xyz
  1  'x, y, z'
loop_
 _atom_site_type_symbol
 _atom_site_label
 _atom_site_symmetry_multiplicity
 _atom_site_fract_x
 _atom_site_fract_y
 _atom_site_fract_z
 _atom_site_occupancy
  O  O1  1  0.749788  0.404428  0.255436  1
  O  O2  1  0.249934  0.904505  0.255444  1
  O  O3  1  0.429092  0.845303  0.285096  1
  O  O4  1  0.929002  0.345454  0.285152  1
  O  O5  1  0.749933  0.095427  0.302643  1
  O  O6  1  0.249788  0.595350  0.302613  1
  O  O7  1  0.570616  0.345303  0.285111  1
  O  O8  1  0.070706  0.845455  0.285130  1
  O  O9  1  0.554999  0.249810  0.199723  1
  O  O10  1  0.054999  0.750069  0.199761  1
  O  O11  1  0.444709  0.749807  0.323280  1
  O  O12  1  0.499758  0.499800  0.275131  1
  O  O13  1  0.000000  -0.000000  0.275199  1
  O  O14  1  0.554999  0.249887  0.323321  1
  O  O15  1  0.054999  0.749945  0.323308  1
  O  O16  1  0.499974  -0.000000  0.275145  1
  O  O17  1  -0.000000  0.499974  0.275174  1
  O  O18  1  0.444710  0.749885  0.199719  1
  O  O19  1  0.944710  0.249947  0.199763  1
  O  O20  1  0.570706  0.154401  0.361507  1
  O  O21  1  0.070616  0.654552  0.361526  1
  O  O22  1  0.249920  0.904428  0.343997  1
  O  O23  1  0.749775  0.404505  0.344027  1
  O  O24  1  0.429002  0.654401  0.361492  1
  O  O25  1  0.929092  0.154552  0.361548  1
  O  O26  1  0.249775  0.595427  0.391204  1
  O  O27  1  0.749921  0.095351  0.391196  1
  O  O28  1  0.554999  0.249810  0.446880  1
  O  O29  1  0.054999  0.750069  0.446918  1
  O  O30  1  0.499949  0.000000  0.371446  1
  O  O31  1  -0.000000  0.500079  0.371515  1
  O  O32  1  0.944710  0.250071  0.323371  1
  O  O33  1  0.444710  0.749885  0.446876  1
  O  O34  1  0.944710  0.249947  0.446920  1
  O  O35  1  0.499734  0.499859  0.371461  1
  O  O36  1  -0.000000  0.000000  0.371490  1
  Si  Si37  1  0.409189  0.624843  0.314797  1
  Si  Si38  1  0.909306  0.125044  0.314862  1
  Si  Si39  1  0.590412  0.374823  0.253015  1
  Si  Si40  1  0.090528  0.875026  0.253051  1
  Si  Si41  1  0.590529  0.124898  0.314824  1
  Si  Si42  1  0.090412  0.624964  0.314825  1
  Si  Si43  1  0.409308  0.874881  0.253018  1
  Si  Si44  1  0.909187  0.374943  0.253048  1
  Si  Si45  1  0.590520  0.124842  0.393590  1
  Si  Si46  1  0.090400  0.625044  0.393625  1
  Si  Si47  1  0.409298  0.874824  0.331784  1
  Si  Si48  1  0.909178  0.375025  0.331849  1
  Si  Si49  1  0.409178  0.624898  0.393591  1
  Si  Si50  1  0.909297  0.124963  0.393622  1
  Si  Si51  1  0.590403  0.374877  0.331810  1
  Si  Si52  1  0.090519  0.874946  0.331811  1
  H  H53  1  0.554999  0.249810  0.176684  1
  H  H54  1  0.054999  0.750069  0.176721  1
  H  H55  1  0.444710  0.749885  0.176680  1
  H  H56  1  0.944710  0.249947  0.176724  1
  H  H57  1  0.554999  0.249810  0.469919  1
  H  H58  1  0.054999  0.750069  0.469957  1
  H  H59  1  0.444710  0.749885  0.469916  1
  H  H60  1  0.944710  0.249947  0.469960  1
