# generated using pymatgen
data_Si8H2O17
_symmetry_space_group_name_H-M   'P 1'
_cell_length_a   13.59359586
_cell_length_b   16.71047662
_cell_length_c   49.86591603
_cell_angle_alpha   54.43716989
_cell_angle_beta   90.00000000
_cell_angle_gamma   65.99984482
_symmetry_Int_Tables_number   1
_chemical_formula_structural   Si8H2O17
_chemical_formula_sum   'Si48 H12 O102'
_cell_volume   7980.01231941
_cell_formula_units_Z   6
loop_
 _symmetry_equiv_pos_site_id
 _symmetry_equiv_pos_as_xyz
  1  'x, y, z'
loop_
 _atom_site_type_symbol
 _atom_site_label
 _atom_site_symmetry_multiplicity
 _atom_site_fract_x
 _atom_site_fract_y
 _atom_site_fract_z
 _atom_site_occupancy
  O  O1  1  0.638321  0.001887  0.272484  1
  O  O2  1  0.361371  0.001851  0.272490  1
  O  O3  1  0.638336  0.001775  0.175056  1
  O  O4  1  0.361387  0.001736  0.175066  1
  O  O5  1  0.132713  0.435472  0.202279  1
  O  O6  1  0.433433  0.134654  0.260892  1
  O  O7  1  0.433506  0.435440  0.202302  1
  O  O8  1  0.566284  0.868971  0.215225  1
  O  O9  1  0.132715  0.435401  0.271190  1
  O  O10  1  0.433502  0.435361  0.271213  1
  O  O11  1  0.000000  0.640359  0.148071  1
  O  O12  1  0.638416  0.363329  0.202089  1
  O  O13  1  0.361451  0.640217  0.245573  1
  O  O14  1  -0.000000  0.363414  0.202047  1
  O  O15  1  0.361468  0.640313  0.148104  1
  O  O16  1  0.000000  0.640288  0.245534  1
  O  O17  1  0.081368  0.588015  0.207000  1
  O  O18  1  0.586075  0.334133  0.256496  1
  O  O19  1  0.667506  0.920365  0.239652  1
  O  O20  1  0.081359  0.334220  0.256459  1
  O  O21  1  0.332282  0.587976  0.207026  1
  O  O22  1  0.413711  0.920315  0.239665  1
  O  O23  1  0.216695  0.568296  0.173256  1
  O  O24  1  0.216648  0.218653  0.241380  1
  O  O25  1  0.566264  0.218655  0.241388  1
  O  O26  1  0.783098  0.785013  0.228446  1
  O  O27  1  0.433525  0.784928  0.228473  1
  O  O28  1  0.216688  0.568218  0.248461  1
  O  O29  1  0.638321  0.001887  0.467382  1
  O  O30  1  0.361371  0.001851  0.467388  1
  O  O31  1  0.638336  0.001775  0.369953  1
  O  O32  1  0.361387  0.001736  0.369963  1
  O  O33  1  0.132713  0.435472  0.397177  1
  O  O34  1  0.433433  0.134654  0.455790  1
  O  O35  1  0.433506  0.435440  0.397200  1
  O  O36  1  0.867071  0.568223  0.273855  1
  O  O37  1  0.566284  0.868971  0.410122  1
  O  O38  1  0.566351  0.568113  0.273894  1
  O  O39  1  0.867075  0.568292  0.342738  1
  O  O40  1  0.566281  0.869053  0.284104  1
  O  O41  1  0.566355  0.568194  0.342773  1
  O  O42  1  0.132715  0.435401  0.466087  1
  O  O43  1  0.433435  0.134570  0.329804  1
  O  O44  1  0.433502  0.435361  0.466110  1
  O  O45  1  0.000000  0.640359  0.342968  1
  O  O46  1  0.638416  0.363329  0.396986  1
  O  O47  1  -0.000000  0.363345  0.299509  1
  O  O48  1  0.361451  0.640217  0.440471  1
  O  O49  1  -0.000000  0.363414  0.396944  1
  O  O50  1  0.361468  0.640313  0.343001  1
  O  O51  1  -0.000000  0.640288  0.440431  1
  O  O52  1  0.638398  0.363231  0.299555  1
  O  O53  1  0.081368  0.588015  0.401897  1
  O  O54  1  0.332195  0.083269  0.305351  1
  O  O55  1  0.586075  0.334133  0.451393  1
  O  O56  1  0.918429  0.415686  0.338034  1
  O  O57  1  0.667506  0.920365  0.434549  1
  O  O58  1  0.413788  0.669404  0.288602  1
  O  O59  1  0.585999  0.083299  0.305347  1
  O  O60  1  0.081359  0.334220  0.451356  1
  O  O61  1  0.332282  0.587976  0.401923  1
  O  O62  1  0.413711  0.920315  0.434562  1
  O  O63  1  0.918418  0.669490  0.288564  1
  O  O64  1  0.667591  0.415571  0.338075  1
  O  O65  1  0.216695  0.568296  0.368154  1
  O  O66  1  0.216648  0.218653  0.436278  1
  O  O67  1  0.566264  0.218655  0.436286  1
  O  O68  1  0.783132  0.435327  0.296620  1
  O  O69  1  0.783098  0.785013  0.423344  1
  O  O70  1  0.433525  0.784928  0.423370  1
  O  O71  1  0.783140  0.435407  0.371794  1
  O  O72  1  0.783093  0.785097  0.303620  1
  O  O73  1  0.433524  0.785025  0.303646  1
  O  O74  1  0.216688  0.568218  0.443358  1
  O  O75  1  0.216654  0.218566  0.316587  1
  O  O76  1  0.566260  0.218560  0.316599  1
  O  O77  1  0.638336  0.001775  0.564850  1
  O  O78  1  0.361387  0.001736  0.564861  1
  O  O79  1  0.867071  0.568223  0.468752  1
  O  O80  1  0.566351  0.568113  0.468791  1
  O  O81  1  0.867075  0.568292  0.537635  1
  O  O82  1  0.566281  0.869053  0.479001  1
  O  O83  1  0.566355  0.568194  0.537671  1
  O  O84  1  0.433435  0.134570  0.524701  1
  O  O85  1  -0.000000  0.640359  0.537866  1
  O  O86  1  0.638416  0.363329  0.591883  1
  O  O87  1  -0.000000  0.363345  0.494406  1
  O  O88  1  -0.000000  0.363414  0.591842  1
  O  O89  1  0.361468  0.640313  0.537899  1
  O  O90  1  0.638398  0.363231  0.494452  1
  O  O91  1  0.332195  0.083269  0.500249  1
  O  O92  1  0.918429  0.415686  0.532932  1
  O  O93  1  0.413788  0.669404  0.483499  1
  O  O94  1  0.585999  0.083299  0.500244  1
  O  O95  1  0.918418  0.669490  0.483461  1
  O  O96  1  0.667591  0.415571  0.532972  1
  O  O97  1  0.783132  0.435327  0.491517  1
  O  O98  1  0.783140  0.435407  0.566691  1
  O  O99  1  0.783093  0.785097  0.498517  1
  O  O100  1  0.433524  0.785025  0.498543  1
  O  O101  1  0.216654  0.218566  0.511484  1
  O  O102  1  0.566260  0.218560  0.511496  1
  Si  Si103  1  0.106708  0.561661  0.181262  1
  Si  Si104  1  0.333249  0.108649  0.269534  1
  Si  Si105  1  0.559682  0.335230  0.225407  1
  Si  Si106  1  0.666465  0.894980  0.213728  1
  Si  Si107  1  0.440175  0.668321  0.257939  1
  Si  Si108  1  0.559614  0.108673  0.269530  1
  Si  Si109  1  0.106709  0.335286  0.225379  1
  Si  Si110  1  0.333321  0.561625  0.181286  1
  Si  Si111  1  0.440105  0.894947  0.213736  1
  Si  Si112  1  0.893074  0.668411  0.257902  1
  Si  Si113  1  0.106712  0.561592  0.243022  1
  Si  Si114  1  0.333321  0.561552  0.243047  1
  Si  Si115  1  0.106708  0.561661  0.376159  1
  Si  Si116  1  0.333249  0.108649  0.464431  1
  Si  Si117  1  0.559682  0.335230  0.420305  1
  Si  Si118  1  0.893081  0.442033  0.302025  1
  Si  Si119  1  0.666465  0.894980  0.408626  1
  Si  Si120  1  0.440175  0.668321  0.452836  1
  Si  Si121  1  0.559614  0.108673  0.464427  1
  Si  Si122  1  0.106709  0.335286  0.420276  1
  Si  Si123  1  0.333321  0.561625  0.376183  1
  Si  Si124  1  0.440105  0.894947  0.408634  1
  Si  Si125  1  0.893074  0.668411  0.452799  1
  Si  Si126  1  0.666539  0.441928  0.302063  1
  Si  Si127  1  0.893080  0.442101  0.363759  1
  Si  Si128  1  0.666468  0.895052  0.275460  1
  Si  Si129  1  0.440175  0.668393  0.319671  1
  Si  Si130  1  0.106712  0.561592  0.437920  1
  Si  Si131  1  0.333247  0.108574  0.331295  1
  Si  Si132  1  0.559681  0.335159  0.287168  1
  Si  Si133  1  0.440106  0.895018  0.275469  1
  Si  Si134  1  0.893080  0.668476  0.319636  1
  Si  Si135  1  0.666539  0.442004  0.363794  1
  Si  Si136  1  0.559611  0.108603  0.331290  1
  Si  Si137  1  0.106706  0.335220  0.287138  1
  Si  Si138  1  0.333321  0.561552  0.437944  1
  Si  Si139  1  0.893081  0.442033  0.496923  1
  Si  Si140  1  0.666539  0.441928  0.496960  1
  Si  Si141  1  0.893080  0.442101  0.558656  1
  Si  Si142  1  0.666468  0.895052  0.470358  1
  Si  Si143  1  0.440175  0.668393  0.514568  1
  Si  Si144  1  0.333247  0.108574  0.526192  1
  Si  Si145  1  0.559681  0.335159  0.482065  1
  Si  Si146  1  0.440106  0.895018  0.470367  1
  Si  Si147  1  0.893080  0.668476  0.514533  1
  Si  Si148  1  0.666539  0.442004  0.558692  1
  Si  Si149  1  0.559611  0.108603  0.526187  1
  Si  Si150  1  0.106706  0.335220  0.482036  1
  H  H151  1  0.638336  0.001775  0.157007  1
  H  H152  1  0.361387  0.001736  0.157017  1
  H  H153  1  -0.000000  0.640359  0.130023  1
  H  H154  1  0.638416  0.363329  0.184040  1
  H  H155  1  -0.000000  0.363414  0.183999  1
  H  H156  1  0.361468  0.640313  0.130056  1
  H  H157  1  0.638336  0.001775  0.582899  1
  H  H158  1  0.361387  0.001736  0.582909  1
  H  H159  1  -0.000000  0.640359  0.555914  1
  H  H160  1  0.638416  0.363329  0.609932  1
  H  H161  1  0.000000  0.363414  0.609890  1
  H  H162  1  0.361468  0.640313  0.555947  1
