# generated using pymatgen
data_Si4H2O9
_symmetry_space_group_name_H-M   'P 1'
_cell_length_a   16.95225116
_cell_length_b   14.66622717
_cell_length_c   36.48675280
_cell_angle_alpha   126.56654430
_cell_angle_beta   90.00000000
_cell_angle_gamma   90.00000000
_symmetry_Int_Tables_number   1
_chemical_formula_structural   Si4H2O9
_chemical_formula_sum   'Si32 H16 O72'
_cell_volume   7285.9474551
_cell_formula_units_Z   8
loop_
 _symmetry_equiv_pos_site_id
 _symmetry_equiv_pos_as_xyz
  1  'x, y, z'
loop_
 _atom_site_type_symbol
 _atom_site_label
 _atom_site_symmetry_multiplicity
 _atom_site_fract_x
 _atom_site_fract_y
 _atom_site_fract_z
 _atom_site_occupancy
  O  O1  1  0.326963  0.012858  0.269130  1
  O  O2  1  0.326964  0.512860  0.269130  1
  O  O3  1  0.672972  0.987466  0.263049  1
  O  O4  1  0.672973  0.487467  0.263050  1
  O  O5  1  0.201888  0.896143  0.263501  1
  O  O6  1  0.201888  0.396145  0.263501  1
  O  O7  1  0.798048  0.104180  0.313319  1
  O  O8  1  0.798049  0.604182  0.313321  1
  O  O9  1  0.790663  0.186042  0.224003  1
  O  O10  1  0.790663  0.686039  0.224003  1
  O  O11  1  0.290663  0.814283  0.195287  1
  O  O12  1  0.290663  0.314286  0.195286  1
  O  O13  1  0.709274  0.186039  0.284310  1
  O  O14  1  0.709274  0.686042  0.284312  1
  O  O15  1  0.161969  0.833753  0.310830  1
  O  O16  1  0.161969  0.333754  0.310829  1
  O  O17  1  0.337968  0.833754  0.268232  1
  O  O18  1  0.337968  0.333753  0.268230  1
  O  O19  1  0.550126  0.918951  0.278141  1
  O  O20  1  0.550126  0.418952  0.278140  1
  O  O21  1  0.449811  0.081373  0.317035  1
  O  O22  1  0.449811  0.581375  0.317036  1
  O  O23  1  0.116665  0.218495  0.223661  1
  O  O24  1  0.116666  0.718492  0.223662  1
  O  O25  1  0.616665  0.781830  0.195629  1
  O  O26  1  0.616666  0.281833  0.195628  1
  O  O27  1  0.383271  0.218492  0.300195  1
  O  O28  1  0.383272  0.718495  0.300197  1
  O  O29  1  0.815955  0.832043  0.308719  1
  O  O30  1  0.815954  0.332043  0.308718  1
  O  O31  1  0.683983  0.832043  0.269523  1
  O  O32  1  0.683981  0.332043  0.269522  1
  O  O33  1  0.057174  0.422001  0.293361  1
  O  O34  1  0.057174  0.921997  0.293361  1
  O  O35  1  0.442763  0.421997  0.327962  1
  O  O36  1  0.442763  0.922001  0.327964  1
  O  O37  1  0.172972  0.012859  0.395711  1
  O  O38  1  0.172973  0.512858  0.395711  1
  O  O39  1  0.826963  0.987468  0.389630  1
  O  O40  1  0.826964  0.487465  0.389630  1
  O  O41  1  0.298049  0.896145  0.345441  1
  O  O42  1  0.298049  0.396143  0.345440  1
  O  O43  1  0.701888  0.104183  0.395259  1
  O  O44  1  0.701888  0.604180  0.395259  1
  O  O45  1  0.209274  0.814286  0.374450  1
  O  O46  1  0.209274  0.314283  0.374448  1
  O  O47  1  0.790663  0.186042  0.463473  1
  O  O48  1  0.790663  0.686039  0.463474  1
  O  O49  1  0.290663  0.814283  0.434757  1
  O  O50  1  0.290663  0.314286  0.434757  1
  O  O51  1  0.837968  0.166571  0.390529  1
  O  O52  1  0.837968  0.666572  0.390530  1
  O  O53  1  0.661969  0.166572  0.347930  1
  O  O54  1  0.661969  0.666571  0.347931  1
  O  O55  1  0.949811  0.918952  0.341725  1
  O  O56  1  0.949811  0.418950  0.341724  1
  O  O57  1  0.050126  0.081375  0.380620  1
  O  O58  1  0.050126  0.581374  0.380620  1
  O  O59  1  0.883271  0.781833  0.358565  1
  O  O60  1  0.883272  0.281830  0.358563  1
  O  O61  1  0.116665  0.218495  0.463131  1
  O  O62  1  0.116666  0.718492  0.463132  1
  O  O63  1  0.616665  0.781830  0.435099  1
  O  O64  1  0.616666  0.281833  0.435099  1
  O  O65  1  0.183983  0.168282  0.389237  1
  O  O66  1  0.183981  0.668282  0.389238  1
  O  O67  1  0.315955  0.168282  0.350041  1
  O  O68  1  0.315954  0.668282  0.350042  1
  O  O69  1  0.942763  0.578328  0.330798  1
  O  O70  1  0.942763  0.078324  0.330796  1
  O  O71  1  0.557174  0.578324  0.365399  1
  O  O72  1  0.557174  0.078328  0.365399  1
  Si  Si73  1  0.291099  0.891262  0.248973  1
  Si  Si74  1  0.291099  0.391264  0.248972  1
  Si  Si75  1  0.708837  0.109061  0.301128  1
  Si  Si76  1  0.708838  0.609063  0.301129  1
  Si  Si77  1  0.627981  0.876276  0.248876  1
  Si  Si78  1  0.627981  0.376278  0.248876  1
  Si  Si79  1  0.371955  0.124048  0.308209  1
  Si  Si80  1  0.371955  0.624049  0.308210  1
  Si  Si81  1  0.130666  0.338881  0.271056  1
  Si  Si82  1  0.130666  0.838879  0.271057  1
  Si  Si83  1  0.369270  0.338879  0.310458  1
  Si  Si84  1  0.369271  0.838882  0.310460  1
  Si  Si85  1  0.749968  0.261553  0.272240  1
  Si  Si86  1  0.749969  0.761554  0.272241  1
  Si  Si87  1  0.499968  -0.000000  0.323106  1
  Si  Si88  1  0.499969  0.500162  0.323106  1
  Si  Si89  1  0.208837  0.891264  0.357632  1
  Si  Si90  1  0.208838  0.391262  0.357631  1
  Si  Si91  1  0.791099  0.109063  0.409788  1
  Si  Si92  1  0.791099  0.609061  0.409788  1
  Si  Si93  1  0.871956  0.876278  0.350551  1
  Si  Si94  1  0.871955  0.376276  0.350550  1
  Si  Si95  1  0.127981  0.124049  0.409884  1
  Si  Si96  1  0.127981  0.624047  0.409885  1
  Si  Si97  1  0.869271  0.661446  0.348302  1
  Si  Si98  1  0.869271  0.161443  0.348300  1
  Si  Si99  1  0.630665  0.661444  0.387704  1
  Si  Si100  1  0.630666  0.161446  0.387703  1
  Si  Si101  1  0.249968  0.738772  0.386520  1
  Si  Si102  1  0.249969  0.238772  0.386520  1
  Si  Si103  1  -0.000000  -0.000000  0.335654  1
  Si  Si104  1  -0.000000  0.500163  0.335654  1
  H  H105  1  0.790663  0.186042  0.199336  1
  H  H106  1  0.790663  0.686039  0.199337  1
  H  H107  1  0.290663  0.814283  0.170621  1
  H  H108  1  0.290663  0.314286  0.170620  1
  H  H109  1  0.116665  0.218495  0.198995  1
  H  H110  1  0.116666  0.718492  0.198995  1
  H  H111  1  0.616665  0.781830  0.170963  1
  H  H112  1  0.616666  0.281833  0.170962  1
  H  H113  1  0.790663  0.186042  0.488139  1
  H  H114  1  0.790663  0.686039  0.488140  1
  H  H115  1  0.290663  0.814283  0.459424  1
  H  H116  1  0.290663  0.314286  0.459423  1
  H  H117  1  0.116665  0.218495  0.487798  1
  H  H118  1  0.116666  0.718492  0.487798  1
  H  H119  1  0.616665  0.781830  0.459766  1
  H  H120  1  0.616666  0.281833  0.459765  1
