# generated using pymatgen
data_Si128H18O265
_symmetry_space_group_name_H-M   'P 1'
_cell_length_a   12.26957123
_cell_length_b   40.91417750
_cell_length_c   58.82829239
_cell_angle_alpha   90.00000000
_cell_angle_beta   120.00000000
_cell_angle_gamma   90.00000000
_symmetry_Int_Tables_number   1
_chemical_formula_structural   Si128H18O265
_chemical_formula_sum   'Si256 H36 O530'
_cell_volume   25575.2616311
_cell_formula_units_Z   2
loop_
 _symmetry_equiv_pos_site_id
 _symmetry_equiv_pos_as_xyz
  1  'x, y, z'
loop_
 _atom_site_type_symbol
 _atom_site_label
 _atom_site_symmetry_multiplicity
 _atom_site_fract_x
 _atom_site_fract_y
 _atom_site_fract_z
 _atom_site_occupancy
  O  O1  1  0.978291  0.030872  0.154453  1
  O  O2  1  0.686389  0.030840  0.227836  1
  O  O3  1  0.978370  0.030909  0.227398  1
  O  O4  1  0.334797  0.030938  0.154290  1
  O  O5  1  0.118562  0.004939  0.138521  1
  O  O6  1  0.118381  0.004868  0.272502  1
  O  O7  1  0.763769  0.004446  0.272864  1
  O  O8  1  0.645156  0.092782  0.224616  1
  O  O9  1  0.004046  0.092795  0.162886  1
  O  O10  1  0.350573  0.093034  0.296845  1
  O  O11  1  0.350460  0.092799  0.162795  1
  O  O12  1  0.644732  0.092863  0.296474  1
  O  O13  1  0.003835  0.092910  0.224448  1
  O  O14  1  0.786152  0.067906  0.208555  1
  O  O15  1  0.786083  0.067919  0.133214  1
  O  O16  1  0.428222  0.067734  0.133528  1
  O  O17  1  0.549146  0.058486  0.183098  1
  O  O18  1  0.899959  0.058895  0.182771  1
  O  O19  1  0.110501  0.125479  0.204821  1
  O  O20  1  0.444315  0.125715  0.274576  1
  O  O21  1  0.444569  0.125456  0.204691  1
  O  O22  1  0.996695  0.155425  0.161902  1
  O  O23  1  0.649963  0.155517  0.223813  1
  O  O24  1  0.996375  0.155614  0.223834  1
  O  O25  1  0.352796  0.155453  0.161829  1
  O  O26  1  0.205787  0.126361  0.174807  1
  O  O27  1  0.205445  0.126578  0.254714  1
  O  O28  1  0.587128  0.126829  0.254522  1
  O  O29  1  0.110639  0.250013  0.204861  1
  O  O30  1  0.444381  0.250054  0.274376  1
  O  O31  1  0.444535  0.249988  0.204991  1
  O  O32  1  0.000000  0.281339  0.162448  1
  O  O33  1  0.349832  0.281725  0.296945  1
  O  O34  1  0.647030  0.281614  0.224382  1
  O  O35  1  0.647266  0.281559  0.297323  1
  O  O36  1  0.003065  0.281762  0.224621  1
  O  O37  1  0.352579  0.281361  0.162571  1
  O  O38  1  0.003091  0.218294  0.162617  1
  O  O39  1  0.352597  0.218690  0.297624  1
  O  O40  1  0.647541  0.218536  0.224274  1
  O  O41  1  0.647076  0.218501  0.297418  1
  O  O42  1  0.000000  0.218655  0.224075  1
  O  O43  1  0.349818  0.218340  0.162679  1
  O  O44  1  0.206737  0.251239  0.175314  1
  O  O45  1  0.206555  0.248835  0.254474  1
  O  O46  1  0.588492  0.249768  0.254718  1
  O  O47  1  0.554400  0.187551  0.181716  1
  O  O48  1  0.889535  0.187459  0.181621  1
  O  O49  1  0.556000  0.312536  0.181725  1
  O  O50  1  0.889259  0.312551  0.181882  1
  O  O51  1  0.792197  0.188533  0.210973  1
  O  O52  1  0.793973  0.188701  0.132028  1
  O  O53  1  0.413238  0.188824  0.132148  1
  O  O54  1  0.794018  0.311254  0.211608  1
  O  O55  1  0.792052  0.311451  0.132187  1
  O  O56  1  0.413670  0.311196  0.132007  1
  O  O57  1  0.978789  0.469005  0.154385  1
  O  O58  1  0.686255  0.469098  0.227744  1
  O  O59  1  0.978142  0.469196  0.227352  1
  O  O60  1  0.334709  0.469072  0.154325  1
  O  O61  1  0.118779  0.495155  0.138512  1
  O  O62  1  0.118609  0.495166  0.272528  1
  O  O63  1  0.763309  0.495422  0.272808  1
  O  O64  1  0.644957  0.407203  0.224498  1
  O  O65  1  0.003993  0.407013  0.162778  1
  O  O66  1  0.350282  0.407296  0.296697  1
  O  O67  1  0.350032  0.407071  0.162723  1
  O  O68  1  0.644786  0.407212  0.296454  1
  O  O69  1  0.004059  0.407296  0.224374  1
  O  O70  1  0.785970  0.432125  0.208409  1
  O  O71  1  0.786358  0.432058  0.133205  1
  O  O72  1  0.427513  0.432285  0.133456  1
  O  O73  1  0.548779  0.441434  0.182998  1
  O  O74  1  0.900346  0.441177  0.182715  1
  O  O75  1  0.110449  0.374493  0.204725  1
  O  O76  1  0.444358  0.374450  0.274528  1
  O  O77  1  0.444354  0.374457  0.204611  1
  O  O78  1  0.996282  0.344323  0.161937  1
  O  O79  1  0.650133  0.344537  0.223814  1
  O  O80  1  0.996350  0.344664  0.223905  1
  O  O81  1  0.353395  0.344341  0.161827  1
  O  O82  1  0.205553  0.373325  0.174679  1
  O  O83  1  0.205588  0.373619  0.254617  1
  O  O84  1  0.587100  0.373258  0.254467  1
  O  O85  1  0.021373  0.530902  0.231848  1
  O  O86  1  0.665232  0.530952  0.293128  1
  O  O87  1  0.313701  0.530965  0.158487  1
  O  O88  1  0.313282  0.531039  0.293247  1
  O  O89  1  0.021295  0.530860  0.158802  1
  O  O90  1  0.664631  0.530860  0.231963  1
  O  O91  1  0.881064  0.504926  0.247762  1
  O  O92  1  0.881237  0.504766  0.113709  1
  O  O93  1  0.236251  0.504535  0.113456  1
  O  O94  1  0.354826  0.592934  0.161722  1
  O  O95  1  0.996325  0.592812  0.223420  1
  O  O96  1  0.649465  0.592736  0.223486  1
  O  O97  1  0.995560  0.592830  0.161769  1
  O  O98  1  0.213454  0.567971  0.177673  1
  O  O99  1  0.213906  0.567825  0.252989  1
  O  O100  1  0.571797  0.567719  0.252816  1
  O  O101  1  0.450523  0.558602  0.203236  1
  O  O102  1  0.099592  0.558772  0.203426  1
  O  O103  1  0.450886  0.558472  0.277146  1
  O  O104  1  0.889598  0.625506  0.181505  1
  O  O105  1  0.555587  0.625481  0.181594  1
  O  O106  1  0.003165  0.655469  0.224426  1
  O  O107  1  0.646608  0.655540  0.296570  1
  O  O108  1  0.350411  0.655654  0.162545  1
  O  O109  1  0.349433  0.655739  0.296540  1
  O  O110  1  0.003460  0.655524  0.162387  1
  O  O111  1  0.647778  0.655379  0.224528  1
  O  O112  1  0.794391  0.626214  0.211518  1
  O  O113  1  0.793886  0.626584  0.131625  1
  O  O114  1  0.412317  0.626916  0.131707  1
  O  O115  1  0.889027  0.749979  0.181178  1
  O  O116  1  0.554889  0.750014  0.181419  1
  O  O117  1  0.000000  0.781423  0.223577  1
  O  O118  1  0.648513  0.781475  0.297566  1
  O  O119  1  0.352752  0.781798  0.161567  1
  O  O120  1  0.998747  0.781605  0.161846  1
  O  O121  1  0.647754  0.781346  0.223838  1
  O  O122  1  0.996140  0.718378  0.223541  1
  O  O123  1  0.648280  0.718436  0.297643  1
  O  O124  1  0.351841  0.718699  0.162296  1
  O  O125  1  0.352725  0.718715  0.297313  1
  O  O126  1  0.000000  0.718521  0.161931  1
  O  O127  1  0.650946  0.718271  0.223671  1
  O  O128  1  0.792270  0.751355  0.210591  1
  O  O129  1  0.794618  0.749920  0.131487  1
  O  O130  1  0.413606  0.748642  0.131841  1
  O  O131  1  0.446281  0.687471  0.204759  1
  O  O132  1  0.109320  0.687523  0.204528  1
  O  O133  1  0.444262  0.687388  0.274006  1
  O  O134  1  0.444095  0.812473  0.204350  1
  O  O135  1  0.111352  0.812629  0.204464  1
  O  O136  1  0.444415  0.812403  0.274446  1
  O  O137  1  0.208299  0.688378  0.175626  1
  O  O138  1  0.205942  0.688860  0.254103  1
  O  O139  1  0.588116  0.688820  0.254313  1
  O  O140  1  0.206219  0.811482  0.174594  1
  O  O141  1  0.207016  0.811195  0.254182  1
  O  O142  1  0.584147  0.811331  0.253991  1
  O  O143  1  0.021201  0.969107  0.231764  1
  O  O144  1  0.665005  0.969092  0.293103  1
  O  O145  1  0.313557  0.969201  0.158562  1
  O  O146  1  0.313459  0.969284  0.293146  1
  O  O147  1  0.021474  0.969101  0.158865  1
  O  O148  1  0.665121  0.968998  0.231990  1
  O  O149  1  0.881134  0.995045  0.247718  1
  O  O150  1  0.881117  0.995162  0.113767  1
  O  O151  1  0.236190  0.995512  0.113440  1
  O  O152  1  0.355427  0.907358  0.161737  1
  O  O153  1  0.995957  0.907082  0.223449  1
  O  O154  1  0.649678  0.907053  0.223543  1
  O  O155  1  0.995337  0.907160  0.161760  1
  O  O156  1  0.213537  0.931992  0.177700  1
  O  O157  1  0.213500  0.932210  0.253000  1
  O  O158  1  0.572070  0.932242  0.252816  1
  O  O159  1  0.450812  0.941424  0.203292  1
  O  O160  1  0.099539  0.941058  0.203452  1
  O  O161  1  0.450594  0.941588  0.277008  1
  O  O162  1  0.889232  0.874489  0.181514  1
  O  O163  1  0.555938  0.874517  0.181630  1
  O  O164  1  0.003899  0.844390  0.224327  1
  O  O165  1  0.646301  0.844450  0.296538  1
  O  O166  1  0.349985  0.844709  0.162405  1
  O  O167  1  0.348866  0.844642  0.296492  1
  O  O168  1  0.003040  0.844525  0.162323  1
  O  O169  1  0.646555  0.844351  0.224416  1
  O  O170  1  0.794699  0.873389  0.211670  1
  O  O171  1  0.793639  0.873448  0.131602  1
  O  O172  1  0.412653  0.873336  0.131723  1
  O  O173  1  0.978291  0.030872  0.363159  1
  O  O174  1  0.334261  0.031101  0.301848  1
  O  O175  1  0.686389  0.030840  0.436542  1
  O  O176  1  0.686247  0.030931  0.301756  1
  O  O177  1  0.978370  0.030909  0.436104  1
  O  O178  1  0.334797  0.030938  0.362997  1
  O  O179  1  0.118562  0.004939  0.347227  1
  O  O180  1  0.118381  0.004868  0.481208  1
  O  O181  1  0.763769  0.004446  0.481570  1
  O  O182  1  0.645156  0.092782  0.433322  1
  O  O183  1  0.004046  0.092795  0.371592  1
  O  O184  1  0.350573  0.093034  0.505551  1
  O  O185  1  0.350460  0.092799  0.371501  1
  O  O186  1  0.644732  0.092863  0.505180  1
  O  O187  1  0.003835  0.092910  0.433154  1
  O  O188  1  0.786152  0.067906  0.417261  1
  O  O189  1  0.786083  0.067919  0.341920  1
  O  O190  1  0.428222  0.067734  0.342234  1
  O  O191  1  0.549146  0.058486  0.391804  1
  O  O192  1  0.899959  0.058895  0.391477  1
  O  O193  1  0.548917  0.058502  0.317890  1
  O  O194  1  0.110501  0.125479  0.413527  1
  O  O195  1  0.444315  0.125715  0.483282  1
  O  O196  1  0.444569  0.125456  0.413397  1
  O  O197  1  0.996695  0.155425  0.370609  1
  O  O198  1  0.353068  0.155724  0.298393  1
  O  O199  1  0.649963  0.155517  0.432520  1
  O  O200  1  0.650150  0.155562  0.298381  1
  O  O201  1  0.996375  0.155614  0.432540  1
  O  O202  1  0.352796  0.155453  0.370535  1
  O  O203  1  0.205787  0.126361  0.383514  1
  O  O204  1  0.205445  0.126578  0.463420  1
  O  O205  1  0.587128  0.126829  0.463229  1
  O  O206  1  0.110639  0.250013  0.413567  1
  O  O207  1  0.444381  0.250054  0.483082  1
  O  O208  1  0.444535  0.249988  0.413697  1
  O  O209  1  -0.000000  0.281339  0.371154  1
  O  O210  1  0.349832  0.281725  0.505651  1
  O  O211  1  0.647030  0.281614  0.433088  1
  O  O212  1  0.647266  0.281559  0.506029  1
  O  O213  1  0.003065  0.281762  0.433327  1
  O  O214  1  0.352579  0.281361  0.371277  1
  O  O215  1  0.003091  0.218294  0.371324  1
  O  O216  1  0.352597  0.218690  0.506330  1
  O  O217  1  0.647541  0.218536  0.432980  1
  O  O218  1  0.647076  0.218501  0.506124  1
  O  O219  1  0.000000  0.218655  0.432782  1
  O  O220  1  0.349818  0.218340  0.371385  1
  O  O221  1  0.206737  0.251239  0.384021  1
  O  O222  1  0.206555  0.248835  0.463180  1
  O  O223  1  0.588492  0.249768  0.463425  1
  O  O224  1  0.554400  0.187551  0.390422  1
  O  O225  1  0.889535  0.187459  0.390327  1
  O  O226  1  0.555873  0.187381  0.320915  1
  O  O227  1  0.556000  0.312536  0.390431  1
  O  O228  1  0.889259  0.312551  0.390588  1
  O  O229  1  0.554356  0.312535  0.320509  1
  O  O230  1  0.792197  0.188533  0.419680  1
  O  O231  1  0.793973  0.188701  0.340734  1
  O  O232  1  0.413238  0.188824  0.340854  1
  O  O233  1  0.794018  0.311254  0.420314  1
  O  O234  1  0.792052  0.311451  0.340893  1
  O  O235  1  0.413670  0.311196  0.340714  1
  O  O236  1  0.978789  0.469005  0.363091  1
  O  O237  1  0.335030  0.469207  0.301922  1
  O  O238  1  0.686255  0.469098  0.436450  1
  O  O239  1  0.686106  0.469129  0.301800  1
  O  O240  1  0.978142  0.469196  0.436059  1
  O  O241  1  0.334709  0.469072  0.363031  1
  O  O242  1  0.118779  0.495155  0.347218  1
  O  O243  1  0.118609  0.495166  0.481234  1
  O  O244  1  0.763309  0.495422  0.481514  1
  O  O245  1  0.644957  0.407203  0.433204  1
  O  O246  1  0.003993  0.407013  0.371484  1
  O  O247  1  0.350282  0.407296  0.505403  1
  O  O248  1  0.350032  0.407071  0.371429  1
  O  O249  1  0.644786  0.407212  0.505160  1
  O  O250  1  0.004059  0.407296  0.433081  1
  O  O251  1  0.785970  0.432125  0.417115  1
  O  O252  1  0.786358  0.432058  0.341911  1
  O  O253  1  0.427513  0.432285  0.342162  1
  O  O254  1  0.548779  0.441434  0.391704  1
  O  O255  1  0.900346  0.441177  0.391421  1
  O  O256  1  0.549245  0.441494  0.318013  1
  O  O257  1  0.110449  0.374493  0.413431  1
  O  O258  1  0.444358  0.374450  0.483234  1
  O  O259  1  0.444354  0.374457  0.413317  1
  O  O260  1  0.996282  0.344323  0.370643  1
  O  O261  1  0.352756  0.344626  0.298361  1
  O  O262  1  0.650133  0.344537  0.432521  1
  O  O263  1  0.649990  0.344517  0.298333  1
  O  O264  1  0.996350  0.344664  0.432611  1
  O  O265  1  0.353395  0.344341  0.370533  1
  O  O266  1  0.205553  0.373325  0.383385  1
  O  O267  1  0.205588  0.373619  0.463323  1
  O  O268  1  0.587100  0.373258  0.463174  1
  O  O269  1  0.021373  0.530902  0.440554  1
  O  O270  1  0.665232  0.530952  0.501834  1
  O  O271  1  0.313701  0.530965  0.367194  1
  O  O272  1  0.313282  0.531039  0.501953  1
  O  O273  1  0.021295  0.530860  0.367508  1
  O  O274  1  0.664631  0.530860  0.440669  1
  O  O275  1  0.881064  0.504926  0.456468  1
  O  O276  1  0.881237  0.504766  0.322415  1
  O  O277  1  0.236251  0.504535  0.322162  1
  O  O278  1  0.354826  0.592934  0.370428  1
  O  O279  1  0.996325  0.592812  0.432127  1
  O  O280  1  0.649302  0.592876  0.298254  1
  O  O281  1  0.649465  0.592736  0.432192  1
  O  O282  1  0.354372  0.593014  0.298388  1
  O  O283  1  0.995560  0.592830  0.370475  1
  O  O284  1  0.213454  0.567971  0.386380  1
  O  O285  1  0.213906  0.567825  0.461696  1
  O  O286  1  0.571797  0.567719  0.461522  1
  O  O287  1  0.450523  0.558602  0.411943  1
  O  O288  1  0.099592  0.558772  0.412132  1
  O  O289  1  0.450886  0.558472  0.485852  1
  O  O290  1  0.889598  0.625506  0.390211  1
  O  O291  1  0.554914  0.625710  0.320353  1
  O  O292  1  0.555587  0.625481  0.390300  1
  O  O293  1  0.003165  0.655469  0.433132  1
  O  O294  1  0.646608  0.655540  0.505276  1
  O  O295  1  0.350411  0.655654  0.371252  1
  O  O296  1  0.349433  0.655739  0.505247  1
  O  O297  1  0.003460  0.655524  0.371093  1
  O  O298  1  0.647778  0.655379  0.433234  1
  O  O299  1  0.794391  0.626214  0.420224  1
  O  O300  1  0.793886  0.626584  0.340331  1
  O  O301  1  0.412317  0.626916  0.340413  1
  O  O302  1  0.889027  0.749979  0.389885  1
  O  O303  1  0.556028  0.750067  0.320637  1
  O  O304  1  0.554889  0.750014  0.390125  1
  O  O305  1  0.000000  0.781423  0.432283  1
  O  O306  1  0.648513  0.781475  0.506272  1
  O  O307  1  0.352752  0.781798  0.370273  1
  O  O308  1  0.353196  0.781738  0.298144  1
  O  O309  1  0.998747  0.781605  0.370552  1
  O  O310  1  0.647754  0.781346  0.432544  1
  O  O311  1  0.996140  0.718378  0.432247  1
  O  O312  1  0.648280  0.718436  0.506350  1
  O  O313  1  0.351841  0.718699  0.371002  1
  O  O314  1  0.352725  0.718715  0.506019  1
  O  O315  1  0.000000  0.718521  0.370637  1
  O  O316  1  0.650946  0.718271  0.432377  1
  O  O317  1  0.792270  0.751355  0.419297  1
  O  O318  1  0.794618  0.749920  0.340194  1
  O  O319  1  0.413606  0.748642  0.340547  1
  O  O320  1  0.446281  0.687471  0.413465  1
  O  O321  1  0.109320  0.687523  0.413234  1
  O  O322  1  0.444262  0.687388  0.482713  1
  O  O323  1  0.444095  0.812473  0.413056  1
  O  O324  1  0.111352  0.812629  0.413171  1
  O  O325  1  0.444415  0.812403  0.483152  1
  O  O326  1  0.208299  0.688378  0.384332  1
  O  O327  1  0.205942  0.688860  0.462809  1
  O  O328  1  0.588116  0.688820  0.463020  1
  O  O329  1  0.206219  0.811482  0.383300  1
  O  O330  1  0.207016  0.811195  0.462888  1
  O  O331  1  0.584147  0.811331  0.462697  1
  O  O332  1  0.021201  0.969107  0.440471  1
  O  O333  1  0.665005  0.969092  0.501809  1
  O  O334  1  0.313557  0.969201  0.367269  1
  O  O335  1  0.313459  0.969284  0.501852  1
  O  O336  1  0.021474  0.969101  0.367571  1
  O  O337  1  0.665121  0.968998  0.440696  1
  O  O338  1  0.881134  0.995045  0.456424  1
  O  O339  1  0.881117  0.995162  0.322474  1
  O  O340  1  0.236190  0.995512  0.322147  1
  O  O341  1  0.355427  0.907358  0.370443  1
  O  O342  1  0.995957  0.907082  0.432155  1
  O  O343  1  0.649208  0.907162  0.298216  1
  O  O344  1  0.649678  0.907053  0.432249  1
  O  O345  1  0.354589  0.907355  0.298463  1
  O  O346  1  0.995337  0.907160  0.370467  1
  O  O347  1  0.213537  0.931992  0.386406  1
  O  O348  1  0.213500  0.932210  0.461706  1
  O  O349  1  0.572070  0.932242  0.461523  1
  O  O350  1  0.450812  0.941424  0.411998  1
  O  O351  1  0.099539  0.941058  0.412158  1
  O  O352  1  0.450594  0.941588  0.485714  1
  O  O353  1  0.889232  0.874489  0.390221  1
  O  O354  1  0.554824  0.874427  0.320308  1
  O  O355  1  0.555938  0.874517  0.390336  1
  O  O356  1  0.003899  0.844390  0.433034  1
  O  O357  1  0.646301  0.844450  0.505245  1
  O  O358  1  0.349985  0.844709  0.371111  1
  O  O359  1  0.348866  0.844642  0.505198  1
  O  O360  1  0.003040  0.844525  0.371029  1
  O  O361  1  0.646555  0.844351  0.433122  1
  O  O362  1  0.794699  0.873389  0.420376  1
  O  O363  1  0.793639  0.873448  0.340309  1
  O  O364  1  0.412653  0.873336  0.340429  1
  O  O365  1  0.978291  0.030872  0.571865  1
  O  O366  1  0.334261  0.031101  0.510554  1
  O  O367  1  0.686389  0.030840  0.645248  1
  O  O368  1  0.686247  0.030931  0.510463  1
  O  O369  1  0.978370  0.030909  0.644810  1
  O  O370  1  0.334797  0.030938  0.571703  1
  O  O371  1  0.118562  0.004939  0.555934  1
  O  O372  1  0.118381  0.004868  0.689914  1
  O  O373  1  0.763769  0.004446  0.690276  1
  O  O374  1  0.645156  0.092782  0.642028  1
  O  O375  1  0.004046  0.092795  0.580298  1
  O  O376  1  0.350460  0.092799  0.580208  1
  O  O377  1  0.003835  0.092910  0.641861  1
  O  O378  1  0.786152  0.067906  0.625967  1
  O  O379  1  0.786083  0.067919  0.550626  1
  O  O380  1  0.428222  0.067734  0.550940  1
  O  O381  1  0.549146  0.058486  0.600510  1
  O  O382  1  0.899959  0.058895  0.600183  1
  O  O383  1  0.548917  0.058502  0.526596  1
  O  O384  1  0.110501  0.125479  0.622233  1
  O  O385  1  0.444569  0.125456  0.622103  1
  O  O386  1  0.996695  0.155425  0.579315  1
  O  O387  1  0.353068  0.155724  0.507099  1
  O  O388  1  0.649963  0.155517  0.641226  1
  O  O389  1  0.650150  0.155562  0.507087  1
  O  O390  1  0.996375  0.155614  0.641246  1
  O  O391  1  0.352796  0.155453  0.579242  1
  O  O392  1  0.205787  0.126361  0.592220  1
  O  O393  1  0.205445  0.126578  0.672126  1
  O  O394  1  0.587128  0.126829  0.671935  1
  O  O395  1  0.110639  0.250013  0.622273  1
  O  O396  1  0.444535  0.249988  0.622403  1
  O  O397  1  0.000000  0.281339  0.579860  1
  O  O398  1  0.647030  0.281614  0.641794  1
  O  O399  1  0.003065  0.281762  0.642033  1
  O  O400  1  0.352579  0.281361  0.579984  1
  O  O401  1  0.003091  0.218294  0.580030  1
  O  O402  1  0.647541  0.218536  0.641686  1
  O  O403  1  -0.000000  0.218655  0.641488  1
  O  O404  1  0.349818  0.218340  0.580091  1
  O  O405  1  0.206737  0.251239  0.592727  1
  O  O406  1  0.206555  0.248835  0.671886  1
  O  O407  1  0.588492  0.249768  0.672131  1
  O  O408  1  0.554400  0.187551  0.599129  1
  O  O409  1  0.889535  0.187459  0.599033  1
  O  O410  1  0.555873  0.187381  0.529621  1
  O  O411  1  0.556000  0.312536  0.599137  1
  O  O412  1  0.889259  0.312551  0.599294  1
  O  O413  1  0.554356  0.312535  0.529216  1
  O  O414  1  0.792197  0.188533  0.628386  1
  O  O415  1  0.793973  0.188701  0.549440  1
  O  O416  1  0.413238  0.188824  0.549560  1
  O  O417  1  0.794018  0.311254  0.629021  1
  O  O418  1  0.792052  0.311451  0.549600  1
  O  O419  1  0.413670  0.311196  0.549420  1
  O  O420  1  0.978789  0.469005  0.571797  1
  O  O421  1  0.335030  0.469207  0.510628  1
  O  O422  1  0.686255  0.469098  0.645156  1
  O  O423  1  0.686106  0.469129  0.510506  1
  O  O424  1  0.978142  0.469196  0.644765  1
  O  O425  1  0.334709  0.469072  0.571737  1
  O  O426  1  0.118779  0.495155  0.555924  1
  O  O427  1  0.118609  0.495166  0.689940  1
  O  O428  1  0.763309  0.495422  0.690220  1
  O  O429  1  0.644957  0.407203  0.641910  1
  O  O430  1  0.003993  0.407013  0.580191  1
  O  O431  1  0.350032  0.407071  0.580135  1
  O  O432  1  0.004059  0.407296  0.641787  1
  O  O433  1  0.785970  0.432125  0.625822  1
  O  O434  1  0.786358  0.432058  0.550617  1
  O  O435  1  0.427513  0.432285  0.550868  1
  O  O436  1  0.548779  0.441434  0.600410  1
  O  O437  1  0.900346  0.441177  0.600127  1
  O  O438  1  0.549245  0.441494  0.526719  1
  O  O439  1  0.110449  0.374493  0.622138  1
  O  O440  1  0.444354  0.374457  0.622023  1
  O  O441  1  0.996282  0.344323  0.579349  1
  O  O442  1  0.352756  0.344626  0.507067  1
  O  O443  1  0.650133  0.344537  0.641227  1
  O  O444  1  0.649990  0.344517  0.507039  1
  O  O445  1  0.996350  0.344664  0.641318  1
  O  O446  1  0.353395  0.344341  0.579239  1
  O  O447  1  0.205553  0.373325  0.592091  1
  O  O448  1  0.205588  0.373619  0.672029  1
  O  O449  1  0.587100  0.373258  0.671880  1
  O  O450  1  0.021373  0.530902  0.649260  1
  O  O451  1  0.313701  0.530965  0.575900  1
  O  O452  1  0.021295  0.530860  0.576215  1
  O  O453  1  0.664631  0.530860  0.649375  1
  O  O454  1  0.881064  0.504926  0.665174  1
  O  O455  1  0.881237  0.504766  0.531122  1
  O  O456  1  0.236251  0.504535  0.530869  1
  O  O457  1  0.354826  0.592934  0.579135  1
  O  O458  1  0.996325  0.592812  0.640833  1
  O  O459  1  0.649302  0.592876  0.506961  1
  O  O460  1  0.649465  0.592736  0.640899  1
  O  O461  1  0.354372  0.593014  0.507094  1
  O  O462  1  0.995560  0.592830  0.579181  1
  O  O463  1  0.213454  0.567971  0.595086  1
  O  O464  1  0.213906  0.567825  0.670402  1
  O  O465  1  0.571797  0.567719  0.670228  1
  O  O466  1  0.450523  0.558602  0.620649  1
  O  O467  1  0.099592  0.558772  0.620838  1
  O  O468  1  0.889598  0.625506  0.598917  1
  O  O469  1  0.554914  0.625710  0.529059  1
  O  O470  1  0.555587  0.625481  0.599006  1
  O  O471  1  0.003165  0.655469  0.641838  1
  O  O472  1  0.350411  0.655654  0.579958  1
  O  O473  1  0.003460  0.655524  0.579799  1
  O  O474  1  0.647778  0.655379  0.641940  1
  O  O475  1  0.794391  0.626214  0.628931  1
  O  O476  1  0.793886  0.626584  0.549037  1
  O  O477  1  0.412317  0.626916  0.549119  1
  O  O478  1  0.889027  0.749979  0.598591  1
  O  O479  1  0.556028  0.750067  0.529343  1
  O  O480  1  0.554889  0.750014  0.598831  1
  O  O481  1  0.000000  0.781423  0.640990  1
  O  O482  1  0.352752  0.781798  0.578979  1
  O  O483  1  0.353196  0.781738  0.506850  1
  O  O484  1  0.998747  0.781605  0.579258  1
  O  O485  1  0.647754  0.781346  0.641250  1
  O  O486  1  0.996140  0.718378  0.640953  1
  O  O487  1  0.351841  0.718699  0.579708  1
  O  O488  1  0.000000  0.718521  0.579343  1
  O  O489  1  0.650946  0.718271  0.641083  1
  O  O490  1  0.792270  0.751355  0.628003  1
  O  O491  1  0.794618  0.749920  0.548900  1
  O  O492  1  0.413606  0.748642  0.549253  1
  O  O493  1  0.446281  0.687471  0.622171  1
  O  O494  1  0.109320  0.687523  0.621940  1
  O  O495  1  0.444095  0.812473  0.621762  1
  O  O496  1  0.111352  0.812629  0.621877  1
  O  O497  1  0.208299  0.688378  0.593039  1
  O  O498  1  0.205942  0.688860  0.671515  1
  O  O499  1  0.588116  0.688820  0.671726  1
  O  O500  1  0.206219  0.811482  0.592006  1
  O  O501  1  0.207016  0.811195  0.671594  1
  O  O502  1  0.584147  0.811331  0.671404  1
  O  O503  1  0.021201  0.969107  0.649177  1
  O  O504  1  0.313557  0.969201  0.575975  1
  O  O505  1  0.021474  0.969101  0.576278  1
  O  O506  1  0.665121  0.968998  0.649403  1
  O  O507  1  0.881134  0.995045  0.665130  1
  O  O508  1  0.881117  0.995162  0.531180  1
  O  O509  1  0.236190  0.995512  0.530853  1
  O  O510  1  0.355427  0.907358  0.579149  1
  O  O511  1  0.995957  0.907082  0.640861  1
  O  O512  1  0.649208  0.907162  0.506923  1
  O  O513  1  0.649678  0.907053  0.640955  1
  O  O514  1  0.354589  0.907355  0.507169  1
  O  O515  1  0.995337  0.907160  0.579173  1
  O  O516  1  0.213537  0.931992  0.595112  1
  O  O517  1  0.213500  0.932210  0.670412  1
  O  O518  1  0.572070  0.932242  0.670229  1
  O  O519  1  0.450812  0.941424  0.620704  1
  O  O520  1  0.099539  0.941058  0.620864  1
  O  O521  1  0.889232  0.874489  0.598927  1
  O  O522  1  0.554824  0.874427  0.529015  1
  O  O523  1  0.555938  0.874517  0.599043  1
  O  O524  1  0.003899  0.844390  0.641740  1
  O  O525  1  0.349985  0.844709  0.579817  1
  O  O526  1  0.003040  0.844525  0.579735  1
  O  O527  1  0.646555  0.844351  0.641828  1
  O  O528  1  0.794699  0.873389  0.629082  1
  O  O529  1  0.793639  0.873448  0.549015  1
  O  O530  1  0.412653  0.873336  0.549136  1
  Si  Si531  1  0.666637  0.062361  0.211156  1
  Si  Si532  1  0.917590  0.062471  0.158317  1
  Si  Si533  1  0.415196  0.062358  0.158423  1
  Si  Si534  1  0.917719  0.062536  0.210912  1
  Si  Si535  1  0.080821  0.124761  0.175584  1
  Si  Si536  1  0.334077  0.125033  0.280818  1
  Si  Si537  1  0.584493  0.124892  0.227791  1
  Si  Si538  1  0.584281  0.125006  0.280686  1
  Si  Si539  1  0.080595  0.124910  0.227833  1
  Si  Si540  1  0.334205  0.124747  0.175468  1
  Si  Si541  1  0.250877  0.000000  0.297420  1
  Si  Si542  1  0.251015  0.000000  0.141249  1
  Si  Si543  1  0.000000  0.000000  0.141481  1
  Si  Si544  1  0.665163  0.187425  0.210915  1
  Si  Si545  1  0.919989  0.187396  0.158683  1
  Si  Si546  1  0.414179  0.187479  0.158722  1
  Si  Si547  1  0.918740  0.187411  0.210828  1
  Si  Si548  1  0.665807  0.312575  0.211048  1
  Si  Si549  1  0.918482  0.312566  0.158766  1
  Si  Si550  1  0.415712  0.312496  0.158697  1
  Si  Si551  1  0.919879  0.312639  0.211188  1
  Si  Si552  1  0.080580  0.250105  0.175600  1
  Si  Si553  1  0.334393  0.249942  0.280729  1
  Si  Si554  1  0.585028  0.249997  0.227890  1
  Si  Si555  1  0.584910  0.249992  0.280811  1
  Si  Si556  1  0.080516  0.249932  0.227840  1
  Si  Si557  1  0.334490  0.250116  0.175696  1
  Si  Si558  1  0.666456  0.437607  0.211032  1
  Si  Si559  1  0.918017  0.437436  0.158275  1
  Si  Si560  1  0.414652  0.437572  0.158378  1
  Si  Si561  1  0.917621  0.437598  0.210818  1
  Si  Si562  1  0.080622  0.375016  0.175477  1
  Si  Si563  1  0.334050  0.375249  0.280744  1
  Si  Si564  1  0.584287  0.375124  0.227714  1
  Si  Si565  1  0.584311  0.375091  0.280638  1
  Si  Si566  1  0.080679  0.375280  0.227756  1
  Si  Si567  1  0.334069  0.375047  0.175373  1
  Si  Si568  1  0.251282  0.499940  0.141278  1
  Si  Si569  1  -0.000000  0.499931  0.141432  1
  Si  Si570  1  0.251041  0.499989  0.297444  1
  Si  Si571  1  0.333231  0.562496  0.175151  1
  Si  Si572  1  0.082294  0.562411  0.227919  1
  Si  Si573  1  0.584849  0.562372  0.280437  1
  Si  Si574  1  0.584607  0.562345  0.227891  1
  Si  Si575  1  0.333179  0.562456  0.280598  1
  Si  Si576  1  0.081882  0.562488  0.175294  1
  Si  Si577  1  0.919350  0.624750  0.210740  1
  Si  Si578  1  0.415579  0.625002  0.158508  1
  Si  Si579  1  0.919078  0.624866  0.158437  1
  Si  Si580  1  0.665903  0.624670  0.210826  1
  Si  Si581  1  0.748572  0.500077  0.245013  1
  Si  Si582  1  0.748637  0.500070  0.297535  1
  Si  Si583  1  0.000000  0.500052  0.244812  1
  Si  Si584  1  0.335134  0.687409  0.175596  1
  Si  Si585  1  0.079465  0.687494  0.227535  1
  Si  Si586  1  0.584882  0.687425  0.280448  1
  Si  Si587  1  0.586659  0.687425  0.227686  1
  Si  Si588  1  0.334092  0.687531  0.280318  1
  Si  Si589  1  0.080808  0.687364  0.175380  1
  Si  Si590  1  0.334213  0.812670  0.175055  1
  Si  Si591  1  0.081294  0.812561  0.227472  1
  Si  Si592  1  0.584262  0.812539  0.280482  1
  Si  Si593  1  0.584017  0.812522  0.227500  1
  Si  Si594  1  0.334056  0.812535  0.280654  1
  Si  Si595  1  0.080658  0.812683  0.175145  1
  Si  Si596  1  0.918704  0.750168  0.210421  1
  Si  Si597  1  0.414739  0.749901  0.158426  1
  Si  Si598  1  0.919832  0.750004  0.158299  1
  Si  Si599  1  0.665504  0.750122  0.210621  1
  Si  Si600  1  0.333353  0.937652  0.175214  1
  Si  Si601  1  0.081883  0.937499  0.227903  1
  Si  Si602  1  0.584746  0.937660  0.280393  1
  Si  Si603  1  0.584990  0.937528  0.227902  1
  Si  Si604  1  0.333026  0.937783  0.280533  1
  Si  Si605  1  0.081931  0.937448  0.175324  1
  Si  Si606  1  0.919422  0.875060  0.210787  1
  Si  Si607  1  0.415986  0.875263  0.158523  1
  Si  Si608  1  0.918711  0.875153  0.158439  1
  Si  Si609  1  0.665999  0.875073  0.210898  1
  Si  Si610  1  0.748795  0.000000  0.245046  1
  Si  Si611  1  0.748701  -0.000000  0.297554  1
  Si  Si612  1  0.000000  0.000000  0.244761  1
  Si  Si613  1  0.666637  0.062361  0.419863  1
  Si  Si614  1  0.917590  0.062471  0.367023  1
  Si  Si615  1  0.414938  0.062467  0.314586  1
  Si  Si616  1  0.415196  0.062358  0.367129  1
  Si  Si617  1  0.666492  0.062399  0.314379  1
  Si  Si618  1  0.917719  0.062536  0.419618  1
  Si  Si619  1  0.080821  0.124761  0.384290  1
  Si  Si620  1  0.334077  0.125033  0.489524  1
  Si  Si621  1  0.584493  0.124892  0.436497  1
  Si  Si622  1  0.584281  0.125006  0.489393  1
  Si  Si623  1  0.080595  0.124910  0.436539  1
  Si  Si624  1  0.334205  0.124747  0.384174  1
  Si  Si625  1  0.250877  0.000000  0.506126  1
  Si  Si626  1  0.251015  0.000000  0.349955  1
  Si  Si627  1  -0.000000  0.000000  0.350187  1
  Si  Si628  1  0.665163  0.187425  0.419621  1
  Si  Si629  1  0.919989  0.187396  0.367389  1
  Si  Si630  1  0.415496  0.187508  0.314615  1
  Si  Si631  1  0.414179  0.187479  0.367428  1
  Si  Si632  1  0.665786  0.187423  0.314534  1
  Si  Si633  1  0.918740  0.187411  0.419534  1
  Si  Si634  1  0.665807  0.312575  0.419754  1
  Si  Si635  1  0.918482  0.312566  0.367472  1
  Si  Si636  1  0.414225  0.312608  0.314296  1
  Si  Si637  1  0.415712  0.312496  0.367403  1
  Si  Si638  1  0.665111  0.312627  0.314422  1
  Si  Si639  1  0.919879  0.312639  0.419894  1
  Si  Si640  1  0.080580  0.250105  0.384306  1
  Si  Si641  1  0.334393  0.249942  0.489436  1
  Si  Si642  1  0.585028  0.249997  0.436596  1
  Si  Si643  1  0.584910  0.249992  0.489518  1
  Si  Si644  1  0.080516  0.249932  0.436546  1
  Si  Si645  1  0.334490  0.250116  0.384403  1
  Si  Si646  1  0.666456  0.437607  0.419738  1
  Si  Si647  1  0.918017  0.437436  0.366982  1
  Si  Si648  1  0.414984  0.437719  0.314600  1
  Si  Si649  1  0.414652  0.437572  0.367084  1
  Si  Si650  1  0.666584  0.437623  0.314413  1
  Si  Si651  1  0.917621  0.437598  0.419524  1
  Si  Si652  1  0.080622  0.375016  0.384183  1
  Si  Si653  1  0.334050  0.375249  0.489450  1
  Si  Si654  1  0.584287  0.375124  0.436420  1
  Si  Si655  1  0.584311  0.375091  0.489344  1
  Si  Si656  1  0.080679  0.375280  0.436463  1
  Si  Si657  1  0.334069  0.375047  0.384080  1
  Si  Si658  1  0.251282  0.499940  0.349984  1
  Si  Si659  1  0.000000  0.499931  0.350138  1
  Si  Si660  1  0.251041  0.499989  0.506150  1
  Si  Si661  1  0.333231  0.562496  0.383857  1
  Si  Si662  1  0.082294  0.562411  0.436625  1
  Si  Si663  1  0.584849  0.562372  0.489144  1
  Si  Si664  1  0.584607  0.562345  0.436598  1
  Si  Si665  1  0.333179  0.562456  0.489304  1
  Si  Si666  1  0.081882  0.562488  0.384000  1
  Si  Si667  1  0.919350  0.624750  0.419446  1
  Si  Si668  1  0.665409  0.624928  0.314197  1
  Si  Si669  1  0.415579  0.625002  0.367214  1
  Si  Si670  1  0.414922  0.625132  0.314218  1
  Si  Si671  1  0.919078  0.624866  0.367143  1
  Si  Si672  1  0.665903  0.624670  0.419532  1
  Si  Si673  1  0.748572  0.500077  0.453719  1
  Si  Si674  1  0.748637  0.500070  0.506241  1
  Si  Si675  1  0.000000  0.500052  0.453518  1
  Si  Si676  1  0.335134  0.687409  0.384302  1
  Si  Si677  1  0.079465  0.687494  0.436241  1
  Si  Si678  1  0.584882  0.687425  0.489154  1
  Si  Si679  1  0.586659  0.687425  0.436392  1
  Si  Si680  1  0.334092  0.687531  0.489024  1
  Si  Si681  1  0.080808  0.687364  0.384086  1
  Si  Si682  1  0.334213  0.812670  0.383762  1
  Si  Si683  1  0.081294  0.812561  0.436179  1
  Si  Si684  1  0.584262  0.812539  0.489188  1
  Si  Si685  1  0.584017  0.812522  0.436206  1
  Si  Si686  1  0.334056  0.812535  0.489361  1
  Si  Si687  1  0.080658  0.812683  0.383851  1
  Si  Si688  1  0.918704  0.750168  0.419127  1
  Si  Si689  1  0.665628  0.749984  0.314173  1
  Si  Si690  1  0.414739  0.749901  0.367132  1
  Si  Si691  1  0.415571  0.749909  0.314287  1
  Si  Si692  1  0.919832  0.750004  0.367005  1
  Si  Si693  1  0.665504  0.750122  0.419328  1
  Si  Si694  1  0.333353  0.937652  0.383921  1
  Si  Si695  1  0.081883  0.937499  0.436609  1
  Si  Si696  1  0.584746  0.937660  0.489099  1
  Si  Si697  1  0.584990  0.937528  0.436608  1
  Si  Si698  1  0.333026  0.937783  0.489239  1
  Si  Si699  1  0.081931  0.937448  0.384030  1
  Si  Si700  1  0.919422  0.875060  0.419493  1
  Si  Si701  1  0.665292  0.875106  0.314150  1
  Si  Si702  1  0.415986  0.875263  0.367229  1
  Si  Si703  1  0.414914  0.875177  0.314206  1
  Si  Si704  1  0.918711  0.875153  0.367145  1
  Si  Si705  1  0.665999  0.875073  0.419604  1
  Si  Si706  1  0.748795  -0.000000  0.453752  1
  Si  Si707  1  0.748701  0.000000  0.506260  1
  Si  Si708  1  0.000000  0.000000  0.453467  1
  Si  Si709  1  0.666637  0.062361  0.628569  1
  Si  Si710  1  0.917590  0.062471  0.575729  1
  Si  Si711  1  0.414938  0.062467  0.523293  1
  Si  Si712  1  0.415196  0.062358  0.575835  1
  Si  Si713  1  0.666492  0.062399  0.523085  1
  Si  Si714  1  0.917719  0.062536  0.628325  1
  Si  Si715  1  0.080821  0.124761  0.592997  1
  Si  Si716  1  0.584493  0.124892  0.645203  1
  Si  Si717  1  0.080595  0.124910  0.645245  1
  Si  Si718  1  0.334205  0.124747  0.592880  1
  Si  Si719  1  0.251015  0.000000  0.558661  1
  Si  Si720  1  -0.000000  0.000000  0.558894  1
  Si  Si721  1  0.665163  0.187425  0.628327  1
  Si  Si722  1  0.919989  0.187396  0.576095  1
  Si  Si723  1  0.415496  0.187508  0.523322  1
  Si  Si724  1  0.414179  0.187479  0.576134  1
  Si  Si725  1  0.665786  0.187423  0.523241  1
  Si  Si726  1  0.918740  0.187411  0.628240  1
  Si  Si727  1  0.665807  0.312575  0.628461  1
  Si  Si728  1  0.918482  0.312566  0.576178  1
  Si  Si729  1  0.414225  0.312608  0.523002  1
  Si  Si730  1  0.415712  0.312496  0.576110  1
  Si  Si731  1  0.665111  0.312627  0.523128  1
  Si  Si732  1  0.919879  0.312639  0.628600  1
  Si  Si733  1  0.080580  0.250105  0.593012  1
  Si  Si734  1  0.585028  0.249997  0.645302  1
  Si  Si735  1  0.080516  0.249932  0.645252  1
  Si  Si736  1  0.334490  0.250116  0.593109  1
  Si  Si737  1  0.666456  0.437607  0.628444  1
  Si  Si738  1  0.918017  0.437436  0.575688  1
  Si  Si739  1  0.414984  0.437719  0.523306  1
  Si  Si740  1  0.414652  0.437572  0.575790  1
  Si  Si741  1  0.666584  0.437623  0.523119  1
  Si  Si742  1  0.917621  0.437598  0.628230  1
  Si  Si743  1  0.080622  0.375016  0.592889  1
  Si  Si744  1  0.584287  0.375124  0.645126  1
  Si  Si745  1  0.080679  0.375280  0.645169  1
  Si  Si746  1  0.334069  0.375047  0.592786  1
  Si  Si747  1  0.251282  0.499940  0.558690  1
  Si  Si748  1  0.000000  0.499931  0.558845  1
  Si  Si749  1  0.333231  0.562496  0.592564  1
  Si  Si750  1  0.082294  0.562411  0.645331  1
  Si  Si751  1  0.584607  0.562345  0.645304  1
  Si  Si752  1  0.081882  0.562488  0.592706  1
  Si  Si753  1  0.919350  0.624750  0.628152  1
  Si  Si754  1  0.665409  0.624928  0.522903  1
  Si  Si755  1  0.415579  0.625002  0.575920  1
  Si  Si756  1  0.414922  0.625132  0.522924  1
  Si  Si757  1  0.919078  0.624866  0.575849  1
  Si  Si758  1  0.665903  0.624670  0.628238  1
  Si  Si759  1  0.748572  0.500077  0.662425  1
  Si  Si760  1  0.000000  0.500052  0.662225  1
  Si  Si761  1  0.335134  0.687409  0.593008  1
  Si  Si762  1  0.079465  0.687494  0.644947  1
  Si  Si763  1  0.586659  0.687425  0.645098  1
  Si  Si764  1  0.080808  0.687364  0.592792  1
  Si  Si765  1  0.334213  0.812670  0.592468  1
  Si  Si766  1  0.081294  0.812561  0.644885  1
  Si  Si767  1  0.584017  0.812522  0.644912  1
  Si  Si768  1  0.080658  0.812683  0.592557  1
  Si  Si769  1  0.918704  0.750168  0.627834  1
  Si  Si770  1  0.665628  0.749984  0.522879  1
  Si  Si771  1  0.414739  0.749901  0.575838  1
  Si  Si772  1  0.415571  0.749909  0.522993  1
  Si  Si773  1  0.919832  0.750004  0.575711  1
  Si  Si774  1  0.665504  0.750122  0.628034  1
  Si  Si775  1  0.333353  0.937652  0.592627  1
  Si  Si776  1  0.081883  0.937499  0.645315  1
  Si  Si777  1  0.584990  0.937528  0.645314  1
  Si  Si778  1  0.081931  0.937448  0.592736  1
  Si  Si779  1  0.919422  0.875060  0.628199  1
  Si  Si780  1  0.665292  0.875106  0.522856  1
  Si  Si781  1  0.415986  0.875263  0.575936  1
  Si  Si782  1  0.414914  0.875177  0.522912  1
  Si  Si783  1  0.918711  0.875153  0.575852  1
  Si  Si784  1  0.665999  0.875073  0.628311  1
  Si  Si785  1  0.748795  0.000000  0.662458  1
  Si  Si786  1  0.000000  0.000000  0.662173  1
  H  H787  1  0.786083  0.067919  0.117915  1
  H  H788  1  0.428222  0.067734  0.118229  1
  H  H789  1  0.793973  0.188701  0.116729  1
  H  H790  1  0.413238  0.188824  0.116849  1
  H  H791  1  0.792052  0.311451  0.116888  1
  H  H792  1  0.413670  0.311196  0.116709  1
  H  H793  1  0.786358  0.432058  0.117906  1
  H  H794  1  0.427513  0.432285  0.118157  1
  H  H795  1  0.881237  0.504766  0.098410  1
  H  H796  1  0.236251  0.504535  0.098157  1
  H  H797  1  0.793886  0.626584  0.116326  1
  H  H798  1  0.412317  0.626916  0.116408  1
  H  H799  1  0.794618  0.749920  0.116189  1
  H  H800  1  0.413606  0.748642  0.116542  1
  H  H801  1  0.881117  0.995162  0.098469  1
  H  H802  1  0.236190  0.995512  0.098142  1
  H  H803  1  0.793639  0.873448  0.116304  1
  H  H804  1  0.412653  0.873336  0.116424  1
  H  H805  1  0.118381  0.004868  0.705213  1
  H  H806  1  0.763769  0.004446  0.705575  1
  H  H807  1  0.205445  0.126578  0.687425  1
  H  H808  1  0.587128  0.126829  0.687233  1
  H  H809  1  0.206555  0.248835  0.687185  1
  H  H810  1  0.588492  0.249768  0.687429  1
  H  H811  1  0.118609  0.495166  0.705239  1
  H  H812  1  0.763309  0.495422  0.705519  1
  H  H813  1  0.205588  0.373619  0.687328  1
  H  H814  1  0.587100  0.373258  0.687179  1
  H  H815  1  0.213906  0.567825  0.685701  1
  H  H816  1  0.571797  0.567719  0.685527  1
  H  H817  1  0.205942  0.688860  0.686814  1
  H  H818  1  0.588116  0.688820  0.687025  1
  H  H819  1  0.207016  0.811195  0.686893  1
  H  H820  1  0.584147  0.811331  0.686702  1
  H  H821  1  0.213500  0.932210  0.685711  1
  H  H822  1  0.572070  0.932242  0.685528  1
