# generated using pymatgen
data_Si80H18O169
_symmetry_space_group_name_H-M   'P 1'
_cell_length_a   12.26957123
_cell_length_b   40.91417750
_cell_length_c   46.55046512
_cell_angle_alpha   90.00000000
_cell_angle_beta   120.00000000
_cell_angle_gamma   90.00000000
_symmetry_Int_Tables_number   1
_chemical_formula_structural   Si80H18O169
_chemical_formula_sum   'Si160 H36 O338'
_cell_volume   20237.5468696
_cell_formula_units_Z   2
loop_
 _symmetry_equiv_pos_site_id
 _symmetry_equiv_pos_as_xyz
  1  'x, y, z'
loop_
 _atom_site_type_symbol
 _atom_site_label
 _atom_site_symmetry_multiplicity
 _atom_site_fract_x
 _atom_site_fract_y
 _atom_site_fract_z
 _atom_site_occupancy
  O  O1  1  0.978291  0.030872  0.195190  1
  O  O2  1  0.686389  0.030840  0.287928  1
  O  O3  1  0.978370  0.030909  0.287375  1
  O  O4  1  0.334797  0.030938  0.194985  1
  O  O5  1  0.118562  0.004939  0.175057  1
  O  O6  1  0.118381  0.004868  0.344375  1
  O  O7  1  0.763769  0.004446  0.344833  1
  O  O8  1  0.645156  0.092782  0.283859  1
  O  O9  1  0.004046  0.092795  0.205847  1
  O  O10  1  0.350573  0.093034  0.375139  1
  O  O11  1  0.350460  0.092799  0.205733  1
  O  O12  1  0.644732  0.092863  0.374670  1
  O  O13  1  0.003835  0.092910  0.283647  1
  O  O14  1  0.786152  0.067906  0.263562  1
  O  O15  1  0.786083  0.067919  0.168349  1
  O  O16  1  0.428222  0.067734  0.168746  1
  O  O17  1  0.549146  0.058486  0.231391  1
  O  O18  1  0.899959  0.058895  0.230977  1
  O  O19  1  0.110501  0.125479  0.258843  1
  O  O20  1  0.444315  0.125715  0.346996  1
  O  O21  1  0.444569  0.125456  0.258679  1
  O  O22  1  0.996695  0.155425  0.204605  1
  O  O23  1  0.649963  0.155517  0.282845  1
  O  O24  1  0.996375  0.155614  0.282871  1
  O  O25  1  0.352796  0.155453  0.204512  1
  O  O26  1  0.205787  0.126361  0.220913  1
  O  O27  1  0.205445  0.126578  0.321895  1
  O  O28  1  0.587128  0.126829  0.321653  1
  O  O29  1  0.110639  0.250013  0.258893  1
  O  O30  1  0.444381  0.250054  0.346744  1
  O  O31  1  0.444535  0.249988  0.259058  1
  O  O32  1  -0.000000  0.281339  0.205294  1
  O  O33  1  0.349832  0.281725  0.375265  1
  O  O34  1  0.647030  0.281614  0.283563  1
  O  O35  1  0.647266  0.281559  0.375743  1
  O  O36  1  0.003065  0.281762  0.283865  1
  O  O37  1  0.352579  0.281361  0.205450  1
  O  O38  1  0.003091  0.218294  0.205508  1
  O  O39  1  0.352597  0.218690  0.376123  1
  O  O40  1  0.647541  0.218536  0.283427  1
  O  O41  1  0.647076  0.218501  0.375862  1
  O  O42  1  0.000000  0.218655  0.283176  1
  O  O43  1  0.349818  0.218340  0.205586  1
  O  O44  1  0.206737  0.251239  0.221554  1
  O  O45  1  0.206555  0.248835  0.321592  1
  O  O46  1  0.588492  0.249768  0.321901  1
  O  O47  1  0.554400  0.187551  0.229645  1
  O  O48  1  0.889535  0.187459  0.229524  1
  O  O49  1  0.556000  0.312536  0.229655  1
  O  O50  1  0.889259  0.312551  0.229854  1
  O  O51  1  0.792197  0.188533  0.266618  1
  O  O52  1  0.793973  0.188701  0.166851  1
  O  O53  1  0.413238  0.188824  0.167003  1
  O  O54  1  0.794018  0.311254  0.267421  1
  O  O55  1  0.792052  0.311451  0.167052  1
  O  O56  1  0.413670  0.311196  0.166825  1
  O  O57  1  0.978789  0.469005  0.195104  1
  O  O58  1  0.686255  0.469098  0.287812  1
  O  O59  1  0.978142  0.469196  0.287317  1
  O  O60  1  0.334709  0.469072  0.195029  1
  O  O61  1  0.118779  0.495155  0.175045  1
  O  O62  1  0.118609  0.495166  0.344408  1
  O  O63  1  0.763309  0.495422  0.344761  1
  O  O64  1  0.644957  0.407203  0.283710  1
  O  O65  1  0.003993  0.407013  0.205712  1
  O  O66  1  0.350282  0.407296  0.374952  1
  O  O67  1  0.350032  0.407071  0.205641  1
  O  O68  1  0.644786  0.407212  0.374645  1
  O  O69  1  0.004059  0.407296  0.283554  1
  O  O70  1  0.785970  0.432125  0.263378  1
  O  O71  1  0.786358  0.432058  0.168338  1
  O  O72  1  0.427513  0.432285  0.168655  1
  O  O73  1  0.548779  0.441434  0.231264  1
  O  O74  1  0.900346  0.441177  0.230906  1
  O  O75  1  0.110449  0.374493  0.258722  1
  O  O76  1  0.444358  0.374450  0.346935  1
  O  O77  1  0.444354  0.374457  0.258578  1
  O  O78  1  0.996282  0.344323  0.204648  1
  O  O79  1  0.650133  0.344537  0.282846  1
  O  O80  1  0.996350  0.344664  0.282961  1
  O  O81  1  0.353395  0.344341  0.204509  1
  O  O82  1  0.205553  0.373325  0.220750  1
  O  O83  1  0.205588  0.373619  0.321773  1
  O  O84  1  0.587100  0.373258  0.321584  1
  O  O85  1  0.021373  0.530902  0.292999  1
  O  O86  1  0.665232  0.530952  0.370442  1
  O  O87  1  0.313701  0.530965  0.200289  1
  O  O88  1  0.313282  0.531039  0.370591  1
  O  O89  1  0.021295  0.530860  0.200687  1
  O  O90  1  0.664631  0.530860  0.293144  1
  O  O91  1  0.881064  0.504926  0.313109  1
  O  O92  1  0.881237  0.504766  0.143700  1
  O  O93  1  0.236251  0.504535  0.143381  1
  O  O94  1  0.354826  0.592934  0.204377  1
  O  O95  1  0.996325  0.592812  0.282348  1
  O  O96  1  0.649465  0.592736  0.282432  1
  O  O97  1  0.995560  0.592830  0.204436  1
  O  O98  1  0.213454  0.567971  0.224535  1
  O  O99  1  0.213906  0.567825  0.319716  1
  O  O100  1  0.571797  0.567719  0.319497  1
  O  O101  1  0.450523  0.558602  0.256841  1
  O  O102  1  0.099592  0.558772  0.257080  1
  O  O103  1  0.450886  0.558472  0.350244  1
  O  O104  1  0.889598  0.625506  0.229377  1
  O  O105  1  0.555587  0.625481  0.229490  1
  O  O106  1  0.003165  0.655469  0.283619  1
  O  O107  1  0.646608  0.655540  0.374791  1
  O  O108  1  0.350411  0.655654  0.205417  1
  O  O109  1  0.349433  0.655739  0.374754  1
  O  O110  1  0.003460  0.655524  0.205216  1
  O  O111  1  0.647778  0.655379  0.283748  1
  O  O112  1  0.794391  0.626214  0.267307  1
  O  O113  1  0.793886  0.626584  0.166341  1
  O  O114  1  0.412317  0.626916  0.166445  1
  O  O115  1  0.889027  0.749979  0.228965  1
  O  O116  1  0.554889  0.750014  0.229268  1
  O  O117  1  0.000000  0.781423  0.282547  1
  O  O118  1  0.648513  0.781475  0.376049  1
  O  O119  1  0.352752  0.781798  0.204180  1
  O  O120  1  0.998747  0.781605  0.204533  1
  O  O121  1  0.647754  0.781346  0.282876  1
  O  O122  1  0.996140  0.718378  0.282500  1
  O  O123  1  0.648280  0.718436  0.376148  1
  O  O124  1  0.351841  0.718699  0.205101  1
  O  O125  1  0.352725  0.718715  0.375730  1
  O  O126  1  -0.000000  0.718521  0.204640  1
  O  O127  1  0.650946  0.718271  0.282664  1
  O  O128  1  0.792270  0.751355  0.266135  1
  O  O129  1  0.794618  0.749920  0.166168  1
  O  O130  1  0.413606  0.748642  0.166614  1
  O  O131  1  0.446281  0.687471  0.258765  1
  O  O132  1  0.109320  0.687523  0.258472  1
  O  O133  1  0.444262  0.687388  0.346276  1
  O  O134  1  0.444095  0.812473  0.258247  1
  O  O135  1  0.111352  0.812629  0.258393  1
  O  O136  1  0.444415  0.812403  0.346832  1
  O  O137  1  0.208299  0.688378  0.221948  1
  O  O138  1  0.205942  0.688860  0.321123  1
  O  O139  1  0.588116  0.688820  0.321389  1
  O  O140  1  0.206219  0.811482  0.220643  1
  O  O141  1  0.207016  0.811195  0.321223  1
  O  O142  1  0.584147  0.811331  0.320982  1
  O  O143  1  0.021201  0.969107  0.292893  1
  O  O144  1  0.665005  0.969092  0.370410  1
  O  O145  1  0.313557  0.969201  0.200384  1
  O  O146  1  0.313459  0.969284  0.370464  1
  O  O147  1  0.021474  0.969101  0.200766  1
  O  O148  1  0.665121  0.968998  0.293178  1
  O  O149  1  0.881134  0.995045  0.313055  1
  O  O150  1  0.881117  0.995162  0.143774  1
  O  O151  1  0.236190  0.995512  0.143361  1
  O  O152  1  0.355427  0.907358  0.204395  1
  O  O153  1  0.995957  0.907082  0.282384  1
  O  O154  1  0.649678  0.907053  0.282503  1
  O  O155  1  0.995337  0.907160  0.204425  1
  O  O156  1  0.213537  0.931992  0.224568  1
  O  O157  1  0.213500  0.932210  0.319729  1
  O  O158  1  0.572070  0.932242  0.319498  1
  O  O159  1  0.450812  0.941424  0.256911  1
  O  O160  1  0.099539  0.941058  0.257113  1
  O  O161  1  0.450594  0.941588  0.350070  1
  O  O162  1  0.889232  0.874489  0.229389  1
  O  O163  1  0.555938  0.874517  0.229536  1
  O  O164  1  0.003899  0.844390  0.283494  1
  O  O165  1  0.646301  0.844450  0.374751  1
  O  O166  1  0.349985  0.844709  0.205239  1
  O  O167  1  0.348866  0.844642  0.374693  1
  O  O168  1  0.003040  0.844525  0.205136  1
  O  O169  1  0.646555  0.844351  0.283606  1
  O  O170  1  0.794699  0.873389  0.267498  1
  O  O171  1  0.793639  0.873448  0.166313  1
  O  O172  1  0.412653  0.873336  0.166466  1
  O  O173  1  0.978291  0.030872  0.458944  1
  O  O174  1  0.334261  0.031101  0.381461  1
  O  O175  1  0.686389  0.030840  0.551681  1
  O  O176  1  0.686247  0.030931  0.381346  1
  O  O177  1  0.978370  0.030909  0.551128  1
  O  O178  1  0.334797  0.030938  0.458738  1
  O  O179  1  0.118562  0.004939  0.438810  1
  O  O180  1  0.118381  0.004868  0.608128  1
  O  O181  1  0.763769  0.004446  0.608586  1
  O  O182  1  0.645156  0.092782  0.547612  1
  O  O183  1  0.004046  0.092795  0.469600  1
  O  O184  1  0.350460  0.092799  0.469486  1
  O  O185  1  0.003835  0.092910  0.547400  1
  O  O186  1  0.786152  0.067906  0.527315  1
  O  O187  1  0.786083  0.067919  0.432102  1
  O  O188  1  0.428222  0.067734  0.432499  1
  O  O189  1  0.549146  0.058486  0.495144  1
  O  O190  1  0.899959  0.058895  0.494730  1
  O  O191  1  0.548917  0.058502  0.401734  1
  O  O192  1  0.110501  0.125479  0.522596  1
  O  O193  1  0.444569  0.125456  0.522432  1
  O  O194  1  0.996695  0.155425  0.468358  1
  O  O195  1  0.353068  0.155724  0.377095  1
  O  O196  1  0.649963  0.155517  0.546598  1
  O  O197  1  0.650150  0.155562  0.377079  1
  O  O198  1  0.996375  0.155614  0.546624  1
  O  O199  1  0.352796  0.155453  0.468265  1
  O  O200  1  0.205787  0.126361  0.484667  1
  O  O201  1  0.205445  0.126578  0.585648  1
  O  O202  1  0.587128  0.126829  0.585406  1
  O  O203  1  0.110639  0.250013  0.522646  1
  O  O204  1  0.444535  0.249988  0.522811  1
  O  O205  1  -0.000000  0.281339  0.469047  1
  O  O206  1  0.647030  0.281614  0.547316  1
  O  O207  1  0.003065  0.281762  0.547618  1
  O  O208  1  0.352579  0.281361  0.469203  1
  O  O209  1  0.003091  0.218294  0.469261  1
  O  O210  1  0.647541  0.218536  0.547180  1
  O  O211  1  0.000000  0.218655  0.546929  1
  O  O212  1  0.349818  0.218340  0.469339  1
  O  O213  1  0.206737  0.251239  0.485307  1
  O  O214  1  0.206555  0.248835  0.585345  1
  O  O215  1  0.588492  0.249768  0.585654  1
  O  O216  1  0.554400  0.187551  0.493398  1
  O  O217  1  0.889535  0.187459  0.493277  1
  O  O218  1  0.555873  0.187381  0.405558  1
  O  O219  1  0.556000  0.312536  0.493408  1
  O  O220  1  0.889259  0.312551  0.493607  1
  O  O221  1  0.554356  0.312535  0.405045  1
  O  O222  1  0.792197  0.188533  0.530371  1
  O  O223  1  0.793973  0.188701  0.430604  1
  O  O224  1  0.413238  0.188824  0.430756  1
  O  O225  1  0.794018  0.311254  0.531174  1
  O  O226  1  0.792052  0.311451  0.430805  1
  O  O227  1  0.413670  0.311196  0.430578  1
  O  O228  1  0.978789  0.469005  0.458857  1
  O  O229  1  0.335030  0.469207  0.381554  1
  O  O230  1  0.686255  0.469098  0.551565  1
  O  O231  1  0.686106  0.469129  0.381401  1
  O  O232  1  0.978142  0.469196  0.551070  1
  O  O233  1  0.334709  0.469072  0.458782  1
  O  O234  1  0.118779  0.495155  0.438798  1
  O  O235  1  0.118609  0.495166  0.608161  1
  O  O236  1  0.763309  0.495422  0.608514  1
  O  O237  1  0.644957  0.407203  0.547463  1
  O  O238  1  0.003993  0.407013  0.469465  1
  O  O239  1  0.350032  0.407071  0.469394  1
  O  O240  1  0.004059  0.407296  0.547307  1
  O  O241  1  0.785970  0.432125  0.527131  1
  O  O242  1  0.786358  0.432058  0.432091  1
  O  O243  1  0.427513  0.432285  0.432408  1
  O  O244  1  0.548779  0.441434  0.495017  1
  O  O245  1  0.900346  0.441177  0.494659  1
  O  O246  1  0.549245  0.441494  0.401889  1
  O  O247  1  0.110449  0.374493  0.522475  1
  O  O248  1  0.444354  0.374457  0.522331  1
  O  O249  1  0.996282  0.344323  0.468401  1
  O  O250  1  0.352756  0.344626  0.377055  1
  O  O251  1  0.650133  0.344537  0.546599  1
  O  O252  1  0.649990  0.344517  0.377019  1
  O  O253  1  0.996350  0.344664  0.546714  1
  O  O254  1  0.353395  0.344341  0.468262  1
  O  O255  1  0.205553  0.373325  0.484504  1
  O  O256  1  0.205588  0.373619  0.585526  1
  O  O257  1  0.587100  0.373258  0.585337  1
  O  O258  1  0.021373  0.530902  0.556752  1
  O  O259  1  0.313701  0.530965  0.464042  1
  O  O260  1  0.021295  0.530860  0.464440  1
  O  O261  1  0.664631  0.530860  0.556897  1
  O  O262  1  0.881064  0.504926  0.576862  1
  O  O263  1  0.881237  0.504766  0.407453  1
  O  O264  1  0.236251  0.504535  0.407134  1
  O  O265  1  0.354826  0.592934  0.468130  1
  O  O266  1  0.996325  0.592812  0.546101  1
  O  O267  1  0.649302  0.592876  0.376920  1
  O  O268  1  0.649465  0.592736  0.546185  1
  O  O269  1  0.354372  0.593014  0.377089  1
  O  O270  1  0.995560  0.592830  0.468189  1
  O  O271  1  0.213454  0.567971  0.488288  1
  O  O272  1  0.213906  0.567825  0.583469  1
  O  O273  1  0.571797  0.567719  0.583250  1
  O  O274  1  0.450523  0.558602  0.520594  1
  O  O275  1  0.099592  0.558772  0.520833  1
  O  O276  1  0.889598  0.625506  0.493130  1
  O  O277  1  0.554914  0.625710  0.404847  1
  O  O278  1  0.555587  0.625481  0.493243  1
  O  O279  1  0.003165  0.655469  0.547372  1
  O  O280  1  0.350411  0.655654  0.469170  1
  O  O281  1  0.003460  0.655524  0.468970  1
  O  O282  1  0.647778  0.655379  0.547501  1
  O  O283  1  0.794391  0.626214  0.531060  1
  O  O284  1  0.793886  0.626584  0.430094  1
  O  O285  1  0.412317  0.626916  0.430198  1
  O  O286  1  0.889027  0.749979  0.492718  1
  O  O287  1  0.556028  0.750067  0.405205  1
  O  O288  1  0.554889  0.750014  0.493021  1
  O  O289  1  -0.000000  0.781423  0.546300  1
  O  O290  1  0.352752  0.781798  0.467933  1
  O  O291  1  0.353196  0.781738  0.376780  1
  O  O292  1  0.998747  0.781605  0.468286  1
  O  O293  1  0.647754  0.781346  0.546629  1
  O  O294  1  0.996140  0.718378  0.546253  1
  O  O295  1  0.351841  0.718699  0.468855  1
  O  O296  1  0.000000  0.718521  0.468393  1
  O  O297  1  0.650946  0.718271  0.546417  1
  O  O298  1  0.792270  0.751355  0.529888  1
  O  O299  1  0.794618  0.749920  0.429921  1
  O  O300  1  0.413606  0.748642  0.430367  1
  O  O301  1  0.446281  0.687471  0.522518  1
  O  O302  1  0.109320  0.687523  0.522226  1
  O  O303  1  0.444095  0.812473  0.522001  1
  O  O304  1  0.111352  0.812629  0.522146  1
  O  O305  1  0.208299  0.688378  0.485701  1
  O  O306  1  0.205942  0.688860  0.584876  1
  O  O307  1  0.588116  0.688820  0.585142  1
  O  O308  1  0.206219  0.811482  0.484396  1
  O  O309  1  0.207016  0.811195  0.584976  1
  O  O310  1  0.584147  0.811331  0.584735  1
  O  O311  1  0.021201  0.969107  0.556646  1
  O  O312  1  0.313557  0.969201  0.464137  1
  O  O313  1  0.021474  0.969101  0.464520  1
  O  O314  1  0.665121  0.968998  0.556931  1
  O  O315  1  0.881134  0.995045  0.576808  1
  O  O316  1  0.881117  0.995162  0.407527  1
  O  O317  1  0.236190  0.995512  0.407114  1
  O  O318  1  0.355427  0.907358  0.468148  1
  O  O319  1  0.995957  0.907082  0.546137  1
  O  O320  1  0.649208  0.907162  0.376872  1
  O  O321  1  0.649678  0.907053  0.546256  1
  O  O322  1  0.354589  0.907355  0.377183  1
  O  O323  1  0.995337  0.907160  0.468178  1
  O  O324  1  0.213537  0.931992  0.488321  1
  O  O325  1  0.213500  0.932210  0.583482  1
  O  O326  1  0.572070  0.932242  0.583251  1
  O  O327  1  0.450812  0.941424  0.520664  1
  O  O328  1  0.099539  0.941058  0.520866  1
  O  O329  1  0.889232  0.874489  0.493143  1
  O  O330  1  0.554824  0.874427  0.404791  1
  O  O331  1  0.555938  0.874517  0.493289  1
  O  O332  1  0.003899  0.844390  0.547247  1
  O  O333  1  0.349985  0.844709  0.468992  1
  O  O334  1  0.003040  0.844525  0.468889  1
  O  O335  1  0.646555  0.844351  0.547359  1
  O  O336  1  0.794699  0.873389  0.531251  1
  O  O337  1  0.793639  0.873448  0.430066  1
  O  O338  1  0.412653  0.873336  0.430219  1
  Si  Si339  1  0.666637  0.062361  0.266850  1
  Si  Si340  1  0.917590  0.062471  0.200073  1
  Si  Si341  1  0.415196  0.062358  0.200208  1
  Si  Si342  1  0.917719  0.062536  0.266541  1
  Si  Si343  1  0.080821  0.124761  0.221895  1
  Si  Si344  1  0.334077  0.125033  0.354884  1
  Si  Si345  1  0.584493  0.124892  0.287871  1
  Si  Si346  1  0.584281  0.125006  0.354718  1
  Si  Si347  1  0.080595  0.124910  0.287925  1
  Si  Si348  1  0.334205  0.124747  0.221748  1
  Si  Si349  1  0.250877  0.000000  0.375866  1
  Si  Si350  1  0.251015  0.000000  0.178503  1
  Si  Si351  1  0.000000  -0.000000  0.178797  1
  Si  Si352  1  0.665163  0.187425  0.266544  1
  Si  Si353  1  0.919989  0.187396  0.200536  1
  Si  Si354  1  0.414179  0.187479  0.200585  1
  Si  Si355  1  0.918740  0.187411  0.266435  1
  Si  Si356  1  0.665807  0.312575  0.266713  1
  Si  Si357  1  0.918482  0.312566  0.200641  1
  Si  Si358  1  0.415712  0.312496  0.200554  1
  Si  Si359  1  0.919879  0.312639  0.266889  1
  Si  Si360  1  0.080580  0.250105  0.221915  1
  Si  Si361  1  0.334393  0.249942  0.354773  1
  Si  Si362  1  0.585028  0.249997  0.287996  1
  Si  Si363  1  0.584910  0.249992  0.354876  1
  Si  Si364  1  0.080516  0.249932  0.287934  1
  Si  Si365  1  0.334490  0.250116  0.222037  1
  Si  Si366  1  0.666456  0.437607  0.266692  1
  Si  Si367  1  0.918017  0.437436  0.200021  1
  Si  Si368  1  0.414652  0.437572  0.200150  1
  Si  Si369  1  0.917621  0.437598  0.266422  1
  Si  Si370  1  0.080622  0.375016  0.221760  1
  Si  Si371  1  0.334050  0.375249  0.354791  1
  Si  Si372  1  0.584287  0.375124  0.287774  1
  Si  Si373  1  0.584311  0.375091  0.354657  1
  Si  Si374  1  0.080679  0.375280  0.287828  1
  Si  Si375  1  0.334069  0.375047  0.221629  1
  Si  Si376  1  0.251282  0.499940  0.178540  1
  Si  Si377  1  0.000000  0.499931  0.178735  1
  Si  Si378  1  0.251041  0.499989  0.375896  1
  Si  Si379  1  0.333231  0.562496  0.221348  1
  Si  Si380  1  0.082294  0.562411  0.288033  1
  Si  Si381  1  0.584849  0.562372  0.354404  1
  Si  Si382  1  0.584607  0.562345  0.287999  1
  Si  Si383  1  0.333179  0.562456  0.354606  1
  Si  Si384  1  0.081882  0.562488  0.221528  1
  Si  Si385  1  0.919350  0.624750  0.266323  1
  Si  Si386  1  0.415579  0.625002  0.200314  1
  Si  Si387  1  0.919078  0.624866  0.200225  1
  Si  Si388  1  0.665903  0.624670  0.266431  1
  Si  Si389  1  0.748572  0.500077  0.309636  1
  Si  Si390  1  0.748637  0.500070  0.376011  1
  Si  Si391  1  -0.000000  0.500052  0.309382  1
  Si  Si392  1  0.335134  0.687409  0.221910  1
  Si  Si393  1  0.079465  0.687494  0.287548  1
  Si  Si394  1  0.584882  0.687425  0.354417  1
  Si  Si395  1  0.586659  0.687425  0.287738  1
  Si  Si396  1  0.334092  0.687531  0.354253  1
  Si  Si397  1  0.080808  0.687364  0.221637  1
  Si  Si398  1  0.334213  0.812670  0.221227  1
  Si  Si399  1  0.081294  0.812561  0.287469  1
  Si  Si400  1  0.584262  0.812539  0.354460  1
  Si  Si401  1  0.584017  0.812522  0.287503  1
  Si  Si402  1  0.334056  0.812535  0.354678  1
  Si  Si403  1  0.080658  0.812683  0.221339  1
  Si  Si404  1  0.918704  0.750168  0.265921  1
  Si  Si405  1  0.414739  0.749901  0.200211  1
  Si  Si406  1  0.919832  0.750004  0.200051  1
  Si  Si407  1  0.665504  0.750122  0.266174  1
  Si  Si408  1  0.333353  0.937652  0.221428  1
  Si  Si409  1  0.081883  0.937499  0.288013  1
  Si  Si410  1  0.584746  0.937660  0.354347  1
  Si  Si411  1  0.584990  0.937528  0.288012  1
  Si  Si412  1  0.333026  0.937783  0.354525  1
  Si  Si413  1  0.081931  0.937448  0.221566  1
  Si  Si414  1  0.919422  0.875060  0.266383  1
  Si  Si415  1  0.415986  0.875263  0.200334  1
  Si  Si416  1  0.918711  0.875153  0.200228  1
  Si  Si417  1  0.665999  0.875073  0.266523  1
  Si  Si418  1  0.748795  0.000000  0.309677  1
  Si  Si419  1  0.748701  0.000000  0.376035  1
  Si  Si420  1  0.000000  0.000000  0.309317  1
  Si  Si421  1  0.666637  0.062361  0.530603  1
  Si  Si422  1  0.917590  0.062471  0.463826  1
  Si  Si423  1  0.414938  0.062467  0.397559  1
  Si  Si424  1  0.415196  0.062358  0.463961  1
  Si  Si425  1  0.666492  0.062399  0.397297  1
  Si  Si426  1  0.917719  0.062536  0.530294  1
  Si  Si427  1  0.080821  0.124761  0.485648  1
  Si  Si428  1  0.584493  0.124892  0.551624  1
  Si  Si429  1  0.080595  0.124910  0.551678  1
  Si  Si430  1  0.334205  0.124747  0.485501  1
  Si  Si431  1  0.251015  0.000000  0.442256  1
  Si  Si432  1  0.000000  -0.000000  0.442550  1
  Si  Si433  1  0.665163  0.187425  0.530297  1
  Si  Si434  1  0.919989  0.187396  0.464289  1
  Si  Si435  1  0.415496  0.187508  0.397596  1
  Si  Si436  1  0.414179  0.187479  0.464338  1
  Si  Si437  1  0.665786  0.187423  0.397494  1
  Si  Si438  1  0.918740  0.187411  0.530188  1
  Si  Si439  1  0.665807  0.312575  0.530466  1
  Si  Si440  1  0.918482  0.312566  0.464394  1
  Si  Si441  1  0.414225  0.312608  0.397192  1
  Si  Si442  1  0.415712  0.312496  0.464307  1
  Si  Si443  1  0.665111  0.312627  0.397352  1
  Si  Si444  1  0.919879  0.312639  0.530642  1
  Si  Si445  1  0.080580  0.250105  0.485668  1
  Si  Si446  1  0.585028  0.249997  0.551749  1
  Si  Si447  1  0.080516  0.249932  0.551687  1
  Si  Si448  1  0.334490  0.250116  0.485790  1
  Si  Si449  1  0.666456  0.437607  0.530445  1
  Si  Si450  1  0.918017  0.437436  0.463774  1
  Si  Si451  1  0.414984  0.437719  0.397576  1
  Si  Si452  1  0.414652  0.437572  0.463903  1
  Si  Si453  1  0.666584  0.437623  0.397341  1
  Si  Si454  1  0.917621  0.437598  0.530175  1
  Si  Si455  1  0.080622  0.375016  0.485513  1
  Si  Si456  1  0.584287  0.375124  0.551527  1
  Si  Si457  1  0.080679  0.375280  0.551581  1
  Si  Si458  1  0.334069  0.375047  0.485382  1
  Si  Si459  1  0.251282  0.499940  0.442293  1
  Si  Si460  1  0.000000  0.499931  0.442488  1
  Si  Si461  1  0.333231  0.562496  0.485101  1
  Si  Si462  1  0.082294  0.562411  0.551786  1
  Si  Si463  1  0.584607  0.562345  0.551752  1
  Si  Si464  1  0.081882  0.562488  0.485281  1
  Si  Si465  1  0.919350  0.624750  0.530076  1
  Si  Si466  1  0.665409  0.624928  0.397068  1
  Si  Si467  1  0.415579  0.625002  0.464067  1
  Si  Si468  1  0.414922  0.625132  0.397093  1
  Si  Si469  1  0.919078  0.624866  0.463978  1
  Si  Si470  1  0.665903  0.624670  0.530185  1
  Si  Si471  1  0.748572  0.500077  0.573389  1
  Si  Si472  1  0.000000  0.500052  0.573135  1
  Si  Si473  1  0.335134  0.687409  0.485663  1
  Si  Si474  1  0.079465  0.687494  0.551301  1
  Si  Si475  1  0.586659  0.687425  0.551492  1
  Si  Si476  1  0.080808  0.687364  0.485390  1
  Si  Si477  1  0.334213  0.812670  0.484980  1
  Si  Si478  1  0.081294  0.812561  0.551222  1
  Si  Si479  1  0.584017  0.812522  0.551257  1
  Si  Si480  1  0.080658  0.812683  0.485093  1
  Si  Si481  1  0.918704  0.750168  0.529674  1
  Si  Si482  1  0.665628  0.749984  0.397037  1
  Si  Si483  1  0.414739  0.749901  0.463964  1
  Si  Si484  1  0.415571  0.749909  0.397181  1
  Si  Si485  1  0.919832  0.750004  0.463804  1
  Si  Si486  1  0.665504  0.750122  0.529927  1
  Si  Si487  1  0.333353  0.937652  0.485181  1
  Si  Si488  1  0.081883  0.937499  0.551766  1
  Si  Si489  1  0.584990  0.937528  0.551765  1
  Si  Si490  1  0.081931  0.937448  0.485319  1
  Si  Si491  1  0.919422  0.875060  0.530136  1
  Si  Si492  1  0.665292  0.875106  0.397007  1
  Si  Si493  1  0.415986  0.875263  0.464087  1
  Si  Si494  1  0.414914  0.875177  0.397078  1
  Si  Si495  1  0.918711  0.875153  0.463981  1
  Si  Si496  1  0.665999  0.875073  0.530276  1
  Si  Si497  1  0.748795  0.000000  0.573431  1
  Si  Si498  1  0.000000  0.000000  0.573070  1
  H  H499  1  0.786083  0.067919  0.149015  1
  H  H500  1  0.428222  0.067734  0.149412  1
  H  H501  1  0.793973  0.188701  0.147517  1
  H  H502  1  0.413238  0.188824  0.147669  1
  H  H503  1  0.792052  0.311451  0.147718  1
  H  H504  1  0.413670  0.311196  0.147491  1
  H  H505  1  0.786358  0.432058  0.149004  1
  H  H506  1  0.427513  0.432285  0.149321  1
  H  H507  1  0.881237  0.504766  0.124366  1
  H  H508  1  0.236251  0.504535  0.124047  1
  H  H509  1  0.793886  0.626584  0.147007  1
  H  H510  1  0.412317  0.626916  0.147111  1
  H  H511  1  0.794618  0.749920  0.146834  1
  H  H512  1  0.413606  0.748642  0.147281  1
  H  H513  1  0.881117  0.995162  0.124440  1
  H  H514  1  0.236190  0.995512  0.124027  1
  H  H515  1  0.793639  0.873448  0.146979  1
  H  H516  1  0.412653  0.873336  0.147132  1
  H  H517  1  0.118381  0.004868  0.627462  1
  H  H518  1  0.763769  0.004446  0.627920  1
  H  H519  1  0.205445  0.126578  0.604982  1
  H  H520  1  0.587128  0.126829  0.604740  1
  H  H521  1  0.206555  0.248835  0.604679  1
  H  H522  1  0.588492  0.249768  0.604988  1
  H  H523  1  0.118609  0.495166  0.627495  1
  H  H524  1  0.763309  0.495422  0.627848  1
  H  H525  1  0.205588  0.373619  0.604860  1
  H  H526  1  0.587100  0.373258  0.604671  1
  H  H527  1  0.213906  0.567825  0.602803  1
  H  H528  1  0.571797  0.567719  0.602584  1
  H  H529  1  0.205942  0.688860  0.604210  1
  H  H530  1  0.588116  0.688820  0.604476  1
  H  H531  1  0.207016  0.811195  0.604310  1
  H  H532  1  0.584147  0.811331  0.604069  1
  H  H533  1  0.213500  0.932210  0.602816  1
  H  H534  1  0.572070  0.932242  0.602584  1
