# generated using pymatgen
data_Si16H2O33
_symmetry_space_group_name_H-M   'P 1'
_cell_length_a   16.64856489
_cell_length_b   5.10304398
_cell_length_c   41.67283501
_cell_angle_alpha   90.00000000
_cell_angle_beta   90.00000000
_cell_angle_gamma   90.00000000
_symmetry_Int_Tables_number   1
_chemical_formula_structural   Si16H2O33
_chemical_formula_sum   'Si32 H4 O66'
_cell_volume   3540.45567024
_cell_formula_units_Z   2
loop_
 _symmetry_equiv_pos_site_id
 _symmetry_equiv_pos_as_xyz
  1  'x, y, z'
loop_
 _atom_site_type_symbol
 _atom_site_label
 _atom_site_symmetry_multiplicity
 _atom_site_fract_x
 _atom_site_fract_y
 _atom_site_fract_z
 _atom_site_occupancy
  O  O1  1  0.639722  0.229088  0.525750  1
  O  O2  1  0.139700  0.229033  0.287314  1
  O  O3  1  0.639697  0.770680  0.234285  1
  O  O4  1  0.139725  0.770767  0.472721  1
  O  O5  1  0.360188  0.770766  0.525752  1
  O  O6  1  0.860170  0.770679  0.287312  1
  O  O7  1  0.360167  0.229032  0.234284  1
  O  O8  1  0.860190  0.229086  0.472723  1
  O  O9  1  0.632832  0.728459  0.525120  1
  O  O10  1  0.132811  0.728406  0.286682  1
  O  O11  1  0.632813  0.271307  0.234914  1
  O  O12  1  0.132830  0.271395  0.473355  1
  O  O13  1  0.367081  0.271392  0.525119  1
  O  O14  1  0.867055  0.271308  0.286683  1
  O  O15  1  0.367057  0.728404  0.234917  1
  O  O16  1  0.867079  0.728459  0.473352  1
  O  O17  1  0.749953  0.496093  0.499234  1
  O  O18  1  0.249937  0.496030  0.260802  1
  O  O19  1  0.749937  0.503683  0.260796  1
  O  O20  1  0.249953  0.503759  0.499239  1
  O  O21  1  0.741394  0.493494  0.559509  1
  O  O22  1  0.241367  0.493443  0.321077  1
  O  O23  1  0.741367  0.506291  0.200522  1
  O  O24  1  0.241394  0.506336  0.438963  1
  O  O25  1  0.258523  0.506343  0.559514  1
  O  O26  1  0.758496  0.506284  0.321072  1
  O  O27  1  0.258496  0.493449  0.200526  1
  O  O28  1  0.758523  0.493487  0.438959  1
  O  O29  1  0.861809  0.215767  0.575039  1
  O  O30  1  0.361780  0.215689  0.336605  1
  O  O31  1  0.861785  0.784023  0.184995  1
  O  O32  1  0.361804  0.784084  0.423431  1
  O  O33  1  0.138112  0.784105  0.575042  1
  O  O34  1  0.638079  0.784004  0.336602  1
  O  O35  1  0.138085  0.215707  0.184994  1
  O  O36  1  0.638106  0.215748  0.423432  1
  O  O37  1  0.797710  0.499886  0.141579  1
  O  O38  1  0.297711  0.499896  0.380019  1
  O  O39  1  0.202179  0.499893  0.141582  1
  O  O40  1  0.702180  0.499890  0.380016  1
  O  O41  1  0.873991  0.711197  0.572185  1
  O  O42  1  0.373975  0.711118  0.333742  1
  O  O43  1  0.873970  0.288594  0.187853  1
  O  O44  1  0.373996  0.288654  0.426291  1
  O  O45  1  0.125914  0.288675  0.572180  1
  O  O46  1  0.625900  0.288574  0.333748  1
  O  O47  1  0.125895  0.711137  0.187854  1
  O  O48  1  0.625919  0.711178  0.426291  1
  O  O49  1  0.000000  -0.000000  0.566711  1
  O  O50  1  0.499933  -0.000000  0.328273  1
  O  O51  1  -0.000000  -0.000000  0.193325  1
  O  O52  1  0.499955  -0.000000  0.431762  1
  O  O53  1  0.896347  0.989985  0.522938  1
  O  O54  1  0.396324  0.989960  0.284500  1
  O  O55  1  0.896326  0.009785  0.237098  1
  O  O56  1  0.396345  0.009833  0.475535  1
  O  O57  1  0.103565  0.009831  0.522938  1
  O  O58  1  0.603543  0.009788  0.284500  1
  O  O59  1  0.103545  0.989958  0.237097  1
  O  O60  1  0.603563  0.989989  0.475535  1
  O  O61  1  -0.000000  -0.000000  0.479211  1
  O  O62  1  0.499934  -0.000000  0.240774  1
  O  O63  1  -0.000000  -0.000000  0.280824  1
  O  O64  1  0.499955  -0.000000  0.519262  1
  O  O65  1  0.797710  0.499886  0.618454  1
  O  O66  1  0.202179  0.499893  0.618456  1
  Si  Si67  1  0.690126  0.486511  0.527950  1
  Si  Si68  1  0.190104  0.486457  0.289517  1
  Si  Si69  1  0.690103  0.513262  0.232082  1
  Si  Si70  1  0.190127  0.513336  0.470522  1
  Si  Si71  1  0.309786  0.513336  0.527954  1
  Si  Si72  1  0.809763  0.513261  0.289513  1
  Si  Si73  1  0.309763  0.486457  0.232085  1
  Si  Si74  1  0.809787  0.486510  0.470519  1
  Si  Si75  1  0.817298  0.479689  0.581667  1
  Si  Si76  1  0.317278  0.479634  0.343231  1
  Si  Si77  1  0.817278  0.520096  0.178367  1
  Si  Si78  1  0.317298  0.520146  0.416806  1
  Si  Si79  1  0.182611  0.520156  0.581668  1
  Si  Si80  1  0.682592  0.520086  0.343230  1
  Si  Si81  1  0.182592  0.479644  0.178368  1
  Si  Si82  1  0.682612  0.479679  0.416805  1
  Si  Si83  1  0.907566  0.978994  0.560003  1
  Si  Si84  1  0.407543  0.978938  0.321565  1
  Si  Si85  1  0.907544  0.020790  0.200033  1
  Si  Si86  1  0.407565  0.020841  0.438470  1
  Si  Si87  1  0.092347  0.020852  0.560003  1
  Si  Si88  1  0.592324  0.020780  0.321565  1
  Si  Si89  1  0.092325  0.978948  0.200033  1
  Si  Si90  1  0.592346  0.978984  0.438471  1
  Si  Si91  1  0.907182  0.986426  0.485785  1
  Si  Si92  1  0.407160  0.986377  0.247348  1
  Si  Si93  1  0.907161  0.013344  0.274250  1
  Si  Si94  1  0.407181  0.013417  0.512688  1
  Si  Si95  1  0.092730  0.013416  0.485785  1
  Si  Si96  1  0.592708  0.013345  0.247348  1
  Si  Si97  1  0.092709  0.986376  0.274250  1
  Si  Si98  1  0.592729  0.986428  0.512688  1
  H  H99  1  0.797710  0.499886  0.119982  1
  H  H100  1  0.202179  0.499893  0.119985  1
  H  H101  1  0.797710  0.499886  0.640050  1
  H  H102  1  0.202179  0.499893  0.640053  1
