# generated using pymatgen
data_Si32H2O65
_symmetry_space_group_name_H-M   'P 1'
_cell_length_a   16.64856489
_cell_length_b   5.10304398
_cell_length_c   61.54555078
_cell_angle_alpha   90.00000000
_cell_angle_beta   90.00000000
_cell_angle_gamma   90.00000000
_symmetry_Int_Tables_number   1
_chemical_formula_structural   Si32H2O65
_chemical_formula_sum   'Si64 H4 O130'
_cell_volume   5228.80898771
_cell_formula_units_Z   2
loop_
 _symmetry_equiv_pos_site_id
 _symmetry_equiv_pos_as_xyz
  1  'x, y, z'
loop_
 _atom_site_type_symbol
 _atom_site_label
 _atom_site_symmetry_multiplicity
 _atom_site_fract_x
 _atom_site_fract_y
 _atom_site_fract_z
 _atom_site_occupancy
  O  O1  1  0.639722  0.229088  0.355988  1
  O  O2  1  0.139700  0.229033  0.194542  1
  O  O3  1  0.639697  0.770680  0.158636  1
  O  O4  1  0.139725  0.770767  0.320082  1
  O  O5  1  0.360188  0.770766  0.355990  1
  O  O6  1  0.860170  0.770679  0.194540  1
  O  O7  1  0.360167  0.229032  0.158635  1
  O  O8  1  0.860190  0.229086  0.320083  1
  O  O9  1  0.632832  0.728459  0.355561  1
  O  O10  1  0.132811  0.728406  0.194114  1
  O  O11  1  0.632813  0.271307  0.159062  1
  O  O12  1  0.132830  0.271395  0.320511  1
  O  O13  1  0.367081  0.271392  0.355561  1
  O  O14  1  0.867055  0.271308  0.194115  1
  O  O15  1  0.367057  0.728404  0.159063  1
  O  O16  1  0.867079  0.728459  0.320509  1
  O  O17  1  0.749953  0.496093  0.338034  1
  O  O18  1  0.249937  0.496030  0.176590  1
  O  O19  1  0.749937  0.503683  0.176587  1
  O  O20  1  0.249953  0.503759  0.338038  1
  O  O21  1  0.741394  0.493494  0.378847  1
  O  O22  1  0.241367  0.493443  0.217403  1
  O  O23  1  0.741367  0.506291  0.135774  1
  O  O24  1  0.241394  0.506336  0.297224  1
  O  O25  1  0.258523  0.506343  0.378850  1
  O  O26  1  0.758496  0.506284  0.217399  1
  O  O27  1  0.258496  0.493449  0.135777  1
  O  O28  1  0.758523  0.493487  0.297222  1
  O  O29  1  0.861809  0.215767  0.389362  1
  O  O30  1  0.361780  0.215689  0.227917  1
  O  O31  1  0.861785  0.784023  0.125261  1
  O  O32  1  0.361804  0.784084  0.286707  1
  O  O33  1  0.138112  0.784105  0.389364  1
  O  O34  1  0.638079  0.784004  0.227915  1
  O  O35  1  0.138085  0.215707  0.125260  1
  O  O36  1  0.638106  0.215748  0.286708  1
  O  O37  1  0.797710  0.499886  0.095864  1
  O  O38  1  0.297711  0.499896  0.257313  1
  O  O39  1  0.202179  0.499893  0.095866  1
  O  O40  1  0.702180  0.499890  0.257311  1
  O  O41  1  0.873991  0.711197  0.387430  1
  O  O42  1  0.373975  0.711118  0.225979  1
  O  O43  1  0.873970  0.288594  0.127196  1
  O  O44  1  0.373996  0.288654  0.288644  1
  O  O45  1  0.125914  0.288675  0.387426  1
  O  O46  1  0.625900  0.288574  0.225982  1
  O  O47  1  0.125895  0.711137  0.127197  1
  O  O48  1  0.625919  0.711178  0.288644  1
  O  O49  1  0.000000  0.000000  0.383723  1
  O  O50  1  0.499933  -0.000000  0.222276  1
  O  O51  1  -0.000000  -0.000000  0.130901  1
  O  O52  1  0.499955  0.000000  0.292348  1
  O  O53  1  0.896347  0.989985  0.354084  1
  O  O54  1  0.396324  0.989960  0.192637  1
  O  O55  1  0.896326  0.009785  0.160540  1
  O  O56  1  0.396345  0.009833  0.321987  1
  O  O57  1  0.103565  0.009831  0.354084  1
  O  O58  1  0.603543  0.009788  0.192637  1
  O  O59  1  0.103545  0.989958  0.160540  1
  O  O60  1  0.603563  0.989989  0.321988  1
  O  O61  1  -0.000000  -0.000000  0.324476  1
  O  O62  1  0.499934  0.000000  0.163029  1
  O  O63  1  0.000000  0.000000  0.190148  1
  O  O64  1  0.499955  0.000000  0.351595  1
  O  O65  1  0.639722  0.229088  0.678882  1
  O  O66  1  0.139700  0.229033  0.517437  1
  O  O67  1  0.639697  0.770680  0.481530  1
  O  O68  1  0.139725  0.770767  0.642977  1
  O  O69  1  0.360188  0.770766  0.678884  1
  O  O70  1  0.860170  0.770679  0.517435  1
  O  O71  1  0.360167  0.229032  0.481530  1
  O  O72  1  0.860190  0.229086  0.642978  1
  O  O73  1  0.632832  0.728459  0.678456  1
  O  O74  1  0.132811  0.728406  0.517009  1
  O  O75  1  0.632813  0.271307  0.481956  1
  O  O76  1  0.132830  0.271395  0.643405  1
  O  O77  1  0.367081  0.271392  0.678456  1
  O  O78  1  0.867055  0.271308  0.517009  1
  O  O79  1  0.367057  0.728404  0.481958  1
  O  O80  1  0.867079  0.728459  0.643404  1
  O  O81  1  0.749953  0.496093  0.660928  1
  O  O82  1  0.249937  0.496030  0.499485  1
  O  O83  1  0.749937  0.503683  0.499481  1
  O  O84  1  0.249953  0.503759  0.660932  1
  O  O85  1  0.741394  0.493494  0.701741  1
  O  O86  1  0.241367  0.493443  0.540297  1
  O  O87  1  0.741367  0.506291  0.458669  1
  O  O88  1  0.241394  0.506336  0.620119  1
  O  O89  1  0.258523  0.506343  0.701744  1
  O  O90  1  0.758496  0.506284  0.540294  1
  O  O91  1  0.258496  0.493449  0.458672  1
  O  O92  1  0.758523  0.493487  0.620116  1
  O  O93  1  0.861809  0.215767  0.712257  1
  O  O94  1  0.361780  0.215689  0.550812  1
  O  O95  1  0.861785  0.784023  0.448156  1
  O  O96  1  0.361804  0.784084  0.609602  1
  O  O97  1  0.138112  0.784105  0.712259  1
  O  O98  1  0.638079  0.784004  0.550810  1
  O  O99  1  0.138085  0.215707  0.448155  1
  O  O100  1  0.638106  0.215748  0.609603  1
  O  O101  1  0.797710  0.499886  0.418758  1
  O  O102  1  0.297711  0.499896  0.580208  1
  O  O103  1  0.202179  0.499893  0.418760  1
  O  O104  1  0.702180  0.499890  0.580206  1
  O  O105  1  0.873991  0.711197  0.710324  1
  O  O106  1  0.373975  0.711118  0.548873  1
  O  O107  1  0.873970  0.288594  0.450091  1
  O  O108  1  0.373996  0.288654  0.611538  1
  O  O109  1  0.125914  0.288675  0.710320  1
  O  O110  1  0.625900  0.288574  0.548877  1
  O  O111  1  0.125895  0.711137  0.450091  1
  O  O112  1  0.625919  0.711178  0.611538  1
  O  O113  1  -0.000000  -0.000000  0.706617  1
  O  O114  1  0.499933  -0.000000  0.545170  1
  O  O115  1  0.000000  0.000000  0.453796  1
  O  O116  1  0.499955  0.000000  0.615243  1
  O  O117  1  0.896347  0.989985  0.676978  1
  O  O118  1  0.396324  0.989960  0.515531  1
  O  O119  1  0.896326  0.009785  0.483435  1
  O  O120  1  0.396345  0.009833  0.644882  1
  O  O121  1  0.103565  0.009831  0.676978  1
  O  O122  1  0.603543  0.009788  0.515531  1
  O  O123  1  0.103545  0.989958  0.483434  1
  O  O124  1  0.603563  0.989989  0.644882  1
  O  O125  1  -0.000000  -0.000000  0.647371  1
  O  O126  1  0.499934  -0.000000  0.485924  1
  O  O127  1  0.000000  -0.000000  0.513042  1
  O  O128  1  0.499955  0.000000  0.674489  1
  O  O129  1  0.797710  0.499886  0.741653  1
  O  O130  1  0.202179  0.499893  0.741655  1
  Si  Si131  1  0.690126  0.486511  0.357478  1
  Si  Si132  1  0.190104  0.486457  0.196033  1
  Si  Si133  1  0.690103  0.513262  0.157144  1
  Si  Si134  1  0.190127  0.513336  0.318593  1
  Si  Si135  1  0.309786  0.513336  0.357480  1
  Si  Si136  1  0.809763  0.513261  0.196031  1
  Si  Si137  1  0.309763  0.486457  0.157146  1
  Si  Si138  1  0.809787  0.486510  0.318591  1
  Si  Si139  1  0.817298  0.479689  0.393850  1
  Si  Si140  1  0.317278  0.479634  0.232404  1
  Si  Si141  1  0.817278  0.520096  0.120773  1
  Si  Si142  1  0.317298  0.520146  0.282222  1
  Si  Si143  1  0.182611  0.520156  0.393851  1
  Si  Si144  1  0.682592  0.520086  0.232403  1
  Si  Si145  1  0.182592  0.479644  0.120774  1
  Si  Si146  1  0.682612  0.479679  0.282221  1
  Si  Si147  1  0.907566  0.978994  0.379181  1
  Si  Si148  1  0.407543  0.978938  0.217734  1
  Si  Si149  1  0.907544  0.020790  0.135443  1
  Si  Si150  1  0.407565  0.020841  0.296891  1
  Si  Si151  1  0.092347  0.020852  0.379181  1
  Si  Si152  1  0.592324  0.020780  0.217734  1
  Si  Si153  1  0.092325  0.978948  0.135443  1
  Si  Si154  1  0.592346  0.978984  0.296891  1
  Si  Si155  1  0.907182  0.986426  0.328928  1
  Si  Si156  1  0.407160  0.986377  0.167481  1
  Si  Si157  1  0.907161  0.013344  0.185696  1
  Si  Si158  1  0.407181  0.013417  0.347144  1
  Si  Si159  1  0.092730  0.013416  0.328928  1
  Si  Si160  1  0.592708  0.013345  0.167481  1
  Si  Si161  1  0.092709  0.986376  0.185696  1
  Si  Si162  1  0.592729  0.986428  0.347144  1
  Si  Si163  1  0.690126  0.486511  0.680373  1
  Si  Si164  1  0.190104  0.486457  0.518928  1
  Si  Si165  1  0.690103  0.513262  0.480038  1
  Si  Si166  1  0.190127  0.513336  0.641488  1
  Si  Si167  1  0.309786  0.513336  0.680375  1
  Si  Si168  1  0.809763  0.513261  0.518925  1
  Si  Si169  1  0.309763  0.486457  0.480041  1
  Si  Si170  1  0.809787  0.486510  0.641485  1
  Si  Si171  1  0.817298  0.479689  0.716744  1
  Si  Si172  1  0.317278  0.479634  0.555298  1
  Si  Si173  1  0.817278  0.520096  0.443668  1
  Si  Si174  1  0.317298  0.520146  0.605116  1
  Si  Si175  1  0.182611  0.520156  0.716745  1
  Si  Si176  1  0.682592  0.520086  0.555297  1
  Si  Si177  1  0.182592  0.479644  0.443669  1
  Si  Si178  1  0.682612  0.479679  0.605115  1
  Si  Si179  1  0.907566  0.978994  0.702075  1
  Si  Si180  1  0.407543  0.978938  0.540628  1
  Si  Si181  1  0.907544  0.020790  0.458338  1
  Si  Si182  1  0.407565  0.020841  0.619785  1
  Si  Si183  1  0.092347  0.020852  0.702075  1
  Si  Si184  1  0.592324  0.020780  0.540628  1
  Si  Si185  1  0.092325  0.978948  0.458338  1
  Si  Si186  1  0.592346  0.978984  0.619785  1
  Si  Si187  1  0.907182  0.986426  0.651822  1
  Si  Si188  1  0.407160  0.986377  0.490375  1
  Si  Si189  1  0.907161  0.013344  0.508591  1
  Si  Si190  1  0.407181  0.013417  0.670038  1
  Si  Si191  1  0.092730  0.013416  0.651822  1
  Si  Si192  1  0.592708  0.013345  0.490375  1
  Si  Si193  1  0.092709  0.986376  0.508591  1
  Si  Si194  1  0.592729  0.986428  0.670038  1
  H  H195  1  0.797710  0.499886  0.081241  1
  H  H196  1  0.202179  0.499893  0.081243  1
  H  H197  1  0.797710  0.499886  0.756276  1
  H  H198  1  0.202179  0.499893  0.756278  1
