# generated using pymatgen
data_Si4H2O9
_symmetry_space_group_name_H-M   'P 1'
_cell_length_a   13.59359586
_cell_length_b   16.71047662
_cell_length_c   40.14718038
_cell_angle_alpha   54.43716989
_cell_angle_beta   90.00000000
_cell_angle_gamma   65.99984482
_symmetry_Int_Tables_number   1
_chemical_formula_structural   Si4H2O9
_chemical_formula_sum   'Si24 H12 O54'
_cell_volume   6424.72894383
_cell_formula_units_Z   6
loop_
 _symmetry_equiv_pos_site_id
 _symmetry_equiv_pos_as_xyz
  1  'x, y, z'
loop_
 _atom_site_type_symbol
 _atom_site_label
 _atom_site_symmetry_multiplicity
 _atom_site_fract_x
 _atom_site_fract_y
 _atom_site_fract_z
 _atom_site_occupancy
  O  O1  1  0.638321  0.001887  0.338447  1
  O  O2  1  0.361371  0.001851  0.338454  1
  O  O3  1  0.638336  0.001775  0.217433  1
  O  O4  1  0.361387  0.001736  0.217445  1
  O  O5  1  0.132713  0.435472  0.251247  1
  O  O6  1  0.433433  0.134654  0.324049  1
  O  O7  1  0.433506  0.435440  0.251275  1
  O  O8  1  0.566284  0.868971  0.267326  1
  O  O9  1  0.132715  0.435401  0.336839  1
  O  O10  1  0.433502  0.435361  0.336868  1
  O  O11  1  0.000000  0.640359  0.183916  1
  O  O12  1  0.638416  0.363329  0.251010  1
  O  O13  1  0.361451  0.640217  0.305021  1
  O  O14  1  0.000000  0.363414  0.250958  1
  O  O15  1  0.361468  0.640313  0.183957  1
  O  O16  1  0.000000  0.640288  0.304972  1
  O  O17  1  0.081368  0.588015  0.257110  1
  O  O18  1  0.586075  0.334133  0.318588  1
  O  O19  1  0.667506  0.920365  0.297666  1
  O  O20  1  0.081359  0.334220  0.318542  1
  O  O21  1  0.332282  0.587976  0.257142  1
  O  O22  1  0.413711  0.920315  0.297682  1
  O  O23  1  0.216695  0.568296  0.215198  1
  O  O24  1  0.216648  0.218653  0.299813  1
  O  O25  1  0.566264  0.218655  0.299823  1
  O  O26  1  0.783098  0.785013  0.283748  1
  O  O27  1  0.433525  0.784928  0.283781  1
  O  O28  1  0.216688  0.568218  0.308608  1
  O  O29  1  0.638336  0.001775  0.459510  1
  O  O30  1  0.361387  0.001736  0.459523  1
  O  O31  1  0.867071  0.568223  0.340149  1
  O  O32  1  0.566351  0.568113  0.340197  1
  O  O33  1  0.867075  0.568292  0.425707  1
  O  O34  1  0.566281  0.869053  0.352879  1
  O  O35  1  0.566355  0.568194  0.425751  1
  O  O36  1  0.433435  0.134570  0.409642  1
  O  O37  1  0.000000  0.640359  0.425994  1
  O  O38  1  0.638416  0.363329  0.493088  1
  O  O39  1  0.000000  0.363345  0.372013  1
  O  O40  1  0.000000  0.363414  0.493036  1
  O  O41  1  0.361468  0.640313  0.426034  1
  O  O42  1  0.638398  0.363231  0.372070  1
  O  O43  1  0.332195  0.083269  0.379270  1
  O  O44  1  0.918429  0.415686  0.419865  1
  O  O45  1  0.413788  0.669404  0.358466  1
  O  O46  1  0.585999  0.083299  0.379265  1
  O  O47  1  0.918418  0.669490  0.358419  1
  O  O48  1  0.667591  0.415571  0.419915  1
  O  O49  1  0.783132  0.435327  0.368425  1
  O  O50  1  0.783140  0.435407  0.461797  1
  O  O51  1  0.783093  0.785097  0.377119  1
  O  O52  1  0.433524  0.785025  0.377152  1
  O  O53  1  0.216654  0.218566  0.393226  1
  O  O54  1  0.566260  0.218560  0.393240  1
  Si  Si55  1  0.106708  0.561661  0.225141  1
  Si  Si56  1  0.333249  0.108649  0.334782  1
  Si  Si57  1  0.559682  0.335230  0.279973  1
  Si  Si58  1  0.666465  0.894980  0.265467  1
  Si  Si59  1  0.440175  0.668321  0.320380  1
  Si  Si60  1  0.559614  0.108673  0.334777  1
  Si  Si61  1  0.106709  0.335286  0.279938  1
  Si  Si62  1  0.333321  0.561625  0.225171  1
  Si  Si63  1  0.440105  0.894947  0.265477  1
  Si  Si64  1  0.893074  0.668411  0.320334  1
  Si  Si65  1  0.106712  0.561592  0.301852  1
  Si  Si66  1  0.333321  0.561552  0.301883  1
  Si  Si67  1  0.893081  0.442033  0.375139  1
  Si  Si68  1  0.666539  0.441928  0.375185  1
  Si  Si69  1  0.893080  0.442101  0.451816  1
  Si  Si70  1  0.666468  0.895052  0.342143  1
  Si  Si71  1  0.440175  0.668393  0.397056  1
  Si  Si72  1  0.333247  0.108574  0.411494  1
  Si  Si73  1  0.559681  0.335159  0.356685  1
  Si  Si74  1  0.440106  0.895018  0.342154  1
  Si  Si75  1  0.893080  0.668476  0.397013  1
  Si  Si76  1  0.666539  0.442004  0.451861  1
  Si  Si77  1  0.559611  0.108603  0.411487  1
  Si  Si78  1  0.106706  0.335220  0.356648  1
  H  H79  1  0.638336  0.001775  0.195015  1
  H  H80  1  0.361387  0.001736  0.195028  1
  H  H81  1  0.000000  0.640359  0.161498  1
  H  H82  1  0.638416  0.363329  0.228592  1
  H  H83  1  0.000000  0.363414  0.228541  1
  H  H84  1  0.361468  0.640313  0.161539  1
  H  H85  1  0.638336  0.001775  0.481928  1
  H  H86  1  0.361387  0.001736  0.481940  1
  H  H87  1  0.000000  0.640359  0.448411  1
  H  H88  1  0.638416  0.363329  0.515505  1
  H  H89  1  0.000000  0.363414  0.515453  1
  H  H90  1  0.361468  0.640313  0.448452  1
