# generated using pymatgen
data_Si18H2O37
_symmetry_space_group_name_H-M   'P 1'
_cell_length_a   17.61808445
_cell_length_b   7.36787762
_cell_length_c   39.26504212
_cell_angle_alpha   90.00000000
_cell_angle_beta   90.00000000
_cell_angle_gamma   116.10400000
_symmetry_Int_Tables_number   1
_chemical_formula_structural   Si18H2O37
_chemical_formula_sum   'Si36 H4 O74'
_cell_volume   4577.01121697
_cell_formula_units_Z   2
loop_
 _symmetry_equiv_pos_site_id
 _symmetry_equiv_pos_as_xyz
  1  'x, y, z'
loop_
 _atom_site_type_symbol
 _atom_site_label
 _atom_site_symmetry_multiplicity
 _atom_site_fract_x
 _atom_site_fract_y
 _atom_site_fract_z
 _atom_site_occupancy
  O  O1  1  0.918371  0.961366  0.516908  1
  O  O2  1  0.418306  0.961512  0.294492  1
  O  O3  1  0.081543  0.038244  0.516880  1
  O  O4  1  0.581487  0.038376  0.294510  1
  O  O5  1  0.081444  0.038453  0.228424  1
  O  O6  1  0.581663  0.038030  0.450791  1
  O  O7  1  0.918264  0.961578  0.228427  1
  O  O8  1  0.418480  0.961140  0.450844  1
  O  O9  1  0.772594  0.730720  0.546651  1
  O  O10  1  0.272557  0.730947  0.324240  1
  O  O11  1  0.227345  0.268742  0.546636  1
  O  O12  1  0.727297  0.268933  0.324248  1
  O  O13  1  0.227245  0.268912  0.198698  1
  O  O14  1  0.727459  0.268698  0.421038  1
  O  O15  1  0.772507  0.730908  0.198666  1
  O  O16  1  0.272710  0.730727  0.421110  1
  O  O17  1  0.807517  0.101731  0.524329  1
  O  O18  1  0.307439  0.101863  0.301942  1
  O  O19  1  0.192386  0.897751  0.524348  1
  O  O20  1  0.692314  0.897897  0.301945  1
  O  O21  1  0.192269  0.897910  0.220988  1
  O  O22  1  0.692499  0.897676  0.443361  1
  O  O23  1  0.807395  0.101860  0.220977  1
  O  O24  1  0.307632  0.101641  0.443391  1
  O  O25  1  0.779146  0.809883  0.485085  1
  O  O26  1  0.279092  0.810237  0.262674  1
  O  O27  1  0.220763  0.189276  0.485071  1
  O  O28  1  0.720712  0.189628  0.262698  1
  O  O29  1  0.220654  0.189555  0.260257  1
  O  O30  1  0.720852  0.189477  0.482607  1
  O  O31  1  0.779036  0.810150  0.260229  1
  O  O32  1  0.279236  0.810089  0.482670  1
  O  O33  1  0.872262  0.550337  0.431320  1
  O  O34  1  0.372070  0.550531  0.208951  1
  O  O35  1  0.127837  0.449224  0.431332  1
  O  O36  1  0.627652  0.449423  0.208911  1
  O  O37  1  0.127693  0.449490  0.314017  1
  O  O38  1  0.627775  0.449180  0.536384  1
  O  O39  1  0.872110  0.550585  0.313972  1
  O  O40  1  0.372190  0.550290  0.536393  1
  O  O41  1  0.797960  0.531285  0.372649  1
  O  O42  1  0.297922  0.531001  0.150273  1
  O  O43  1  0.202019  0.468813  0.372671  1
  O  O44  1  0.701987  0.468556  0.150261  1
  O  O45  1  0.743792  0.621634  0.428885  1
  O  O46  1  0.243629  0.621978  0.206458  1
  O  O47  1  0.256215  0.377517  0.428849  1
  O  O48  1  0.756055  0.377822  0.206490  1
  O  O49  1  0.256070  0.377790  0.316463  1
  O  O50  1  0.756210  0.377693  0.538825  1
  O  O51  1  0.743645  0.621928  0.316441  1
  O  O52  1  0.243775  0.621851  0.538870  1
  O  O53  1  0.871578  0.446035  0.492399  1
  O  O54  1  0.371377  0.446199  0.270024  1
  O  O55  1  0.128508  0.553447  0.492416  1
  O  O56  1  0.628304  0.553595  0.270005  1
  O  O57  1  0.128365  0.553624  0.252924  1
  O  O58  1  0.628420  0.553327  0.475308  1
  O  O59  1  0.871434  0.446215  0.252905  1
  O  O60  1  0.371495  0.445951  0.475308  1
  O  O61  1  0.000000  0.500164  0.455747  1
  O  O62  1  0.499800  0.499684  0.233355  1
  O  O63  1  0.000000  0.500074  0.289571  1
  O  O64  1  0.499864  0.499160  0.511967  1
  O  O65  1  0.976373  0.804788  0.473457  1
  O  O66  1  0.476344  0.804709  0.251084  1
  O  O67  1  0.023516  0.195081  0.473468  1
  O  O68  1  0.523505  0.194995  0.251058  1
  O  O69  1  0.023462  0.195146  0.271873  1
  O  O70  1  0.523657  0.194590  0.494253  1
  O  O71  1  0.976306  0.804858  0.271838  1
  O  O72  1  0.476504  0.804302  0.494238  1
  O  O73  1  0.297922  0.531001  0.595060  1
  O  O74  1  0.701987  0.468556  0.595047  1
  Si  Si75  1  0.821110  0.905103  0.520197  1
  Si  Si76  1  0.321055  0.905284  0.297783  1
  Si  Si77  1  0.178785  0.094372  0.520186  1
  Si  Si78  1  0.678733  0.094539  0.297807  1
  Si  Si79  1  0.178684  0.094538  0.225139  1
  Si  Si80  1  0.678922  0.094324  0.447489  1
  Si  Si81  1  0.821010  0.905270  0.225120  1
  Si  Si82  1  0.321245  0.905064  0.447560  1
  Si  Si83  1  0.786775  0.497005  0.412000  1
  Si  Si84  1  0.286590  0.497114  0.189624  1
  Si  Si85  1  0.213334  0.502570  0.412022  1
  Si  Si86  1  0.713158  0.502670  0.189609  1
  Si  Si87  1  0.213198  0.502762  0.333320  1
  Si  Si88  1  0.713263  0.502471  0.555697  1
  Si  Si89  1  0.786630  0.497195  0.333299  1
  Si  Si90  1  0.286698  0.496949  0.555710  1
  Si  Si91  1  0.790834  0.282337  0.510681  1
  Si  Si92  1  0.290675  0.282411  0.288315  1
  Si  Si93  1  0.209183  0.717240  0.510721  1
  Si  Si94  1  0.709031  0.717319  0.288299  1
  Si  Si95  1  0.209051  0.717388  0.234610  1
  Si  Si96  1  0.709152  0.717019  0.457015  1
  Si  Si97  1  0.790695  0.282461  0.234625  1
  Si  Si98  1  0.290804  0.282127  0.457006  1
  Si  Si99  1  0.931198  0.576165  0.462860  1
  Si  Si100  1  0.431022  0.576148  0.240478  1
  Si  Si101  1  0.068882  0.423645  0.462858  1
  Si  Si102  1  0.568703  0.423576  0.240453  1
  Si  Si103  1  0.068752  0.423736  0.282476  1
  Si  Si104  1  0.568803  0.423189  0.504849  1
  Si  Si105  1  0.931066  0.576291  0.282444  1
  Si  Si106  1  0.431122  0.575768  0.504860  1
  Si  Si107  1  0.000000  -0.000000  0.495615  1
  Si  Si108  1  0.499903  -0.000000  0.273219  1
  Si  Si109  1  0.003819  -0.000000  0.249707  1
  Si  Si110  1  0.500094  -0.000000  0.472098  1
  H  H111  1  0.297922  0.531001  0.127352  1
  H  H112  1  0.701987  0.468556  0.127340  1
  H  H113  1  0.297922  0.531001  0.617981  1
  H  H114  1  0.701987  0.468556  0.617968  1
