# generated using pymatgen
data_Si54H2O109
_symmetry_space_group_name_H-M   'P 1'
_cell_length_a   17.61808445
_cell_length_b   7.36787762
_cell_length_c   74.19414834
_cell_angle_alpha   90.00000000
_cell_angle_beta   90.00000000
_cell_angle_gamma   116.10400000
_symmetry_Int_Tables_number   1
_chemical_formula_structural   Si54H2O109
_chemical_formula_sum   'Si108 H4 O218'
_cell_volume   8648.5950571
_cell_formula_units_Z   2
loop_
 _symmetry_equiv_pos_site_id
 _symmetry_equiv_pos_as_xyz
  1  'x, y, z'
loop_
 _atom_site_type_symbol
 _atom_site_label
 _atom_site_symmetry_multiplicity
 _atom_site_fract_x
 _atom_site_fract_y
 _atom_site_fract_z
 _atom_site_occupancy
  O  O1  1  0.918371  0.961366  0.273558  1
  O  O2  1  0.418306  0.961512  0.155851  1
  O  O3  1  0.081543  0.038244  0.273544  1
  O  O4  1  0.581487  0.038376  0.155861  1
  O  O5  1  0.081444  0.038453  0.120887  1
  O  O6  1  0.581663  0.038030  0.238568  1
  O  O7  1  0.918264  0.961578  0.120888  1
  O  O8  1  0.418480  0.961140  0.238596  1
  O  O9  1  0.772594  0.730720  0.289299  1
  O  O10  1  0.272557  0.730947  0.171594  1
  O  O11  1  0.227345  0.268742  0.289291  1
  O  O12  1  0.727297  0.268933  0.171599  1
  O  O13  1  0.227245  0.268912  0.105155  1
  O  O14  1  0.727459  0.268698  0.222822  1
  O  O15  1  0.772507  0.730908  0.105138  1
  O  O16  1  0.272710  0.730727  0.222860  1
  O  O17  1  0.807517  0.101731  0.277486  1
  O  O18  1  0.307439  0.101863  0.159794  1
  O  O19  1  0.192386  0.897751  0.277496  1
  O  O20  1  0.692314  0.897897  0.159796  1
  O  O21  1  0.192269  0.897910  0.116951  1
  O  O22  1  0.692499  0.897676  0.234636  1
  O  O23  1  0.807395  0.101860  0.116946  1
  O  O24  1  0.307632  0.101641  0.234651  1
  O  O25  1  0.779146  0.809883  0.256717  1
  O  O26  1  0.279092  0.810237  0.139012  1
  O  O27  1  0.220763  0.189276  0.256709  1
  O  O28  1  0.720712  0.189628  0.139025  1
  O  O29  1  0.220654  0.189555  0.137733  1
  O  O30  1  0.720852  0.189477  0.255405  1
  O  O31  1  0.779036  0.810150  0.137719  1
  O  O32  1  0.279236  0.810089  0.255439  1
  O  O33  1  0.872262  0.550337  0.228263  1
  O  O34  1  0.372070  0.550531  0.110581  1
  O  O35  1  0.127837  0.449224  0.228270  1
  O  O36  1  0.627652  0.449423  0.110560  1
  O  O37  1  0.127693  0.449490  0.166184  1
  O  O38  1  0.627775  0.449180  0.283865  1
  O  O39  1  0.872110  0.550585  0.166161  1
  O  O40  1  0.372190  0.550290  0.283870  1
  O  O41  1  0.797960  0.531285  0.197213  1
  O  O42  1  0.297922  0.531001  0.079528  1
  O  O43  1  0.202019  0.468813  0.197225  1
  O  O44  1  0.701987  0.468556  0.079521  1
  O  O45  1  0.743792  0.621634  0.226975  1
  O  O46  1  0.243629  0.621978  0.109262  1
  O  O47  1  0.256215  0.377517  0.226956  1
  O  O48  1  0.756055  0.377822  0.109279  1
  O  O49  1  0.256070  0.377790  0.167479  1
  O  O50  1  0.756210  0.377693  0.285157  1
  O  O51  1  0.743645  0.621928  0.167467  1
  O  O52  1  0.243775  0.621851  0.285181  1
  O  O53  1  0.871578  0.446035  0.260587  1
  O  O54  1  0.371377  0.446199  0.142902  1
  O  O55  1  0.128508  0.553447  0.260596  1
  O  O56  1  0.628304  0.553595  0.142892  1
  O  O57  1  0.128365  0.553624  0.133853  1
  O  O58  1  0.628420  0.553327  0.251543  1
  O  O59  1  0.871434  0.446215  0.133842  1
  O  O60  1  0.371495  0.445951  0.251542  1
  O  O61  1  0.000000  0.500164  0.241191  1
  O  O62  1  0.499800  0.499684  0.123496  1
  O  O63  1  0.000000  0.500074  0.153247  1
  O  O64  1  0.499864  0.499160  0.270943  1
  O  O65  1  0.976373  0.804788  0.250563  1
  O  O66  1  0.476344  0.804709  0.132879  1
  O  O67  1  0.023516  0.195081  0.250569  1
  O  O68  1  0.523505  0.194995  0.132865  1
  O  O69  1  0.023462  0.195146  0.143881  1
  O  O70  1  0.523657  0.194590  0.261569  1
  O  O71  1  0.976306  0.804858  0.143862  1
  O  O72  1  0.476504  0.804302  0.261561  1
  O  O73  1  0.918371  0.961366  0.508948  1
  O  O74  1  0.418306  0.961512  0.391241  1
  O  O75  1  0.081543  0.038244  0.508933  1
  O  O76  1  0.581487  0.038376  0.391251  1
  O  O77  1  0.081444  0.038453  0.356277  1
  O  O78  1  0.581663  0.038030  0.473958  1
  O  O79  1  0.918264  0.961578  0.356278  1
  O  O80  1  0.418480  0.961140  0.473986  1
  O  O81  1  0.772594  0.730720  0.524689  1
  O  O82  1  0.272557  0.730947  0.406984  1
  O  O83  1  0.227345  0.268742  0.524681  1
  O  O84  1  0.727297  0.268933  0.406989  1
  O  O85  1  0.227245  0.268912  0.340545  1
  O  O86  1  0.727459  0.268698  0.458212  1
  O  O87  1  0.772507  0.730908  0.340528  1
  O  O88  1  0.272710  0.730727  0.458250  1
  O  O89  1  0.807517  0.101731  0.512876  1
  O  O90  1  0.307439  0.101863  0.395184  1
  O  O91  1  0.192386  0.897751  0.512886  1
  O  O92  1  0.692314  0.897897  0.395186  1
  O  O93  1  0.192269  0.897910  0.352341  1
  O  O94  1  0.692499  0.897676  0.470025  1
  O  O95  1  0.807395  0.101860  0.352336  1
  O  O96  1  0.307632  0.101641  0.470041  1
  O  O97  1  0.779146  0.809883  0.492107  1
  O  O98  1  0.279092  0.810237  0.374402  1
  O  O99  1  0.220763  0.189276  0.492099  1
  O  O100  1  0.720712  0.189628  0.374415  1
  O  O101  1  0.220654  0.189555  0.373123  1
  O  O102  1  0.720852  0.189477  0.490795  1
  O  O103  1  0.779036  0.810150  0.373109  1
  O  O104  1  0.279236  0.810089  0.490828  1
  O  O105  1  0.872262  0.550337  0.463653  1
  O  O106  1  0.372070  0.550531  0.345971  1
  O  O107  1  0.127837  0.449224  0.463660  1
  O  O108  1  0.627652  0.449423  0.345950  1
  O  O109  1  0.127693  0.449490  0.401574  1
  O  O110  1  0.627775  0.449180  0.519255  1
  O  O111  1  0.872110  0.550585  0.401550  1
  O  O112  1  0.372190  0.550290  0.519260  1
  O  O113  1  0.797960  0.531285  0.432603  1
  O  O114  1  0.297922  0.531001  0.314918  1
  O  O115  1  0.202019  0.468813  0.432615  1
  O  O116  1  0.701987  0.468556  0.314911  1
  O  O117  1  0.743792  0.621634  0.462365  1
  O  O118  1  0.243629  0.621978  0.344652  1
  O  O119  1  0.256215  0.377517  0.462346  1
  O  O120  1  0.756055  0.377822  0.344669  1
  O  O121  1  0.256070  0.377790  0.402868  1
  O  O122  1  0.756210  0.377693  0.520547  1
  O  O123  1  0.743645  0.621928  0.402857  1
  O  O124  1  0.243775  0.621851  0.520571  1
  O  O125  1  0.871578  0.446035  0.495977  1
  O  O126  1  0.371377  0.446199  0.378292  1
  O  O127  1  0.128508  0.553447  0.495986  1
  O  O128  1  0.628304  0.553595  0.378282  1
  O  O129  1  0.128365  0.553624  0.369243  1
  O  O130  1  0.628420  0.553327  0.486933  1
  O  O131  1  0.871434  0.446215  0.369232  1
  O  O132  1  0.371495  0.445951  0.486932  1
  O  O133  1  0.000000  0.500164  0.476581  1
  O  O134  1  0.499800  0.499684  0.358886  1
  O  O135  1  -0.000000  0.500074  0.388637  1
  O  O136  1  0.499864  0.499160  0.506333  1
  O  O137  1  0.976373  0.804788  0.485953  1
  O  O138  1  0.476344  0.804709  0.368269  1
  O  O139  1  0.023516  0.195081  0.485959  1
  O  O140  1  0.523505  0.194995  0.368255  1
  O  O141  1  0.023462  0.195146  0.379271  1
  O  O142  1  0.523657  0.194590  0.496959  1
  O  O143  1  0.976306  0.804858  0.379252  1
  O  O144  1  0.476504  0.804302  0.496950  1
  O  O145  1  0.918371  0.961366  0.744338  1
  O  O146  1  0.418306  0.961512  0.626631  1
  O  O147  1  0.081543  0.038244  0.744323  1
  O  O148  1  0.581487  0.038376  0.626641  1
  O  O149  1  0.081444  0.038453  0.591666  1
  O  O150  1  0.581663  0.038030  0.709348  1
  O  O151  1  0.918264  0.961578  0.591668  1
  O  O152  1  0.418480  0.961140  0.709376  1
  O  O153  1  0.772594  0.730720  0.760078  1
  O  O154  1  0.272557  0.730947  0.642374  1
  O  O155  1  0.227345  0.268742  0.760070  1
  O  O156  1  0.727297  0.268933  0.642379  1
  O  O157  1  0.227245  0.268912  0.575935  1
  O  O158  1  0.727459  0.268698  0.693602  1
  O  O159  1  0.772507  0.730908  0.575918  1
  O  O160  1  0.272710  0.730727  0.693640  1
  O  O161  1  0.807517  0.101731  0.748265  1
  O  O162  1  0.307439  0.101863  0.630574  1
  O  O163  1  0.192386  0.897751  0.748276  1
  O  O164  1  0.692314  0.897897  0.630575  1
  O  O165  1  0.192269  0.897910  0.587731  1
  O  O166  1  0.692499  0.897676  0.705415  1
  O  O167  1  0.807395  0.101860  0.587726  1
  O  O168  1  0.307632  0.101641  0.705431  1
  O  O169  1  0.779146  0.809883  0.727497  1
  O  O170  1  0.279092  0.810237  0.609792  1
  O  O171  1  0.220763  0.189276  0.727489  1
  O  O172  1  0.720712  0.189628  0.609805  1
  O  O173  1  0.220654  0.189555  0.608513  1
  O  O174  1  0.720852  0.189477  0.726185  1
  O  O175  1  0.779036  0.810150  0.608498  1
  O  O176  1  0.279236  0.810089  0.726218  1
  O  O177  1  0.872262  0.550337  0.699043  1
  O  O178  1  0.372070  0.550531  0.581361  1
  O  O179  1  0.127837  0.449224  0.699050  1
  O  O180  1  0.627652  0.449423  0.581340  1
  O  O181  1  0.127693  0.449490  0.636964  1
  O  O182  1  0.627775  0.449180  0.754645  1
  O  O183  1  0.872110  0.550585  0.636940  1
  O  O184  1  0.372190  0.550290  0.754650  1
  O  O185  1  0.797960  0.531285  0.667993  1
  O  O186  1  0.297922  0.531001  0.550307  1
  O  O187  1  0.202019  0.468813  0.668005  1
  O  O188  1  0.701987  0.468556  0.550301  1
  O  O189  1  0.743792  0.621634  0.697755  1
  O  O190  1  0.243629  0.621978  0.580041  1
  O  O191  1  0.256215  0.377517  0.697735  1
  O  O192  1  0.756055  0.377822  0.580059  1
  O  O193  1  0.256070  0.377790  0.638258  1
  O  O194  1  0.756210  0.377693  0.755937  1
  O  O195  1  0.743645  0.621928  0.638247  1
  O  O196  1  0.243775  0.621851  0.755961  1
  O  O197  1  0.871578  0.446035  0.731367  1
  O  O198  1  0.371377  0.446199  0.613682  1
  O  O199  1  0.128508  0.553447  0.731376  1
  O  O200  1  0.628304  0.553595  0.613672  1
  O  O201  1  0.128365  0.553624  0.604632  1
  O  O202  1  0.628420  0.553327  0.722323  1
  O  O203  1  0.871434  0.446215  0.604622  1
  O  O204  1  0.371495  0.445951  0.722322  1
  O  O205  1  0.000000  0.500164  0.711970  1
  O  O206  1  0.499800  0.499684  0.594276  1
  O  O207  1  -0.000000  0.500074  0.624027  1
  O  O208  1  0.499864  0.499160  0.741723  1
  O  O209  1  0.976373  0.804788  0.721343  1
  O  O210  1  0.476344  0.804709  0.603659  1
  O  O211  1  0.023516  0.195081  0.721349  1
  O  O212  1  0.523505  0.194995  0.603645  1
  O  O213  1  0.023462  0.195146  0.614660  1
  O  O214  1  0.523657  0.194590  0.732349  1
  O  O215  1  0.976306  0.804858  0.614642  1
  O  O216  1  0.476504  0.804302  0.732340  1
  O  O217  1  0.297922  0.531001  0.785697  1
  O  O218  1  0.701987  0.468556  0.785691  1
  Si  Si219  1  0.821110  0.905103  0.275299  1
  Si  Si220  1  0.321055  0.905284  0.157593  1
  Si  Si221  1  0.178785  0.094372  0.275293  1
  Si  Si222  1  0.678733  0.094539  0.157606  1
  Si  Si223  1  0.178684  0.094538  0.119148  1
  Si  Si224  1  0.678922  0.094324  0.236820  1
  Si  Si225  1  0.821010  0.905270  0.119138  1
  Si  Si226  1  0.321245  0.905064  0.236858  1
  Si  Si227  1  0.786775  0.497005  0.218039  1
  Si  Si228  1  0.286590  0.497114  0.100353  1
  Si  Si229  1  0.213334  0.502570  0.218050  1
  Si  Si230  1  0.713158  0.502670  0.100345  1
  Si  Si231  1  0.213198  0.502762  0.176400  1
  Si  Si232  1  0.713263  0.502471  0.294086  1
  Si  Si233  1  0.786630  0.497195  0.176389  1
  Si  Si234  1  0.286698  0.496949  0.294093  1
  Si  Si235  1  0.790834  0.282337  0.270263  1
  Si  Si236  1  0.290675  0.282411  0.152582  1
  Si  Si237  1  0.209183  0.717240  0.270284  1
  Si  Si238  1  0.709031  0.717319  0.152574  1
  Si  Si239  1  0.209051  0.717388  0.124160  1
  Si  Si240  1  0.709152  0.717019  0.241862  1
  Si  Si241  1  0.790695  0.282461  0.124168  1
  Si  Si242  1  0.290804  0.282127  0.241857  1
  Si  Si243  1  0.931198  0.576165  0.244955  1
  Si  Si244  1  0.431022  0.576148  0.127266  1
  Si  Si245  1  0.068882  0.423645  0.244954  1
  Si  Si246  1  0.568703  0.423576  0.127253  1
  Si  Si247  1  0.068752  0.423736  0.149492  1
  Si  Si248  1  0.568803  0.423189  0.267176  1
  Si  Si249  1  0.931066  0.576291  0.149475  1
  Si  Si250  1  0.431122  0.575768  0.267182  1
  Si  Si251  1  0.000000  0.000000  0.262290  1
  Si  Si252  1  0.499903  0.000000  0.144593  1
  Si  Si253  1  0.003819  0.000000  0.132150  1
  Si  Si254  1  0.500094  -0.000000  0.249844  1
  Si  Si255  1  0.821110  0.905103  0.510689  1
  Si  Si256  1  0.321055  0.905284  0.392983  1
  Si  Si257  1  0.178785  0.094372  0.510683  1
  Si  Si258  1  0.678733  0.094539  0.392995  1
  Si  Si259  1  0.178684  0.094538  0.354538  1
  Si  Si260  1  0.678922  0.094324  0.472210  1
  Si  Si261  1  0.821010  0.905270  0.354528  1
  Si  Si262  1  0.321245  0.905064  0.472248  1
  Si  Si263  1  0.786775  0.497005  0.453429  1
  Si  Si264  1  0.286590  0.497114  0.335743  1
  Si  Si265  1  0.213334  0.502570  0.453440  1
  Si  Si266  1  0.713158  0.502670  0.335735  1
  Si  Si267  1  0.213198  0.502762  0.411789  1
  Si  Si268  1  0.713263  0.502471  0.529476  1
  Si  Si269  1  0.786630  0.497195  0.411778  1
  Si  Si270  1  0.286698  0.496949  0.529483  1
  Si  Si271  1  0.790834  0.282337  0.505653  1
  Si  Si272  1  0.290675  0.282411  0.387972  1
  Si  Si273  1  0.209183  0.717240  0.505674  1
  Si  Si274  1  0.709031  0.717319  0.387964  1
  Si  Si275  1  0.209051  0.717388  0.359550  1
  Si  Si276  1  0.709152  0.717019  0.477252  1
  Si  Si277  1  0.790695  0.282461  0.359558  1
  Si  Si278  1  0.290804  0.282127  0.477247  1
  Si  Si279  1  0.931198  0.576165  0.480345  1
  Si  Si280  1  0.431022  0.576148  0.362656  1
  Si  Si281  1  0.068882  0.423645  0.480344  1
  Si  Si282  1  0.568703  0.423576  0.362643  1
  Si  Si283  1  0.068752  0.423736  0.384882  1
  Si  Si284  1  0.568803  0.423189  0.502566  1
  Si  Si285  1  0.931066  0.576291  0.384865  1
  Si  Si286  1  0.431122  0.575768  0.502572  1
  Si  Si287  1  -0.000000  -0.000000  0.497679  1
  Si  Si288  1  0.499903  0.000000  0.379983  1
  Si  Si289  1  0.003819  0.000000  0.367540  1
  Si  Si290  1  0.500094  -0.000000  0.485234  1
  Si  Si291  1  0.821110  0.905103  0.746078  1
  Si  Si292  1  0.321055  0.905284  0.628373  1
  Si  Si293  1  0.178785  0.094372  0.746073  1
  Si  Si294  1  0.678733  0.094539  0.628385  1
  Si  Si295  1  0.178684  0.094538  0.589928  1
  Si  Si296  1  0.678922  0.094324  0.707600  1
  Si  Si297  1  0.821010  0.905270  0.589918  1
  Si  Si298  1  0.321245  0.905064  0.707638  1
  Si  Si299  1  0.786775  0.497005  0.688818  1
  Si  Si300  1  0.286590  0.497114  0.571132  1
  Si  Si301  1  0.213334  0.502570  0.688830  1
  Si  Si302  1  0.713158  0.502670  0.571125  1
  Si  Si303  1  0.213198  0.502762  0.647179  1
  Si  Si304  1  0.713263  0.502471  0.764866  1
  Si  Si305  1  0.786630  0.497195  0.647168  1
  Si  Si306  1  0.286698  0.496949  0.764873  1
  Si  Si307  1  0.790834  0.282337  0.741043  1
  Si  Si308  1  0.290675  0.282411  0.623362  1
  Si  Si309  1  0.209183  0.717240  0.741064  1
  Si  Si310  1  0.709031  0.717319  0.623353  1
  Si  Si311  1  0.209051  0.717388  0.594940  1
  Si  Si312  1  0.709152  0.717019  0.712642  1
  Si  Si313  1  0.790695  0.282461  0.594948  1
  Si  Si314  1  0.290804  0.282127  0.712637  1
  Si  Si315  1  0.931198  0.576165  0.715735  1
  Si  Si316  1  0.431022  0.576148  0.598046  1
  Si  Si317  1  0.068882  0.423645  0.715734  1
  Si  Si318  1  0.568703  0.423576  0.598033  1
  Si  Si319  1  0.068752  0.423736  0.620272  1
  Si  Si320  1  0.568803  0.423189  0.737956  1
  Si  Si321  1  0.931066  0.576291  0.620255  1
  Si  Si322  1  0.431122  0.575768  0.737962  1
  Si  Si323  1  -0.000000  -0.000000  0.733069  1
  Si  Si324  1  0.499903  0.000000  0.615373  1
  Si  Si325  1  0.003819  0.000000  0.602930  1
  Si  Si326  1  0.500094  0.000000  0.720624  1
  H  H327  1  0.297922  0.531001  0.067397  1
  H  H328  1  0.701987  0.468556  0.067391  1
  H  H329  1  0.297922  0.531001  0.797828  1
  H  H330  1  0.701987  0.468556  0.797821  1
