# generated using pymatgen
data_Si36H2O73
_symmetry_space_group_name_H-M   'P 1'
_cell_length_a   17.61808445
_cell_length_b   7.36787762
_cell_length_c   56.72959523
_cell_angle_alpha   90.00000000
_cell_angle_beta   90.00000000
_cell_angle_gamma   116.10400000
_symmetry_Int_Tables_number   1
_chemical_formula_structural   Si36H2O73
_chemical_formula_sum   'Si72 H4 O146'
_cell_volume   6612.80313703
_cell_formula_units_Z   2
loop_
 _symmetry_equiv_pos_site_id
 _symmetry_equiv_pos_as_xyz
  1  'x, y, z'
loop_
 _atom_site_type_symbol
 _atom_site_label
 _atom_site_symmetry_multiplicity
 _atom_site_fract_x
 _atom_site_fract_y
 _atom_site_fract_z
 _atom_site_occupancy
  O  O1  1  0.918371  0.961366  0.357774  1
  O  O2  1  0.418306  0.961512  0.203831  1
  O  O3  1  0.081543  0.038244  0.357756  1
  O  O4  1  0.581487  0.038376  0.203844  1
  O  O5  1  0.081444  0.038453  0.158102  1
  O  O6  1  0.581663  0.038030  0.312013  1
  O  O7  1  0.918264  0.961578  0.158104  1
  O  O8  1  0.418480  0.961140  0.312049  1
  O  O9  1  0.772594  0.730720  0.378361  1
  O  O10  1  0.272557  0.730947  0.224421  1
  O  O11  1  0.227345  0.268742  0.378351  1
  O  O12  1  0.727297  0.268933  0.224427  1
  O  O13  1  0.227245  0.268912  0.137527  1
  O  O14  1  0.727459  0.268698  0.291419  1
  O  O15  1  0.772507  0.730908  0.137506  1
  O  O16  1  0.272710  0.730727  0.291469  1
  O  O17  1  0.807517  0.101731  0.362911  1
  O  O18  1  0.307439  0.101863  0.208988  1
  O  O19  1  0.192386  0.897751  0.362925  1
  O  O20  1  0.692314  0.897897  0.208990  1
  O  O21  1  0.192269  0.897910  0.152955  1
  O  O22  1  0.692499  0.897676  0.306869  1
  O  O23  1  0.807395  0.101860  0.152948  1
  O  O24  1  0.307632  0.101641  0.306890  1
  O  O25  1  0.779146  0.809883  0.335749  1
  O  O26  1  0.279092  0.810237  0.181808  1
  O  O27  1  0.220763  0.189276  0.335739  1
  O  O28  1  0.720712  0.189628  0.181825  1
  O  O29  1  0.220654  0.189555  0.180135  1
  O  O30  1  0.720852  0.189477  0.334033  1
  O  O31  1  0.779036  0.810150  0.180116  1
  O  O32  1  0.279236  0.810089  0.334077  1
  O  O33  1  0.872262  0.550337  0.298536  1
  O  O34  1  0.372070  0.550531  0.144624  1
  O  O35  1  0.127837  0.449224  0.298544  1
  O  O36  1  0.627652  0.449423  0.144596  1
  O  O37  1  0.127693  0.449490  0.217345  1
  O  O38  1  0.627775  0.449180  0.371255  1
  O  O39  1  0.872110  0.550585  0.217314  1
  O  O40  1  0.372190  0.550290  0.371261  1
  O  O41  1  0.797960  0.531285  0.257927  1
  O  O42  1  0.297922  0.531001  0.104011  1
  O  O43  1  0.202019  0.468813  0.257942  1
  O  O44  1  0.701987  0.468556  0.104002  1
  O  O45  1  0.743792  0.621634  0.296850  1
  O  O46  1  0.243629  0.621978  0.142899  1
  O  O47  1  0.256215  0.377517  0.296825  1
  O  O48  1  0.756055  0.377822  0.142921  1
  O  O49  1  0.256070  0.377790  0.219038  1
  O  O50  1  0.756210  0.377693  0.372944  1
  O  O51  1  0.743645  0.621928  0.219022  1
  O  O52  1  0.243775  0.621851  0.372976  1
  O  O53  1  0.871578  0.446035  0.340811  1
  O  O54  1  0.371377  0.446199  0.186895  1
  O  O55  1  0.128508  0.553447  0.340823  1
  O  O56  1  0.628304  0.553595  0.186883  1
  O  O57  1  0.128365  0.553624  0.175060  1
  O  O58  1  0.628420  0.553327  0.328982  1
  O  O59  1  0.871434  0.446215  0.175046  1
  O  O60  1  0.371495  0.445951  0.328981  1
  O  O61  1  0.000000  0.500164  0.315443  1
  O  O62  1  0.499800  0.499684  0.161515  1
  O  O63  1  0.000000  0.500074  0.200425  1
  O  O64  1  0.499864  0.499160  0.354355  1
  O  O65  1  0.976373  0.804788  0.327700  1
  O  O66  1  0.476344  0.804709  0.173786  1
  O  O67  1  0.023516  0.195081  0.327708  1
  O  O68  1  0.523505  0.194995  0.173768  1
  O  O69  1  0.023462  0.195146  0.188175  1
  O  O70  1  0.523657  0.194590  0.342094  1
  O  O71  1  0.976306  0.804858  0.188151  1
  O  O72  1  0.476504  0.804302  0.342084  1
  O  O73  1  0.918371  0.961366  0.665631  1
  O  O74  1  0.418306  0.961512  0.511687  1
  O  O75  1  0.081543  0.038244  0.665612  1
  O  O76  1  0.581487  0.038376  0.511700  1
  O  O77  1  0.081444  0.038453  0.465958  1
  O  O78  1  0.581663  0.038030  0.619869  1
  O  O79  1  0.918264  0.961578  0.465960  1
  O  O80  1  0.418480  0.961140  0.619905  1
  O  O81  1  0.772594  0.730720  0.686217  1
  O  O82  1  0.272557  0.730947  0.532277  1
  O  O83  1  0.227345  0.268742  0.686207  1
  O  O84  1  0.727297  0.268933  0.532283  1
  O  O85  1  0.227245  0.268912  0.445383  1
  O  O86  1  0.727459  0.268698  0.599275  1
  O  O87  1  0.772507  0.730908  0.445362  1
  O  O88  1  0.272710  0.730727  0.599325  1
  O  O89  1  0.807517  0.101731  0.670767  1
  O  O90  1  0.307439  0.101863  0.516844  1
  O  O91  1  0.192386  0.897751  0.670781  1
  O  O92  1  0.692314  0.897897  0.516846  1
  O  O93  1  0.192269  0.897910  0.460811  1
  O  O94  1  0.692499  0.897676  0.614726  1
  O  O95  1  0.807395  0.101860  0.460804  1
  O  O96  1  0.307632  0.101641  0.614746  1
  O  O97  1  0.779146  0.809883  0.643605  1
  O  O98  1  0.279092  0.810237  0.489664  1
  O  O99  1  0.220763  0.189276  0.643595  1
  O  O100  1  0.720712  0.189628  0.489681  1
  O  O101  1  0.220654  0.189555  0.487991  1
  O  O102  1  0.720852  0.189477  0.641890  1
  O  O103  1  0.779036  0.810150  0.487972  1
  O  O104  1  0.279236  0.810089  0.641933  1
  O  O105  1  0.872262  0.550337  0.606392  1
  O  O106  1  0.372070  0.550531  0.452480  1
  O  O107  1  0.127837  0.449224  0.606400  1
  O  O108  1  0.627652  0.449423  0.452452  1
  O  O109  1  0.127693  0.449490  0.525201  1
  O  O110  1  0.627775  0.449180  0.679111  1
  O  O111  1  0.872110  0.550585  0.525170  1
  O  O112  1  0.372190  0.550290  0.679117  1
  O  O113  1  0.797960  0.531285  0.565783  1
  O  O114  1  0.297922  0.531001  0.411867  1
  O  O115  1  0.202019  0.468813  0.565798  1
  O  O116  1  0.701987  0.468556  0.411858  1
  O  O117  1  0.743792  0.621634  0.604706  1
  O  O118  1  0.243629  0.621978  0.450755  1
  O  O119  1  0.256215  0.377517  0.604681  1
  O  O120  1  0.756055  0.377822  0.450777  1
  O  O121  1  0.256070  0.377790  0.526894  1
  O  O122  1  0.756210  0.377693  0.680800  1
  O  O123  1  0.743645  0.621928  0.526879  1
  O  O124  1  0.243775  0.621851  0.680832  1
  O  O125  1  0.871578  0.446035  0.648667  1
  O  O126  1  0.371377  0.446199  0.494752  1
  O  O127  1  0.128508  0.553447  0.648679  1
  O  O128  1  0.628304  0.553595  0.494739  1
  O  O129  1  0.128365  0.553624  0.482916  1
  O  O130  1  0.628420  0.553327  0.636838  1
  O  O131  1  0.871434  0.446215  0.482903  1
  O  O132  1  0.371495  0.445951  0.636837  1
  O  O133  1  0.000000  0.500164  0.623299  1
  O  O134  1  0.499800  0.499684  0.469371  1
  O  O135  1  -0.000000  0.500074  0.508281  1
  O  O136  1  0.499864  0.499160  0.662211  1
  O  O137  1  0.976373  0.804788  0.635556  1
  O  O138  1  0.476344  0.804709  0.481642  1
  O  O139  1  0.023516  0.195081  0.635564  1
  O  O140  1  0.523505  0.194995  0.481624  1
  O  O141  1  0.023462  0.195146  0.496031  1
  O  O142  1  0.523657  0.194590  0.649951  1
  O  O143  1  0.976306  0.804858  0.496007  1
  O  O144  1  0.476504  0.804302  0.649940  1
  O  O145  1  0.297922  0.531001  0.719723  1
  O  O146  1  0.701987  0.468556  0.719714  1
  Si  Si147  1  0.821110  0.905103  0.360051  1
  Si  Si148  1  0.321055  0.905284  0.206109  1
  Si  Si149  1  0.178785  0.094372  0.360044  1
  Si  Si150  1  0.678733  0.094539  0.206125  1
  Si  Si151  1  0.178684  0.094538  0.155829  1
  Si  Si152  1  0.678922  0.094324  0.309727  1
  Si  Si153  1  0.821010  0.905270  0.155816  1
  Si  Si154  1  0.321245  0.905064  0.309776  1
  Si  Si155  1  0.786775  0.497005  0.285163  1
  Si  Si156  1  0.286590  0.497114  0.131247  1
  Si  Si157  1  0.213334  0.502570  0.285178  1
  Si  Si158  1  0.713158  0.502670  0.131237  1
  Si  Si159  1  0.213198  0.502762  0.230705  1
  Si  Si160  1  0.713263  0.502471  0.384623  1
  Si  Si161  1  0.786630  0.497195  0.230691  1
  Si  Si162  1  0.286698  0.496949  0.384631  1
  Si  Si163  1  0.790834  0.282337  0.353465  1
  Si  Si164  1  0.290675  0.282411  0.199555  1
  Si  Si165  1  0.209183  0.717240  0.353493  1
  Si  Si166  1  0.709031  0.717319  0.199544  1
  Si  Si167  1  0.209051  0.717388  0.162384  1
  Si  Si168  1  0.709152  0.717019  0.316320  1
  Si  Si169  1  0.790695  0.282461  0.162394  1
  Si  Si170  1  0.290804  0.282127  0.316314  1
  Si  Si171  1  0.931198  0.576165  0.320366  1
  Si  Si172  1  0.431022  0.576148  0.166446  1
  Si  Si173  1  0.068882  0.423645  0.320364  1
  Si  Si174  1  0.568703  0.423576  0.166428  1
  Si  Si175  1  0.068752  0.423736  0.195514  1
  Si  Si176  1  0.568803  0.423189  0.349428  1
  Si  Si177  1  0.931066  0.576291  0.195492  1
  Si  Si178  1  0.431122  0.575768  0.349436  1
  Si  Si179  1  0.000000  0.000000  0.343037  1
  Si  Si180  1  0.499903  -0.000000  0.189107  1
  Si  Si181  1  0.003819  0.000000  0.172833  1
  Si  Si182  1  0.500094  0.000000  0.326760  1
  Si  Si183  1  0.821110  0.905103  0.667907  1
  Si  Si184  1  0.321055  0.905284  0.513965  1
  Si  Si185  1  0.178785  0.094372  0.667900  1
  Si  Si186  1  0.678733  0.094539  0.513982  1
  Si  Si187  1  0.178684  0.094538  0.463685  1
  Si  Si188  1  0.678922  0.094324  0.617583  1
  Si  Si189  1  0.821010  0.905270  0.463672  1
  Si  Si190  1  0.321245  0.905064  0.617632  1
  Si  Si191  1  0.786775  0.497005  0.593019  1
  Si  Si192  1  0.286590  0.497114  0.439103  1
  Si  Si193  1  0.213334  0.502570  0.593034  1
  Si  Si194  1  0.713158  0.502670  0.439093  1
  Si  Si195  1  0.213198  0.502762  0.538561  1
  Si  Si196  1  0.713263  0.502471  0.692479  1
  Si  Si197  1  0.786630  0.497195  0.538547  1
  Si  Si198  1  0.286698  0.496949  0.692487  1
  Si  Si199  1  0.790834  0.282337  0.661321  1
  Si  Si200  1  0.290675  0.282411  0.507412  1
  Si  Si201  1  0.209183  0.717240  0.661349  1
  Si  Si202  1  0.709031  0.717319  0.507400  1
  Si  Si203  1  0.209051  0.717388  0.470240  1
  Si  Si204  1  0.709152  0.717019  0.624176  1
  Si  Si205  1  0.790695  0.282461  0.470250  1
  Si  Si206  1  0.290804  0.282127  0.624170  1
  Si  Si207  1  0.931198  0.576165  0.628222  1
  Si  Si208  1  0.431022  0.576148  0.474302  1
  Si  Si209  1  0.068882  0.423645  0.628220  1
  Si  Si210  1  0.568703  0.423576  0.474284  1
  Si  Si211  1  0.068752  0.423736  0.503370  1
  Si  Si212  1  0.568803  0.423189  0.657284  1
  Si  Si213  1  0.931066  0.576291  0.503348  1
  Si  Si214  1  0.431122  0.575768  0.657292  1
  Si  Si215  1  0.000000  -0.000000  0.650893  1
  Si  Si216  1  0.499903  0.000000  0.496963  1
  Si  Si217  1  0.003819  -0.000000  0.480689  1
  Si  Si218  1  0.500094  -0.000000  0.634616  1
  H  H219  1  0.297922  0.531001  0.088146  1
  H  H220  1  0.701987  0.468556  0.088137  1
  H  H221  1  0.297922  0.531001  0.735588  1
  H  H222  1  0.701987  0.468556  0.735579  1
