# generated using pymatgen
data_Si21H2O43
_symmetry_space_group_name_H-M   'P 1'
_cell_length_a   19.41225325
_cell_length_b   11.34454198
_cell_length_c   57.56696050
_cell_angle_alpha   90.00000000
_cell_angle_beta   120.00000000
_cell_angle_gamma   90.00000000
_symmetry_Int_Tables_number   1
_chemical_formula_structural   Si21H2O43
_chemical_formula_sum   'Si84 H8 O172'
_cell_volume   10979.1026665
_cell_formula_units_Z   4
loop_
 _symmetry_equiv_pos_site_id
 _symmetry_equiv_pos_as_xyz
  1  'x, y, z'
loop_
 _atom_site_type_symbol
 _atom_site_label
 _atom_site_symmetry_multiplicity
 _atom_site_fract_x
 _atom_site_fract_y
 _atom_site_fract_z
 _atom_site_occupancy
  O  O1  1  0.458346  0.702740  0.163469  1
  O  O2  1  0.458399  0.297034  0.163534  1
  O  O3  1  0.457542  0.297342  0.116042  1
  O  O4  1  0.457518  0.703216  0.115979  1
  O  O5  1  0.700080  0.297075  0.115971  1
  O  O6  1  0.840813  0.296645  0.163185  1
  O  O7  1  0.840805  0.702937  0.163130  1
  O  O8  1  0.700057  0.703212  0.115926  1
  O  O9  1  0.511945  0.882558  0.148863  1
  O  O10  1  0.580211  0.314263  0.160193  1
  O  O11  1  0.709984  0.316425  0.160309  1
  O  O12  1  0.709947  0.683524  0.160256  1
  O  O13  1  0.580164  0.685841  0.160121  1
  O  O14  1  0.743233  0.882140  0.148857  1
  O  O15  1  0.624749  0.000000  0.146877  1
  O  O16  1  0.743034  0.117826  0.148806  1
  O  O17  1  0.511950  0.117572  0.148794  1
  O  O18  1  0.664839  0.500082  0.174905  1
  O  O19  1  0.256604  0.882134  0.235472  1
  O  O20  1  0.256803  0.117832  0.235488  1
  O  O21  1  0.299780  0.297032  0.217126  1
  O  O22  1  0.159046  0.296644  0.216869  1
  O  O23  1  0.159055  0.702937  0.216816  1
  O  O24  1  0.299803  0.703256  0.217089  1
  O  O25  1  0.461904  0.499901  0.183379  1
  O  O26  1  0.358490  0.500143  0.218218  1
  O  O27  1  0.103322  0.500326  0.278696  1
  O  O28  1  0.103244  0.499723  0.217729  1
  O  O29  1  0.404345  0.338448  0.198842  1
  O  O30  1  0.375037  0.000000  0.273449  1
  O  O31  1  0.404311  0.661586  0.198781  1
  O  O32  1  0.449803  0.342304  0.248398  1
  O  O33  1  0.101364  0.342089  0.247971  1
  O  O34  1  0.449859  0.658133  0.248345  1
  O  O35  1  0.101465  0.657979  0.247855  1
  O  O36  1  0.289874  0.316507  0.258117  1
  O  O37  1  0.289912  0.683443  0.258077  1
  O  O38  1  0.250666  0.000000  0.273378  1
  O  O39  1  0.743589  0.882558  0.226800  1
  O  O40  1  0.841139  0.297302  0.245038  1
  O  O41  1  0.701072  0.297103  0.245255  1
  O  O42  1  0.701274  0.702938  0.245253  1
  O  O43  1  0.841177  0.703406  0.244924  1
  O  O44  1  0.896476  0.500326  0.243805  1
  O  O45  1  0.539321  0.500276  0.279172  1
  O  O46  1  0.642558  0.500103  0.244314  1
  O  O47  1  0.896595  0.499724  0.182868  1
  O  O48  1  0.000000  0.338852  0.263312  1
  O  O49  1  0.596792  0.338498  0.263744  1
  O  O50  1  0.596844  0.661859  0.263692  1
  O  O51  1  0.000000  0.338023  0.198392  1
  O  O52  1  0.743751  0.117821  0.226817  1
  O  O53  1  0.551333  0.341949  0.214168  1
  O  O54  1  0.898462  0.342097  0.213743  1
  O  O55  1  0.551267  0.658023  0.214109  1
  O  O56  1  0.898361  0.657972  0.213593  1
  O  O57  1  0.709705  0.315248  0.203961  1
  O  O58  1  0.709614  0.685172  0.203903  1
  O  O59  1  0.749106  0.000000  0.188752  1
  O  O60  1  0.624913  0.000000  0.188834  1
  O  O61  1  0.000000  0.661865  0.263163  1
  O  O62  1  0.000000  0.661429  0.198280  1
  O  O63  1  0.158653  0.297338  0.298604  1
  O  O64  1  0.298727  0.297143  0.346068  1
  O  O65  1  0.298526  0.702899  0.345997  1
  O  O66  1  0.158616  0.703369  0.298477  1
  O  O67  1  0.357271  0.500103  0.364860  1
  O  O68  1  0.487795  0.882523  0.313458  1
  O  O69  1  0.448493  0.341943  0.365479  1
  O  O70  1  0.448558  0.658030  0.365441  1
  O  O71  1  0.290129  0.314943  0.301859  1
  O  O72  1  0.419636  0.314484  0.301768  1
  O  O73  1  0.419684  0.685618  0.301713  1
  O  O74  1  0.290222  0.685475  0.301832  1
  O  O75  1  0.374860  0.000000  0.315346  1
  O  O76  1  0.255985  0.117781  0.313256  1
  O  O77  1  0.487790  0.117606  0.313388  1
  O  O78  1  0.256146  0.882598  0.313293  1
  O  O79  1  0.334623  0.500081  0.287984  1
  O  O80  1  0.402983  0.661861  0.399652  1
  O  O81  1  0.403036  0.338497  0.399722  1
  O  O82  1  0.537935  0.499901  0.364855  1
  O  O83  1  0.541476  0.702734  0.346140  1
  O  O84  1  0.541422  0.297041  0.346187  1
  O  O85  1  0.542273  0.297303  0.298984  1
  O  O86  1  0.542297  0.703254  0.298929  1
  O  O87  1  0.595493  0.338438  0.399725  1
  O  O88  1  0.595528  0.661596  0.399676  1
  O  O89  1  0.460513  0.500276  0.434527  1
  O  O90  1  0.458346  0.702740  0.500773  1
  O  O91  1  0.458399  0.297034  0.500838  1
  O  O92  1  0.457542  0.297342  0.453345  1
  O  O93  1  0.457518  0.703216  0.453282  1
  O  O94  1  0.700080  0.297075  0.453275  1
  O  O95  1  0.840813  0.296645  0.500489  1
  O  O96  1  0.840805  0.702937  0.500433  1
  O  O97  1  0.700057  0.703212  0.453230  1
  O  O98  1  0.641343  0.500143  0.434560  1
  O  O99  1  0.511945  0.882558  0.486166  1
  O  O100  1  0.550037  0.342289  0.433948  1
  O  O101  1  0.549981  0.658149  0.433877  1
  O  O102  1  0.580211  0.314263  0.497496  1
  O  O103  1  0.709984  0.316425  0.497612  1
  O  O104  1  0.709947  0.683524  0.497559  1
  O  O105  1  0.580164  0.685841  0.497424  1
  O  O106  1  0.743233  0.882140  0.486160  1
  O  O107  1  0.624749  0.000000  0.484180  1
  O  O108  1  0.743034  0.117826  0.486110  1
  O  O109  1  0.511950  0.117572  0.486098  1
  O  O110  1  0.664839  0.500082  0.512209  1
  O  O111  1  0.256604  0.882134  0.572776  1
  O  O112  1  0.256803  0.117832  0.572792  1
  O  O113  1  0.299780  0.297032  0.554430  1
  O  O114  1  0.159046  0.296644  0.554173  1
  O  O115  1  0.159055  0.702937  0.554120  1
  O  O116  1  0.299803  0.703256  0.554392  1
  O  O117  1  0.461904  0.499901  0.520683  1
  O  O118  1  0.358490  0.500143  0.555522  1
  O  O119  1  0.103322  0.500326  0.616000  1
  O  O120  1  0.103244  0.499723  0.555032  1
  O  O121  1  0.404345  0.338448  0.536146  1
  O  O122  1  0.375037  -0.000000  0.610752  1
  O  O123  1  0.404311  0.661586  0.536084  1
  O  O124  1  0.449803  0.342304  0.585701  1
  O  O125  1  0.101364  0.342089  0.585274  1
  O  O126  1  0.449859  0.658133  0.585649  1
  O  O127  1  0.101465  0.657979  0.585159  1
  O  O128  1  0.289874  0.316507  0.595421  1
  O  O129  1  0.289912  0.683443  0.595380  1
  O  O130  1  0.250666  -0.000000  0.610681  1
  O  O131  1  0.743589  0.882558  0.564103  1
  O  O132  1  0.841139  0.297302  0.582342  1
  O  O133  1  0.701072  0.297103  0.582558  1
  O  O134  1  0.701274  0.702938  0.582556  1
  O  O135  1  0.841177  0.703406  0.582227  1
  O  O136  1  0.896476  0.500326  0.581109  1
  O  O137  1  0.539321  0.500276  0.616476  1
  O  O138  1  0.642558  0.500103  0.581618  1
  O  O139  1  0.896595  0.499724  0.520171  1
  O  O140  1  0.000000  0.338852  0.600615  1
  O  O141  1  0.596792  0.338498  0.601047  1
  O  O142  1  0.596844  0.661859  0.600995  1
  O  O143  1  0.000000  0.338023  0.535696  1
  O  O144  1  0.743751  0.117821  0.564120  1
  O  O145  1  0.551333  0.341949  0.551472  1
  O  O146  1  0.898462  0.342097  0.551046  1
  O  O147  1  0.551267  0.658023  0.551412  1
  O  O148  1  0.898361  0.657972  0.550896  1
  O  O149  1  0.709705  0.315248  0.541265  1
  O  O150  1  0.709614  0.685172  0.541207  1
  O  O151  1  0.749106  0.000000  0.526056  1
  O  O152  1  0.624913  0.000000  0.526138  1
  O  O153  1  0.000000  0.661865  0.600466  1
  O  O154  1  0.000000  0.661429  0.535584  1
  O  O155  1  0.158653  0.297338  0.635908  1
  O  O156  1  0.298727  0.297143  0.683371  1
  O  O157  1  0.298526  0.702899  0.683301  1
  O  O158  1  0.158616  0.703369  0.635781  1
  O  O159  1  0.487795  0.882523  0.650762  1
  O  O160  1  0.290129  0.314943  0.639163  1
  O  O161  1  0.419636  0.314484  0.639072  1
  O  O162  1  0.419684  0.685618  0.639017  1
  O  O163  1  0.290222  0.685475  0.639136  1
  O  O164  1  0.374860  -0.000000  0.652650  1
  O  O165  1  0.255985  0.117781  0.650560  1
  O  O166  1  0.487790  0.117606  0.650692  1
  O  O167  1  0.256146  0.882598  0.650597  1
  O  O168  1  0.334623  0.500081  0.625288  1
  O  O169  1  0.541476  0.702734  0.683444  1
  O  O170  1  0.541422  0.297041  0.683490  1
  O  O171  1  0.542273  0.297303  0.636288  1
  O  O172  1  0.542297  0.703254  0.636233  1
  Si  Si173  1  0.496784  0.746000  0.146243  1
  Si  Si174  1  0.496813  0.254134  0.146273  1
  Si  Si175  1  0.750955  0.254284  0.146211  1
  Si  Si176  1  0.751014  0.745686  0.146192  1
  Si  Si177  1  0.718490  0.000000  0.157125  1
  Si  Si178  1  0.561560  0.000000  0.157205  1
  Si  Si179  1  0.666355  0.362459  0.174830  1
  Si  Si180  1  0.666315  0.637701  0.174792  1
  Si  Si181  1  0.466347  0.363881  0.189027  1
  Si  Si182  1  0.375249  0.364116  0.219742  1
  Si  Si183  1  0.090998  0.364265  0.273110  1
  Si  Si184  1  0.091006  0.363727  0.219316  1
  Si  Si185  1  0.091006  0.635791  0.219212  1
  Si  Si186  1  0.466313  0.635964  0.188974  1
  Si  Si187  1  0.375275  0.636159  0.219707  1
  Si  Si188  1  0.091006  0.636318  0.272999  1
  Si  Si189  1  0.248904  0.254280  0.230211  1
  Si  Si190  1  0.248846  0.745689  0.230173  1
  Si  Si191  1  0.281303  0.000000  0.252082  1
  Si  Si192  1  0.333475  0.637700  0.287335  1
  Si  Si193  1  0.333435  0.362459  0.287358  1
  Si  Si194  1  0.908814  0.364268  0.242376  1
  Si  Si195  1  0.534765  0.364219  0.273543  1
  Si  Si196  1  0.625819  0.364068  0.242812  1
  Si  Si197  1  0.908831  0.363727  0.188583  1
  Si  Si198  1  0.534812  0.636288  0.273497  1
  Si  Si199  1  0.625850  0.636150  0.242761  1
  Si  Si200  1  0.908831  0.635792  0.188480  1
  Si  Si201  1  0.908806  0.636317  0.242262  1
  Si  Si202  1  0.751513  0.254335  0.232002  1
  Si  Si203  1  0.751511  0.746029  0.231951  1
  Si  Si204  1  0.718743  0.000000  0.210125  1
  Si  Si205  1  0.374005  0.364069  0.369002  1
  Si  Si206  1  0.373975  0.636150  0.368941  1
  Si  Si207  1  0.248260  0.254312  0.315809  1
  Si  Si208  1  0.248263  0.746051  0.315759  1
  Si  Si209  1  0.281023  0.000000  0.304992  1
  Si  Si210  1  0.438218  0.000000  0.305086  1
  Si  Si211  1  0.533487  0.363882  0.369004  1
  Si  Si212  1  0.533520  0.635963  0.368963  1
  Si  Si213  1  0.503004  0.745974  0.315948  1
  Si  Si214  1  0.502974  0.254159  0.315968  1
  Si  Si215  1  0.465069  0.364220  0.430436  1
  Si  Si216  1  0.465022  0.636289  0.430373  1
  Si  Si217  1  0.496784  0.746000  0.483546  1
  Si  Si218  1  0.496813  0.254134  0.483577  1
  Si  Si219  1  0.624592  0.364115  0.430436  1
  Si  Si220  1  0.624566  0.636160  0.430392  1
  Si  Si221  1  0.750955  0.254284  0.483514  1
  Si  Si222  1  0.751014  0.745686  0.483495  1
  Si  Si223  1  0.718490  0.000000  0.494428  1
  Si  Si224  1  0.561560  0.000000  0.494508  1
  Si  Si225  1  0.666355  0.362459  0.512133  1
  Si  Si226  1  0.666315  0.637701  0.512096  1
  Si  Si227  1  0.466347  0.363881  0.526331  1
  Si  Si228  1  0.375249  0.364116  0.557046  1
  Si  Si229  1  0.090998  0.364265  0.610414  1
  Si  Si230  1  0.091006  0.363727  0.556619  1
  Si  Si231  1  0.091006  0.635791  0.556516  1
  Si  Si232  1  0.466313  0.635964  0.526278  1
  Si  Si233  1  0.375275  0.636159  0.557011  1
  Si  Si234  1  0.091006  0.636318  0.610302  1
  Si  Si235  1  0.248904  0.254280  0.567515  1
  Si  Si236  1  0.248846  0.745689  0.567476  1
  Si  Si237  1  0.281303  -0.000000  0.589385  1
  Si  Si238  1  0.333475  0.637700  0.624638  1
  Si  Si239  1  0.333435  0.362459  0.624661  1
  Si  Si240  1  0.908814  0.364268  0.579680  1
  Si  Si241  1  0.534765  0.364219  0.610847  1
  Si  Si242  1  0.625819  0.364068  0.580116  1
  Si  Si243  1  0.908831  0.363727  0.525886  1
  Si  Si244  1  0.534812  0.636288  0.610800  1
  Si  Si245  1  0.625850  0.636150  0.580065  1
  Si  Si246  1  0.908831  0.635792  0.525784  1
  Si  Si247  1  0.908806  0.636317  0.579566  1
  Si  Si248  1  0.751513  0.254335  0.569305  1
  Si  Si249  1  0.751511  0.746029  0.569254  1
  Si  Si250  1  0.718743  0.000000  0.547429  1
  Si  Si251  1  0.248260  0.254312  0.653113  1
  Si  Si252  1  0.248263  0.746051  0.653063  1
  Si  Si253  1  0.281023  0.000000  0.642296  1
  Si  Si254  1  0.438218  0.000000  0.642389  1
  Si  Si255  1  0.503004  0.745974  0.653251  1
  Si  Si256  1  0.502974  0.254159  0.653272  1
  H  H257  1  0.457542  0.297342  0.100408  1
  H  H258  1  0.457518  0.703216  0.100345  1
  H  H259  1  0.700080  0.297075  0.100337  1
  H  H260  1  0.700057  0.703212  0.100292  1
  H  H261  1  0.298727  0.297143  0.699005  1
  H  H262  1  0.298526  0.702899  0.698935  1
  H  H263  1  0.541476  0.702734  0.699078  1
  H  H264  1  0.541422  0.297041  0.699124  1
