# generated using pymatgen
data_Si23H2O47
_symmetry_space_group_name_H-M   'P 1'
_cell_length_a   19.41225325
_cell_length_b   11.34454198
_cell_length_c   63.73331225
_cell_angle_alpha   90.00000000
_cell_angle_beta   120.00000000
_cell_angle_gamma   90.00000000
_symmetry_Int_Tables_number   1
_chemical_formula_structural   Si23H2O47
_chemical_formula_sum   'Si92 H8 O188'
_cell_volume   12155.1419858
_cell_formula_units_Z   4
loop_
 _symmetry_equiv_pos_site_id
 _symmetry_equiv_pos_as_xyz
  1  'x, y, z'
loop_
 _atom_site_type_symbol
 _atom_site_label
 _atom_site_symmetry_multiplicity
 _atom_site_fract_x
 _atom_site_fract_y
 _atom_site_fract_z
 _atom_site_occupancy
  O  O1  1  0.402983  0.661861  0.104710  1
  O  O2  1  0.403036  0.338497  0.104773  1
  O  O3  1  0.595493  0.338438  0.104776  1
  O  O4  1  0.595528  0.661596  0.104731  1
  O  O5  1  0.460513  0.500276  0.136211  1
  O  O6  1  0.458346  0.702740  0.196047  1
  O  O7  1  0.458399  0.297034  0.196106  1
  O  O8  1  0.457542  0.297342  0.153208  1
  O  O9  1  0.457518  0.703216  0.153152  1
  O  O10  1  0.700080  0.297075  0.153145  1
  O  O11  1  0.840813  0.296645  0.195791  1
  O  O12  1  0.840805  0.702937  0.195741  1
  O  O13  1  0.700057  0.703212  0.153104  1
  O  O14  1  0.641343  0.500143  0.136241  1
  O  O15  1  0.511945  0.882558  0.182854  1
  O  O16  1  0.550037  0.342289  0.135688  1
  O  O17  1  0.549981  0.658149  0.135624  1
  O  O18  1  0.580211  0.314263  0.193088  1
  O  O19  1  0.709984  0.316425  0.193193  1
  O  O20  1  0.709947  0.683524  0.193145  1
  O  O21  1  0.580164  0.685841  0.193023  1
  O  O22  1  0.743233  0.882140  0.182849  1
  O  O23  1  0.624749  0.000000  0.181060  1
  O  O24  1  0.743034  0.117826  0.182803  1
  O  O25  1  0.511950  0.117572  0.182792  1
  O  O26  1  0.664839  0.500082  0.206377  1
  O  O27  1  0.256604  0.882134  0.261084  1
  O  O28  1  0.256803  0.117832  0.261098  1
  O  O29  1  0.299780  0.297032  0.244513  1
  O  O30  1  0.159046  0.296644  0.244281  1
  O  O31  1  0.159055  0.702937  0.244233  1
  O  O32  1  0.299803  0.703256  0.244479  1
  O  O33  1  0.461904  0.499901  0.214031  1
  O  O34  1  0.358490  0.500143  0.245499  1
  O  O35  1  0.103322  0.500326  0.300126  1
  O  O36  1  0.103244  0.499723  0.245057  1
  O  O37  1  0.404345  0.338448  0.227998  1
  O  O38  1  0.375037  0.000000  0.295386  1
  O  O39  1  0.404311  0.661586  0.227942  1
  O  O40  1  0.449803  0.342304  0.272759  1
  O  O41  1  0.101364  0.342089  0.272373  1
  O  O42  1  0.449859  0.658133  0.272711  1
  O  O43  1  0.101465  0.657979  0.272269  1
  O  O44  1  0.289874  0.316507  0.281538  1
  O  O45  1  0.289912  0.683443  0.281501  1
  O  O46  1  0.250666  -0.000000  0.295322  1
  O  O47  1  0.743589  0.882558  0.253250  1
  O  O48  1  0.841139  0.297302  0.269724  1
  O  O49  1  0.701072  0.297103  0.269920  1
  O  O50  1  0.701274  0.702938  0.269918  1
  O  O51  1  0.841177  0.703406  0.269621  1
  O  O52  1  0.896476  0.500326  0.268611  1
  O  O53  1  0.539321  0.500276  0.300556  1
  O  O54  1  0.642558  0.500103  0.269071  1
  O  O55  1  0.896595  0.499724  0.213569  1
  O  O56  1  -0.000000  0.338852  0.286230  1
  O  O57  1  0.596792  0.338498  0.286620  1
  O  O58  1  0.596844  0.661859  0.286573  1
  O  O59  1  0.000000  0.338023  0.227591  1
  O  O60  1  0.743751  0.117821  0.253266  1
  O  O61  1  0.551333  0.341949  0.241841  1
  O  O62  1  0.898462  0.342097  0.241457  1
  O  O63  1  0.551267  0.658023  0.241787  1
  O  O64  1  0.898361  0.657972  0.241321  1
  O  O65  1  0.709705  0.315248  0.232622  1
  O  O66  1  0.709614  0.685172  0.232569  1
  O  O67  1  0.749106  0.000000  0.218884  1
  O  O68  1  0.624913  0.000000  0.218958  1
  O  O69  1  0.000000  0.661865  0.286095  1
  O  O70  1  0.000000  0.661429  0.227490  1
  O  O71  1  0.158653  0.297338  0.318108  1
  O  O72  1  0.298727  0.297143  0.360979  1
  O  O73  1  0.298526  0.702899  0.360915  1
  O  O74  1  0.158616  0.703369  0.317993  1
  O  O75  1  0.357271  0.500103  0.377953  1
  O  O76  1  0.487795  0.882523  0.331525  1
  O  O77  1  0.448493  0.341943  0.378512  1
  O  O78  1  0.448558  0.658030  0.378478  1
  O  O79  1  0.290129  0.314943  0.321048  1
  O  O80  1  0.419636  0.314484  0.320965  1
  O  O81  1  0.419684  0.685618  0.320916  1
  O  O82  1  0.290222  0.685475  0.321024  1
  O  O83  1  0.374860  0.000000  0.333230  1
  O  O84  1  0.255985  0.117781  0.331342  1
  O  O85  1  0.487790  0.117606  0.331461  1
  O  O86  1  0.256146  0.882598  0.331375  1
  O  O87  1  0.334623  0.500081  0.308515  1
  O  O88  1  0.402983  0.661861  0.409378  1
  O  O89  1  0.403036  0.338497  0.409442  1
  O  O90  1  0.537935  0.499901  0.377949  1
  O  O91  1  0.541476  0.702734  0.361044  1
  O  O92  1  0.541422  0.297041  0.361086  1
  O  O93  1  0.542273  0.297303  0.318451  1
  O  O94  1  0.542297  0.703254  0.318401  1
  O  O95  1  0.595493  0.338438  0.409445  1
  O  O96  1  0.595528  0.661596  0.409400  1
  O  O97  1  0.460513  0.500276  0.440880  1
  O  O98  1  0.458346  0.702740  0.500716  1
  O  O99  1  0.458399  0.297034  0.500775  1
  O  O100  1  0.457542  0.297342  0.457877  1
  O  O101  1  0.457518  0.703216  0.457820  1
  O  O102  1  0.700080  0.297075  0.457813  1
  O  O103  1  0.840813  0.296645  0.500459  1
  O  O104  1  0.840805  0.702937  0.500409  1
  O  O105  1  0.700057  0.703212  0.457773  1
  O  O106  1  0.641343  0.500143  0.440909  1
  O  O107  1  0.511945  0.882558  0.487523  1
  O  O108  1  0.550037  0.342289  0.440357  1
  O  O109  1  0.549981  0.658149  0.440293  1
  O  O110  1  0.580211  0.314263  0.497756  1
  O  O111  1  0.709984  0.316425  0.497861  1
  O  O112  1  0.709947  0.683524  0.497813  1
  O  O113  1  0.580164  0.685841  0.497692  1
  O  O114  1  0.743233  0.882140  0.487517  1
  O  O115  1  0.624749  0.000000  0.485729  1
  O  O116  1  0.743034  0.117826  0.487471  1
  O  O117  1  0.511950  0.117572  0.487461  1
  O  O118  1  0.664839  0.500082  0.511046  1
  O  O119  1  0.256604  0.882134  0.565753  1
  O  O120  1  0.256803  0.117832  0.565767  1
  O  O121  1  0.299780  0.297032  0.549181  1
  O  O122  1  0.159046  0.296644  0.548949  1
  O  O123  1  0.159055  0.702937  0.548902  1
  O  O124  1  0.299803  0.703256  0.549148  1
  O  O125  1  0.461904  0.499901  0.518700  1
  O  O126  1  0.358490  0.500143  0.550168  1
  O  O127  1  0.103322  0.500326  0.604794  1
  O  O128  1  0.103244  0.499723  0.549726  1
  O  O129  1  0.404345  0.338448  0.532666  1
  O  O130  1  0.375037  -0.000000  0.600055  1
  O  O131  1  0.404311  0.661586  0.532611  1
  O  O132  1  0.449803  0.342304  0.577427  1
  O  O133  1  0.101364  0.342089  0.577042  1
  O  O134  1  0.449859  0.658133  0.577380  1
  O  O135  1  0.101465  0.657979  0.576937  1
  O  O136  1  0.289874  0.316507  0.586207  1
  O  O137  1  0.289912  0.683443  0.586170  1
  O  O138  1  0.250666  0.000000  0.599990  1
  O  O139  1  0.743589  0.882558  0.557919  1
  O  O140  1  0.841139  0.297302  0.574393  1
  O  O141  1  0.701072  0.297103  0.574589  1
  O  O142  1  0.701274  0.702938  0.574587  1
  O  O143  1  0.841177  0.703406  0.574290  1
  O  O144  1  0.896476  0.500326  0.573279  1
  O  O145  1  0.539321  0.500276  0.605225  1
  O  O146  1  0.642558  0.500103  0.573739  1
  O  O147  1  0.896595  0.499724  0.518238  1
  O  O148  1  0.000000  0.338852  0.590899  1
  O  O149  1  0.596792  0.338498  0.591289  1
  O  O150  1  0.596844  0.661859  0.591242  1
  O  O151  1  0.000000  0.338023  0.532260  1
  O  O152  1  0.743751  0.117821  0.557935  1
  O  O153  1  0.551333  0.341949  0.546510  1
  O  O154  1  0.898462  0.342097  0.546125  1
  O  O155  1  0.551267  0.658023  0.546456  1
  O  O156  1  0.898361  0.657972  0.545990  1
  O  O157  1  0.709705  0.315248  0.537290  1
  O  O158  1  0.709614  0.685172  0.537238  1
  O  O159  1  0.749106  0.000000  0.523553  1
  O  O160  1  0.624913  0.000000  0.523627  1
  O  O161  1  0.000000  0.661865  0.590764  1
  O  O162  1  0.000000  0.661429  0.532159  1
  O  O163  1  0.158653  0.297338  0.622776  1
  O  O164  1  0.298727  0.297143  0.665648  1
  O  O165  1  0.298526  0.702899  0.665584  1
  O  O166  1  0.158616  0.703369  0.622661  1
  O  O167  1  0.357271  0.500103  0.682622  1
  O  O168  1  0.487795  0.882523  0.636193  1
  O  O169  1  0.448493  0.341943  0.683181  1
  O  O170  1  0.448558  0.658030  0.683147  1
  O  O171  1  0.290129  0.314943  0.625717  1
  O  O172  1  0.419636  0.314484  0.625634  1
  O  O173  1  0.419684  0.685618  0.625584  1
  O  O174  1  0.290222  0.685475  0.625692  1
  O  O175  1  0.374860  -0.000000  0.637899  1
  O  O176  1  0.255985  0.117781  0.636011  1
  O  O177  1  0.487790  0.117606  0.636130  1
  O  O178  1  0.256146  0.882598  0.636044  1
  O  O179  1  0.334623  0.500081  0.613184  1
  O  O180  1  0.402983  0.661861  0.714047  1
  O  O181  1  0.403036  0.338497  0.714111  1
  O  O182  1  0.537935  0.499901  0.682617  1
  O  O183  1  0.541476  0.702734  0.665713  1
  O  O184  1  0.541422  0.297041  0.665755  1
  O  O185  1  0.542273  0.297303  0.623119  1
  O  O186  1  0.542297  0.703254  0.623070  1
  O  O187  1  0.595493  0.338438  0.714113  1
  O  O188  1  0.595528  0.661596  0.714069  1
  Si  Si189  1  0.465069  0.364220  0.132516  1
  Si  Si190  1  0.465022  0.636289  0.132459  1
  Si  Si191  1  0.496784  0.746000  0.180488  1
  Si  Si192  1  0.496813  0.254134  0.180515  1
  Si  Si193  1  0.624592  0.364115  0.132516  1
  Si  Si194  1  0.624566  0.636160  0.132476  1
  Si  Si195  1  0.750955  0.254284  0.180459  1
  Si  Si196  1  0.751014  0.745686  0.180442  1
  Si  Si197  1  0.718490  0.000000  0.190317  1
  Si  Si198  1  0.561560  0.000000  0.190389  1
  Si  Si199  1  0.666355  0.362459  0.206309  1
  Si  Si200  1  0.666315  0.637701  0.206275  1
  Si  Si201  1  0.466347  0.363881  0.219133  1
  Si  Si202  1  0.375249  0.364116  0.246876  1
  Si  Si203  1  0.090998  0.364265  0.295081  1
  Si  Si204  1  0.091006  0.363727  0.246490  1
  Si  Si205  1  0.091006  0.635791  0.246397  1
  Si  Si206  1  0.466313  0.635964  0.219085  1
  Si  Si207  1  0.375275  0.636159  0.246844  1
  Si  Si208  1  0.091006  0.636318  0.294980  1
  Si  Si209  1  0.248904  0.254280  0.256332  1
  Si  Si210  1  0.248846  0.745689  0.256297  1
  Si  Si211  1  0.281303  0.000000  0.276086  1
  Si  Si212  1  0.333475  0.637700  0.307928  1
  Si  Si213  1  0.333435  0.362459  0.307949  1
  Si  Si214  1  0.908814  0.364268  0.267320  1
  Si  Si215  1  0.534765  0.364219  0.295471  1
  Si  Si216  1  0.625819  0.364068  0.267714  1
  Si  Si217  1  0.908831  0.363727  0.218731  1
  Si  Si218  1  0.534812  0.636288  0.295429  1
  Si  Si219  1  0.625850  0.636150  0.267668  1
  Si  Si220  1  0.908831  0.635792  0.218638  1
  Si  Si221  1  0.908806  0.636317  0.267217  1
  Si  Si222  1  0.751513  0.254335  0.257949  1
  Si  Si223  1  0.751511  0.746029  0.257903  1
  Si  Si224  1  0.718743  0.000000  0.238189  1
  Si  Si225  1  0.374005  0.364069  0.381695  1
  Si  Si226  1  0.373975  0.636150  0.381639  1
  Si  Si227  1  0.248260  0.254312  0.333648  1
  Si  Si228  1  0.248263  0.746051  0.333603  1
  Si  Si229  1  0.281023  0.000000  0.323878  1
  Si  Si230  1  0.438218  0.000000  0.323962  1
  Si  Si231  1  0.533487  0.363882  0.381697  1
  Si  Si232  1  0.533520  0.635963  0.381659  1
  Si  Si233  1  0.503004  0.745974  0.333773  1
  Si  Si234  1  0.502974  0.254159  0.333792  1
  Si  Si235  1  0.465069  0.364220  0.437184  1
  Si  Si236  1  0.465022  0.636289  0.437128  1
  Si  Si237  1  0.496784  0.746000  0.485156  1
  Si  Si238  1  0.496813  0.254134  0.485184  1
  Si  Si239  1  0.624592  0.364115  0.437184  1
  Si  Si240  1  0.624566  0.636160  0.437145  1
  Si  Si241  1  0.750955  0.254284  0.485127  1
  Si  Si242  1  0.751014  0.745686  0.485110  1
  Si  Si243  1  0.718490  0.000000  0.494985  1
  Si  Si244  1  0.561560  0.000000  0.495058  1
  Si  Si245  1  0.666355  0.362459  0.510977  1
  Si  Si246  1  0.666315  0.637701  0.510944  1
  Si  Si247  1  0.466347  0.363881  0.523801  1
  Si  Si248  1  0.375249  0.364116  0.551545  1
  Si  Si249  1  0.090998  0.364265  0.599749  1
  Si  Si250  1  0.091006  0.363727  0.551159  1
  Si  Si251  1  0.091006  0.635791  0.551066  1
  Si  Si252  1  0.466313  0.635964  0.523753  1
  Si  Si253  1  0.375275  0.636159  0.551513  1
  Si  Si254  1  0.091006  0.636318  0.599648  1
  Si  Si255  1  0.248904  0.254280  0.561001  1
  Si  Si256  1  0.248846  0.745689  0.560966  1
  Si  Si257  1  0.281303  0.000000  0.580755  1
  Si  Si258  1  0.333475  0.637700  0.612597  1
  Si  Si259  1  0.333435  0.362459  0.612618  1
  Si  Si260  1  0.908814  0.364268  0.571989  1
  Si  Si261  1  0.534765  0.364219  0.600140  1
  Si  Si262  1  0.625819  0.364068  0.572383  1
  Si  Si263  1  0.908831  0.363727  0.523400  1
  Si  Si264  1  0.534812  0.636288  0.600098  1
  Si  Si265  1  0.625850  0.636150  0.572336  1
  Si  Si266  1  0.908831  0.635792  0.523307  1
  Si  Si267  1  0.908806  0.636317  0.571885  1
  Si  Si268  1  0.751513  0.254335  0.562618  1
  Si  Si269  1  0.751511  0.746029  0.562572  1
  Si  Si270  1  0.718743  0.000000  0.542858  1
  Si  Si271  1  0.374005  0.364069  0.686363  1
  Si  Si272  1  0.373975  0.636150  0.686308  1
  Si  Si273  1  0.248260  0.254312  0.638317  1
  Si  Si274  1  0.248263  0.746051  0.638271  1
  Si  Si275  1  0.281023  0.000000  0.628546  1
  Si  Si276  1  0.438218  -0.000000  0.628631  1
  Si  Si277  1  0.533487  0.363882  0.686365  1
  Si  Si278  1  0.533520  0.635963  0.686327  1
  Si  Si279  1  0.503004  0.745974  0.638442  1
  Si  Si280  1  0.502974  0.254159  0.638460  1
  H  H281  1  0.402983  0.661861  0.090588  1
  H  H282  1  0.403036  0.338497  0.090652  1
  H  H283  1  0.595493  0.338438  0.090655  1
  H  H284  1  0.595528  0.661596  0.090610  1
  H  H285  1  0.402983  0.661861  0.728169  1
  H  H286  1  0.403036  0.338497  0.728232  1
  H  H287  1  0.595493  0.338438  0.728235  1
  H  H288  1  0.595528  0.661596  0.728190  1
