# generated using pymatgen
data_Si34H2O69
_symmetry_space_group_name_H-M   'P 1'
_cell_length_a   11.39954126
_cell_length_b   25.27156065
_cell_length_c   74.66028323
_cell_angle_alpha   90.00000000
_cell_angle_beta   90.00000000
_cell_angle_gamma   90.00000000
_symmetry_Int_Tables_number   1
_chemical_formula_structural   Si34H2O69
_chemical_formula_sum   'Si272 H16 O552'
_cell_volume   21508.4478411
_cell_formula_units_Z   8
loop_
 _symmetry_equiv_pos_site_id
 _symmetry_equiv_pos_as_xyz
  1  'x, y, z'
loop_
 _atom_site_type_symbol
 _atom_site_label
 _atom_site_symmetry_multiplicity
 _atom_site_fract_x
 _atom_site_fract_y
 _atom_site_fract_z
 _atom_site_occupancy
  O  O1  1  0.692572  0.800467  0.254008  1
  O  O2  1  0.307339  0.699481  0.254009  1
  O  O3  1  0.692561  0.699471  0.254008  1
  O  O4  1  0.307337  0.800478  0.254008  1
  O  O5  1  0.887944  0.836003  0.263016  1
  O  O6  1  0.111947  0.835998  0.263016  1
  O  O7  1  0.717458  0.899576  0.254004  1
  O  O8  1  0.282406  0.899584  0.254006  1
  O  O9  1  0.826249  0.838588  0.230338  1
  O  O10  1  0.173652  0.838591  0.230338  1
  O  O11  1  0.792129  0.898827  0.169536  1
  O  O12  1  0.207780  0.898829  0.169536  1
  O  O13  1  0.811307  0.800792  0.164261  1
  O  O14  1  0.188594  0.699167  0.164266  1
  O  O15  1  0.811302  0.699166  0.164262  1
  O  O16  1  0.188596  0.800793  0.164261  1
  O  O17  1  0.615368  0.834374  0.173848  1
  O  O18  1  0.384539  0.834376  0.173848  1
  O  O19  1  0.793426  0.832032  0.195952  1
  O  O20  1  0.206476  0.667907  0.195953  1
  O  O21  1  0.793440  0.667910  0.195950  1
  O  O22  1  0.206482  0.832033  0.195951  1
  O  O23  1  0.845512  0.749971  0.214175  1
  O  O24  1  0.154398  0.749973  0.214175  1
  O  O25  1  0.000000  0.819080  0.209626  1
  O  O26  1  0.000000  0.680863  0.209628  1
  O  O27  1  0.499933  0.928336  0.261346  1
  O  O28  1  0.657929  -0.000000  0.261091  1
  O  O29  1  0.845567  0.929778  0.137532  1
  O  O30  1  0.000000  0.930209  0.161294  1
  O  O31  1  0.499953  0.749977  0.259020  1
  O  O32  1  0.656942  0.749969  0.282888  1
  O  O33  1  0.342964  0.749983  0.282889  1
  O  O34  1  0.000000  0.749978  0.159056  1
  O  O35  1  0.499960  0.819674  0.144740  1
  O  O36  1  0.499944  0.680266  0.144741  1
  O  O37  1  0.000000  0.749975  0.268184  1
  O  O38  1  0.499947  0.749973  0.168583  1
  O  O39  1  0.154343  0.929781  0.137532  1
  O  O40  1  0.341948  0.000000  0.261093  1
  O  O41  1  0.611942  0.336006  0.159732  1
  O  O42  1  0.111958  0.663952  0.263017  1
  O  O43  1  0.887953  0.663947  0.263013  1
  O  O44  1  0.387939  0.336003  0.159732  1
  O  O45  1  0.782420  0.399585  0.168742  1
  O  O46  1  0.282436  0.600373  0.254007  1
  O  O47  1  0.717482  0.600364  0.254005  1
  O  O48  1  0.217473  0.399587  0.168743  1
  O  O49  1  0.673665  0.338592  0.192409  1
  O  O50  1  0.173663  0.661359  0.230340  1
  O  O51  1  0.826235  0.661354  0.230337  1
  O  O52  1  0.326244  0.338594  0.192409  1
  O  O53  1  0.707769  0.398819  0.253215  1
  O  O54  1  0.207767  0.601129  0.169531  1
  O  O55  1  0.792120  0.601129  0.169529  1
  O  O56  1  0.292116  0.398827  0.253215  1
  O  O57  1  0.884534  0.334373  0.248900  1
  O  O58  1  0.384532  0.665573  0.173849  1
  O  O59  1  0.615367  0.665576  0.173849  1
  O  O60  1  0.115365  0.334372  0.248899  1
  O  O61  1  0.000000  0.428342  0.161401  1
  O  O62  1  0.499960  0.571610  0.261347  1
  O  O63  1  0.154332  0.570172  0.137526  1
  O  O64  1  0.841954  0.499500  0.161654  1
  O  O65  1  0.341962  0.500455  0.261092  1
  O  O66  1  0.657943  0.500449  0.261091  1
  O  O67  1  0.157934  0.499502  0.161655  1
  O  O68  1  0.499946  0.430202  0.261457  1
  O  O69  1  0.000000  0.569751  0.161287  1
  O  O70  1  0.845557  0.570169  0.137525  1
  O  O71  1  0.654336  0.429773  0.285218  1
  O  O72  1  0.345561  0.429778  0.285219  1
  O  O73  1  0.807330  0.300478  0.168736  1
  O  O74  1  0.192563  0.199484  0.168741  1
  O  O75  1  0.807331  0.199481  0.168741  1
  O  O76  1  0.192554  0.300481  0.168740  1
  O  O77  1  0.387944  0.163955  0.159733  1
  O  O78  1  0.611949  0.163951  0.159735  1
  O  O79  1  0.217472  0.100376  0.168743  1
  O  O80  1  0.782428  0.100373  0.168743  1
  O  O81  1  0.326244  0.161363  0.192410  1
  O  O82  1  0.673659  0.161358  0.192411  1
  O  O83  1  0.292124  0.101127  0.253217  1
  O  O84  1  0.707767  0.101121  0.253215  1
  O  O85  1  0.688597  0.300783  0.258486  1
  O  O86  1  0.311297  0.199165  0.258486  1
  O  O87  1  0.688591  0.199157  0.258487  1
  O  O88  1  0.311309  0.300791  0.258484  1
  O  O89  1  0.115364  0.165574  0.248899  1
  O  O90  1  0.884531  0.165569  0.248901  1
  O  O91  1  0.706475  0.332033  0.226796  1
  O  O92  1  0.293431  0.167914  0.226797  1
  O  O93  1  0.706472  0.167915  0.226798  1
  O  O94  1  0.293429  0.332042  0.226796  1
  O  O95  1  0.654393  0.249976  0.208572  1
  O  O96  1  0.345506  0.249978  0.208574  1
  O  O97  1  0.499953  0.319086  0.213120  1
  O  O98  1  0.499950  0.180870  0.213122  1
  O  O99  1  0.000000  0.071616  0.161402  1
  O  O100  1  0.841962  0.000000  0.161658  1
  O  O101  1  0.345564  0.070170  0.285222  1
  O  O102  1  0.499945  0.069744  0.261459  1
  O  O103  1  0.000000  0.249978  0.163728  1
  O  O104  1  0.842959  0.249966  0.139859  1
  O  O105  1  0.156938  0.249977  0.139860  1
  O  O106  1  0.499948  0.249973  0.263692  1
  O  O107  1  0.000000  0.319674  0.278007  1
  O  O108  1  0.000000  0.180267  0.278008  1
  O  O109  1  0.499951  0.249978  0.154565  1
  O  O110  1  0.000000  0.249972  0.254165  1
  O  O111  1  0.157945  0.000000  0.161659  1
  O  O112  1  0.654340  0.070163  0.285219  1
  O  O113  1  0.192566  0.800470  0.106240  1
  O  O114  1  0.807337  0.699471  0.106237  1
  O  O115  1  0.192577  0.699472  0.106237  1
  O  O116  1  0.807348  0.800467  0.106236  1
  O  O117  1  0.387957  0.835995  0.115245  1
  O  O118  1  0.611962  0.835990  0.115244  1
  O  O119  1  0.217480  0.899577  0.106239  1
  O  O120  1  0.782433  0.899575  0.106237  1
  O  O121  1  0.326233  0.838590  0.082569  1
  O  O122  1  0.673667  0.838591  0.082568  1
  O  O123  1  0.000000  0.928333  0.113579  1
  O  O124  1  0.157943  0.000000  0.113323  1
  O  O125  1  0.841963  0.000000  0.113323  1
  O  O126  1  0.000000  0.749965  0.111249  1
  O  O127  1  0.156943  0.749966  0.135119  1
  O  O128  1  0.842966  0.749975  0.135117  1
  O  O129  1  0.499950  0.749967  0.120413  1
  O  O130  1  0.611957  0.663943  0.115246  1
  O  O131  1  0.387954  0.663939  0.115244  1
  O  O132  1  0.782421  0.600363  0.106231  1
  O  O133  1  0.217473  0.600364  0.106232  1
  O  O134  1  0.673642  0.661360  0.082568  1
  O  O135  1  0.326247  0.661355  0.082566  1
  O  O136  1  0.207781  0.398820  0.105445  1
  O  O137  1  0.792129  0.398815  0.105444  1
  O  O138  1  0.384536  0.334368  0.101128  1
  O  O139  1  0.615368  0.334368  0.101129  1
  O  O140  1  0.000000  0.571606  0.113572  1
  O  O141  1  0.841957  0.500446  0.113318  1
  O  O142  1  0.157940  0.500449  0.113320  1
  O  O143  1  0.000000  0.430199  0.113686  1
  O  O144  1  0.845562  0.429778  0.137448  1
  O  O145  1  0.154335  0.429780  0.137449  1
  O  O146  1  0.792126  0.101116  0.105444  1
  O  O147  1  0.207773  0.101121  0.105445  1
  O  O148  1  0.188595  0.300784  0.110714  1
  O  O149  1  0.811314  0.199152  0.110713  1
  O  O150  1  0.188607  0.199158  0.110717  1
  O  O151  1  0.811308  0.300778  0.110714  1
  O  O152  1  0.615370  0.165569  0.101129  1
  O  O153  1  0.384541  0.165567  0.101131  1
  O  O154  1  0.206471  0.332035  0.079026  1
  O  O155  1  0.793429  0.167903  0.079025  1
  O  O156  1  0.206484  0.167914  0.079027  1
  O  O157  1  0.793424  0.332028  0.079025  1
  O  O158  1  -0.000000  0.069741  0.113687  1
  O  O159  1  0.000000  0.249967  0.115921  1
  O  O160  1  0.499948  0.319677  0.130237  1
  O  O161  1  0.499962  0.180269  0.130238  1
  O  O162  1  0.499952  0.249969  0.106395  1
  O  O163  1  0.154340  0.070172  0.137449  1
  O  O164  1  0.845560  0.070169  0.137449  1
  O  O165  1  0.692572  0.800467  0.549549  1
  O  O166  1  0.307339  0.699481  0.549551  1
  O  O167  1  0.692561  0.699471  0.549549  1
  O  O168  1  0.307337  0.800478  0.549549  1
  O  O169  1  0.887944  0.836003  0.558557  1
  O  O170  1  0.111947  0.835998  0.558557  1
  O  O171  1  0.717458  0.899576  0.549545  1
  O  O172  1  0.282406  0.899584  0.549547  1
  O  O173  1  0.826249  0.838588  0.525879  1
  O  O174  1  0.173652  0.838591  0.525879  1
  O  O175  1  0.792129  0.898827  0.465077  1
  O  O176  1  0.207780  0.898829  0.465077  1
  O  O177  1  0.811307  0.800792  0.459803  1
  O  O178  1  0.188594  0.699167  0.459807  1
  O  O179  1  0.811302  0.699166  0.459803  1
  O  O180  1  0.188596  0.800793  0.459803  1
  O  O181  1  0.615368  0.834374  0.469390  1
  O  O182  1  0.384539  0.834376  0.469389  1
  O  O183  1  0.793426  0.832032  0.491493  1
  O  O184  1  0.206476  0.667907  0.491494  1
  O  O185  1  0.793440  0.667910  0.491491  1
  O  O186  1  0.206482  0.832033  0.491493  1
  O  O187  1  0.845512  0.749971  0.509716  1
  O  O188  1  0.154398  0.749973  0.509717  1
  O  O189  1  0.000000  0.819080  0.505167  1
  O  O190  1  0.000000  0.680863  0.505169  1
  O  O191  1  0.499933  0.928336  0.556887  1
  O  O192  1  0.657929  -0.000000  0.556632  1
  O  O193  1  0.845567  0.929778  0.433073  1
  O  O194  1  0.000000  0.930209  0.456835  1
  O  O195  1  0.499953  0.749977  0.554561  1
  O  O196  1  0.656942  0.749969  0.578430  1
  O  O197  1  0.342964  0.749983  0.578430  1
  O  O198  1  -0.000000  0.749978  0.454597  1
  O  O199  1  0.499960  0.819674  0.440281  1
  O  O200  1  0.499944  0.680266  0.440282  1
  O  O201  1  -0.000000  0.749975  0.563725  1
  O  O202  1  0.499947  0.749973  0.464124  1
  O  O203  1  0.154343  0.929781  0.433073  1
  O  O204  1  0.341948  0.000000  0.556635  1
  O  O205  1  0.611942  0.336006  0.455274  1
  O  O206  1  0.111958  0.663952  0.558558  1
  O  O207  1  0.887953  0.663947  0.558554  1
  O  O208  1  0.387939  0.336003  0.455273  1
  O  O209  1  0.782420  0.399585  0.464283  1
  O  O210  1  0.282436  0.600373  0.549548  1
  O  O211  1  0.717482  0.600364  0.549546  1
  O  O212  1  0.217473  0.399587  0.464284  1
  O  O213  1  0.673665  0.338592  0.487950  1
  O  O214  1  0.173663  0.661359  0.525881  1
  O  O215  1  0.826235  0.661354  0.525878  1
  O  O216  1  0.326244  0.338594  0.487950  1
  O  O217  1  0.707769  0.398819  0.548756  1
  O  O218  1  0.207767  0.601129  0.465072  1
  O  O219  1  0.792120  0.601129  0.465070  1
  O  O220  1  0.292116  0.398827  0.548756  1
  O  O221  1  0.884534  0.334373  0.544441  1
  O  O222  1  0.384532  0.665573  0.469390  1
  O  O223  1  0.615367  0.665576  0.469390  1
  O  O224  1  0.115365  0.334372  0.544440  1
  O  O225  1  0.000000  0.428342  0.456943  1
  O  O226  1  0.499960  0.571610  0.556888  1
  O  O227  1  0.154332  0.570172  0.433067  1
  O  O228  1  0.841954  0.499500  0.457195  1
  O  O229  1  0.341962  0.500455  0.556633  1
  O  O230  1  0.657943  0.500449  0.556632  1
  O  O231  1  0.157934  0.499502  0.457196  1
  O  O232  1  0.499946  0.430202  0.556998  1
  O  O233  1  -0.000000  0.569751  0.456828  1
  O  O234  1  0.845557  0.570169  0.433066  1
  O  O235  1  0.654336  0.429773  0.580760  1
  O  O236  1  0.345561  0.429778  0.580760  1
  O  O237  1  0.807330  0.300478  0.464278  1
  O  O238  1  0.192563  0.199484  0.464282  1
  O  O239  1  0.807331  0.199481  0.464283  1
  O  O240  1  0.192554  0.300481  0.464281  1
  O  O241  1  0.387944  0.163955  0.455274  1
  O  O242  1  0.611949  0.163951  0.455276  1
  O  O243  1  0.217472  0.100376  0.464284  1
  O  O244  1  0.782428  0.100373  0.464284  1
  O  O245  1  0.326244  0.161363  0.487951  1
  O  O246  1  0.673659  0.161358  0.487952  1
  O  O247  1  0.292124  0.101127  0.548758  1
  O  O248  1  0.707767  0.101121  0.548756  1
  O  O249  1  0.688597  0.300783  0.554027  1
  O  O250  1  0.311297  0.199165  0.554027  1
  O  O251  1  0.688591  0.199157  0.554028  1
  O  O252  1  0.311309  0.300791  0.554026  1
  O  O253  1  0.115364  0.165574  0.544440  1
  O  O254  1  0.884531  0.165569  0.544442  1
  O  O255  1  0.706475  0.332033  0.522338  1
  O  O256  1  0.293431  0.167914  0.522339  1
  O  O257  1  0.706472  0.167915  0.522339  1
  O  O258  1  0.293429  0.332042  0.522337  1
  O  O259  1  0.654393  0.249976  0.504114  1
  O  O260  1  0.345506  0.249978  0.504115  1
  O  O261  1  0.499953  0.319086  0.508661  1
  O  O262  1  0.499950  0.180870  0.508663  1
  O  O263  1  -0.000000  0.071616  0.456943  1
  O  O264  1  0.841962  0.000000  0.457200  1
  O  O265  1  0.345564  0.070170  0.580763  1
  O  O266  1  0.499945  0.069744  0.557000  1
  O  O267  1  -0.000000  0.249978  0.459269  1
  O  O268  1  0.842959  0.249966  0.435400  1
  O  O269  1  0.156938  0.249977  0.435401  1
  O  O270  1  0.499948  0.249973  0.559234  1
  O  O271  1  0.000000  0.319674  0.573548  1
  O  O272  1  0.000000  0.180267  0.573549  1
  O  O273  1  0.499951  0.249978  0.450106  1
  O  O274  1  0.000000  0.249972  0.549706  1
  O  O275  1  0.157945  0.000000  0.457200  1
  O  O276  1  0.654340  0.070163  0.580761  1
  O  O277  1  0.192566  0.800470  0.401781  1
  O  O278  1  0.807337  0.699471  0.401778  1
  O  O279  1  0.192577  0.699472  0.401778  1
  O  O280  1  0.807348  0.800467  0.401777  1
  O  O281  1  0.387957  0.835995  0.410787  1
  O  O282  1  0.611962  0.835990  0.410786  1
  O  O283  1  0.217480  0.899577  0.401780  1
  O  O284  1  0.782433  0.899575  0.401779  1
  O  O285  1  0.326233  0.838590  0.378111  1
  O  O286  1  0.673667  0.838591  0.378109  1
  O  O287  1  0.292123  0.898821  0.317304  1
  O  O288  1  0.707777  0.898815  0.317301  1
  O  O289  1  0.311312  0.800785  0.312036  1
  O  O290  1  0.688595  0.699152  0.312033  1
  O  O291  1  0.311299  0.699159  0.312031  1
  O  O292  1  0.688597  0.800778  0.312033  1
  O  O293  1  0.115366  0.834371  0.321619  1
  O  O294  1  0.884533  0.834366  0.321620  1
  O  O295  1  0.293422  0.832037  0.343724  1
  O  O296  1  0.706473  0.667910  0.343722  1
  O  O297  1  0.293418  0.667917  0.343721  1
  O  O298  1  0.706462  0.832036  0.343722  1
  O  O299  1  0.345504  0.749975  0.361947  1
  O  O300  1  0.654389  0.749975  0.361945  1
  O  O301  1  0.499945  0.819085  0.357400  1
  O  O302  1  0.499945  0.680868  0.357396  1
  O  O303  1  0.000000  0.928333  0.409120  1
  O  O304  1  0.157943  -0.000000  0.408864  1
  O  O305  1  0.841963  -0.000000  0.408864  1
  O  O306  1  0.499949  0.930197  0.309061  1
  O  O307  1  -0.000000  0.749965  0.406790  1
  O  O308  1  0.156943  0.749966  0.430660  1
  O  O309  1  0.842966  0.749975  0.430658  1
  O  O310  1  0.499952  0.749967  0.306826  1
  O  O311  1  0.000000  0.819676  0.292511  1
  O  O312  1  0.000000  0.680268  0.292510  1
  O  O313  1  0.499950  0.749967  0.415954  1
  O  O314  1  0.000000  0.749969  0.316353  1
  O  O315  1  0.654328  0.929772  0.285298  1
  O  O316  1  0.345553  0.929778  0.285300  1
  O  O317  1  0.111950  0.335998  0.307503  1
  O  O318  1  0.611957  0.663943  0.410787  1
  O  O319  1  0.387954  0.663939  0.410785  1
  O  O320  1  0.887945  0.335990  0.307503  1
  O  O321  1  0.282426  0.399579  0.316513  1
  O  O322  1  0.782421  0.600363  0.401772  1
  O  O323  1  0.217473  0.600364  0.401773  1
  O  O324  1  0.717475  0.399572  0.316512  1
  O  O325  1  0.173654  0.338590  0.340181  1
  O  O326  1  0.673642  0.661360  0.378109  1
  O  O327  1  0.326247  0.661355  0.378108  1
  O  O328  1  0.826244  0.338583  0.340180  1
  O  O329  1  0.207781  0.398820  0.400986  1
  O  O330  1  0.707787  0.601117  0.317304  1
  O  O331  1  0.292143  0.601122  0.317304  1
  O  O332  1  0.792129  0.398815  0.400985  1
  O  O333  1  0.384536  0.334368  0.396669  1
  O  O334  1  0.884536  0.665571  0.321620  1
  O  O335  1  0.115366  0.665565  0.321616  1
  O  O336  1  0.615368  0.334368  0.396670  1
  O  O337  1  0.499953  0.428332  0.309172  1
  O  O338  1  0.000000  0.571606  0.409113  1
  O  O339  1  0.341968  0.499493  0.309427  1
  O  O340  1  0.841957  0.500446  0.408859  1
  O  O341  1  0.157940  0.500449  0.408861  1
  O  O342  1  0.657950  0.499488  0.309427  1
  O  O343  1  0.000000  0.430199  0.409227  1
  O  O344  1  0.499966  0.569739  0.309062  1
  O  O345  1  0.654353  0.570164  0.285299  1
  O  O346  1  0.345575  0.570169  0.285300  1
  O  O347  1  0.845562  0.429778  0.432989  1
  O  O348  1  0.154335  0.429780  0.432990  1
  O  O349  1  0.307333  0.300471  0.316511  1
  O  O350  1  0.692559  0.199467  0.316511  1
  O  O351  1  0.307329  0.199475  0.316509  1
  O  O352  1  0.692562  0.300464  0.316511  1
  O  O353  1  0.887945  0.163947  0.307502  1
  O  O354  1  0.111950  0.163940  0.307505  1
  O  O355  1  0.717488  0.100360  0.316513  1
  O  O356  1  0.282437  0.100366  0.316515  1
  O  O357  1  0.826257  0.161352  0.340179  1
  O  O358  1  0.173668  0.161356  0.340181  1
  O  O359  1  0.792126  0.101116  0.400985  1
  O  O360  1  0.207773  0.101121  0.400986  1
  O  O361  1  0.188595  0.300784  0.406256  1
  O  O362  1  0.811314  0.199152  0.406255  1
  O  O363  1  0.188607  0.199158  0.406258  1
  O  O364  1  0.811308  0.300778  0.406255  1
  O  O365  1  0.615370  0.165569  0.396670  1
  O  O366  1  0.384541  0.165567  0.396672  1
  O  O367  1  0.206471  0.332035  0.374567  1
  O  O368  1  0.793429  0.167903  0.374566  1
  O  O369  1  0.206484  0.167914  0.374568  1
  O  O370  1  0.793424  0.332028  0.374567  1
  O  O371  1  0.154396  0.249973  0.356344  1
  O  O372  1  0.845511  0.249966  0.356343  1
  O  O373  1  0.000000  0.319078  0.360892  1
  O  O374  1  -0.000000  0.180861  0.360892  1
  O  O375  1  0.499960  0.071606  0.309174  1
  O  O376  1  0.657945  0.000000  0.309427  1
  O  O377  1  0.341964  -0.000000  0.309429  1
  O  O378  1  -0.000000  0.069741  0.409229  1
  O  O379  1  0.499944  0.249969  0.311499  1
  O  O380  1  0.342957  0.249979  0.287630  1
  O  O381  1  0.656934  0.249970  0.287631  1
  O  O382  1  0.000000  0.249967  0.411463  1
  O  O383  1  0.499948  0.319677  0.425778  1
  O  O384  1  0.499962  0.180269  0.425779  1
  O  O385  1  0.000000  0.249969  0.302335  1
  O  O386  1  0.499952  0.249969  0.401936  1
  O  O387  1  0.154340  0.070172  0.432991  1
  O  O388  1  0.845560  0.070169  0.432990  1
  O  O389  1  0.792129  0.898827  0.760618  1
  O  O390  1  0.207780  0.898829  0.760618  1
  O  O391  1  0.811307  0.800792  0.755344  1
  O  O392  1  0.188594  0.699167  0.755348  1
  O  O393  1  0.811302  0.699166  0.755344  1
  O  O394  1  0.188596  0.800793  0.755344  1
  O  O395  1  0.615368  0.834374  0.764931  1
  O  O396  1  0.384539  0.834376  0.764930  1
  O  O397  1  0.793426  0.832032  0.787034  1
  O  O398  1  0.206476  0.667907  0.787035  1
  O  O399  1  0.793440  0.667910  0.787032  1
  O  O400  1  0.206482  0.832033  0.787034  1
  O  O401  1  0.845567  0.929778  0.728614  1
  O  O402  1  -0.000000  0.930209  0.752377  1
  O  O403  1  0.000000  0.749978  0.750138  1
  O  O404  1  0.499960  0.819674  0.735822  1
  O  O405  1  0.499944  0.680266  0.735823  1
  O  O406  1  0.499947  0.749973  0.759665  1
  O  O407  1  0.154343  0.929781  0.728615  1
  O  O408  1  0.611942  0.336006  0.750815  1
  O  O409  1  0.387939  0.336003  0.750814  1
  O  O410  1  0.782420  0.399585  0.759824  1
  O  O411  1  0.217473  0.399587  0.759825  1
  O  O412  1  0.673665  0.338592  0.783492  1
  O  O413  1  0.326244  0.338594  0.783492  1
  O  O414  1  0.207767  0.601129  0.760613  1
  O  O415  1  0.792120  0.601129  0.760611  1
  O  O416  1  0.384532  0.665573  0.764932  1
  O  O417  1  0.615367  0.665576  0.764931  1
  O  O418  1  0.000000  0.428342  0.752484  1
  O  O419  1  0.154332  0.570172  0.728608  1
  O  O420  1  0.841954  0.499500  0.752736  1
  O  O421  1  0.157934  0.499502  0.752737  1
  O  O422  1  -0.000000  0.569751  0.752370  1
  O  O423  1  0.845557  0.570169  0.728607  1
  O  O424  1  0.807330  0.300478  0.759819  1
  O  O425  1  0.192563  0.199484  0.759824  1
  O  O426  1  0.807331  0.199481  0.759824  1
  O  O427  1  0.192554  0.300481  0.759822  1
  O  O428  1  0.387944  0.163955  0.750816  1
  O  O429  1  0.611949  0.163951  0.750817  1
  O  O430  1  0.217472  0.100376  0.759825  1
  O  O431  1  0.782428  0.100373  0.759825  1
  O  O432  1  0.326244  0.161363  0.783493  1
  O  O433  1  0.673659  0.161358  0.783494  1
  O  O434  1  0.000000  0.071616  0.752485  1
  O  O435  1  0.841962  0.000000  0.752741  1
  O  O436  1  0.000000  0.249978  0.754810  1
  O  O437  1  0.842959  0.249966  0.730941  1
  O  O438  1  0.156938  0.249977  0.730943  1
  O  O439  1  0.499951  0.249978  0.745647  1
  O  O440  1  0.157945  0.000000  0.752741  1
  O  O441  1  0.192566  0.800470  0.697323  1
  O  O442  1  0.807337  0.699471  0.697320  1
  O  O443  1  0.192577  0.699472  0.697320  1
  O  O444  1  0.807348  0.800467  0.697318  1
  O  O445  1  0.387957  0.835995  0.706328  1
  O  O446  1  0.611962  0.835990  0.706327  1
  O  O447  1  0.217480  0.899577  0.697321  1
  O  O448  1  0.782433  0.899575  0.697320  1
  O  O449  1  0.326233  0.838590  0.673652  1
  O  O450  1  0.673667  0.838591  0.673650  1
  O  O451  1  0.292123  0.898821  0.612846  1
  O  O452  1  0.707777  0.898815  0.612842  1
  O  O453  1  0.311312  0.800785  0.607577  1
  O  O454  1  0.688595  0.699152  0.607574  1
  O  O455  1  0.311299  0.699159  0.607572  1
  O  O456  1  0.688597  0.800778  0.607575  1
  O  O457  1  0.115366  0.834371  0.617161  1
  O  O458  1  0.884533  0.834366  0.617162  1
  O  O459  1  0.293422  0.832037  0.639265  1
  O  O460  1  0.706473  0.667910  0.639264  1
  O  O461  1  0.293418  0.667917  0.639262  1
  O  O462  1  0.706462  0.832036  0.639263  1
  O  O463  1  0.345504  0.749975  0.657488  1
  O  O464  1  0.654389  0.749975  0.657486  1
  O  O465  1  0.499945  0.819085  0.652941  1
  O  O466  1  0.499945  0.680868  0.652937  1
  O  O467  1  0.000000  0.928333  0.704662  1
  O  O468  1  0.157943  -0.000000  0.704405  1
  O  O469  1  0.841963  -0.000000  0.704405  1
  O  O470  1  0.499949  0.930197  0.604602  1
  O  O471  1  -0.000000  0.749965  0.702331  1
  O  O472  1  0.156943  0.749966  0.726201  1
  O  O473  1  0.842966  0.749975  0.726199  1
  O  O474  1  0.499952  0.749967  0.602368  1
  O  O475  1  -0.000000  0.819676  0.588053  1
  O  O476  1  0.000000  0.680268  0.588052  1
  O  O477  1  0.499950  0.749967  0.711496  1
  O  O478  1  0.000000  0.749969  0.611895  1
  O  O479  1  0.654328  0.929772  0.580839  1
  O  O480  1  0.345553  0.929778  0.580842  1
  O  O481  1  0.111950  0.335998  0.603045  1
  O  O482  1  0.611957  0.663943  0.706328  1
  O  O483  1  0.387954  0.663939  0.706327  1
  O  O484  1  0.887945  0.335990  0.603044  1
  O  O485  1  0.282426  0.399579  0.612054  1
  O  O486  1  0.782421  0.600363  0.697313  1
  O  O487  1  0.217473  0.600364  0.697314  1
  O  O488  1  0.717475  0.399572  0.612053  1
  O  O489  1  0.173654  0.338590  0.635722  1
  O  O490  1  0.673642  0.661360  0.673650  1
  O  O491  1  0.326247  0.661355  0.673649  1
  O  O492  1  0.826244  0.338583  0.635721  1
  O  O493  1  0.207781  0.398820  0.696528  1
  O  O494  1  0.707787  0.601117  0.612846  1
  O  O495  1  0.292143  0.601122  0.612845  1
  O  O496  1  0.792129  0.398815  0.696526  1
  O  O497  1  0.384536  0.334368  0.692211  1
  O  O498  1  0.884536  0.665571  0.617161  1
  O  O499  1  0.115366  0.665565  0.617158  1
  O  O500  1  0.615368  0.334368  0.692212  1
  O  O501  1  0.499953  0.428332  0.604713  1
  O  O502  1  0.000000  0.571606  0.704654  1
  O  O503  1  0.341968  0.499493  0.604969  1
  O  O504  1  0.841957  0.500446  0.704401  1
  O  O505  1  0.157940  0.500449  0.704402  1
  O  O506  1  0.657950  0.499488  0.604968  1
  O  O507  1  0.000000  0.430199  0.704769  1
  O  O508  1  0.499966  0.569739  0.604603  1
  O  O509  1  0.654353  0.570164  0.580841  1
  O  O510  1  0.345575  0.570169  0.580842  1
  O  O511  1  0.845562  0.429778  0.728530  1
  O  O512  1  0.154335  0.429780  0.728531  1
  O  O513  1  0.307333  0.300471  0.612052  1
  O  O514  1  0.692559  0.199467  0.612052  1
  O  O515  1  0.307329  0.199475  0.612051  1
  O  O516  1  0.692562  0.300464  0.612052  1
  O  O517  1  0.887945  0.163947  0.603043  1
  O  O518  1  0.111950  0.163940  0.603046  1
  O  O519  1  0.717488  0.100360  0.612054  1
  O  O520  1  0.282437  0.100366  0.612057  1
  O  O521  1  0.826257  0.161352  0.635720  1
  O  O522  1  0.173668  0.161356  0.635723  1
  O  O523  1  0.792126  0.101116  0.696526  1
  O  O524  1  0.207773  0.101121  0.696527  1
  O  O525  1  0.188595  0.300784  0.701797  1
  O  O526  1  0.811314  0.199152  0.701796  1
  O  O527  1  0.188607  0.199158  0.701799  1
  O  O528  1  0.811308  0.300778  0.701797  1
  O  O529  1  0.615370  0.165569  0.692212  1
  O  O530  1  0.384541  0.165567  0.692213  1
  O  O531  1  0.206471  0.332035  0.670109  1
  O  O532  1  0.793429  0.167903  0.670107  1
  O  O533  1  0.206484  0.167914  0.670109  1
  O  O534  1  0.793424  0.332028  0.670108  1
  O  O535  1  0.154396  0.249973  0.651885  1
  O  O536  1  0.845511  0.249966  0.651884  1
  O  O537  1  0.000000  0.319078  0.656433  1
  O  O538  1  0.000000  0.180861  0.656434  1
  O  O539  1  0.499960  0.071606  0.604715  1
  O  O540  1  0.657945  -0.000000  0.604968  1
  O  O541  1  0.341964  0.000000  0.604970  1
  O  O542  1  -0.000000  0.069741  0.704770  1
  O  O543  1  0.499944  0.249969  0.607041  1
  O  O544  1  0.342957  0.249979  0.583171  1
  O  O545  1  0.656934  0.249970  0.583172  1
  O  O546  1  -0.000000  0.249967  0.707004  1
  O  O547  1  0.499948  0.319677  0.721319  1
  O  O548  1  0.499962  0.180269  0.721321  1
  O  O549  1  -0.000000  0.249969  0.597876  1
  O  O550  1  0.499952  0.249969  0.697477  1
  O  O551  1  0.154340  0.070172  0.728532  1
  O  O552  1  0.845560  0.070169  0.728531  1
  Si  Si553  1  0.499947  0.688803  0.165504  1
  Si  Si554  1  0.499953  0.811144  0.165503  1
  Si  Si555  1  0.782160  0.845800  0.250042  1
  Si  Si556  1  0.217729  0.845804  0.250042  1
  Si  Si557  1  0.750753  0.843023  0.176386  1
  Si  Si558  1  0.249153  0.843024  0.176385  1
  Si  Si559  1  0.864505  0.811169  0.212436  1
  Si  Si560  1  0.135403  0.688775  0.212438  1
  Si  Si561  1  0.864506  0.688774  0.212435  1
  Si  Si562  1  0.135402  0.811170  0.212436  1
  Si  Si563  1  0.635223  0.938661  0.264613  1
  Si  Si564  1  0.364648  0.938667  0.264615  1
  Si  Si565  1  0.864798  0.939639  0.158157  1
  Si  Si566  1  0.135111  0.939641  0.158158  1
  Si  Si567  1  0.635315  0.749971  0.262186  1
  Si  Si568  1  0.364592  0.749980  0.262187  1
  Si  Si569  1  0.864646  0.749978  0.155793  1
  Si  Si570  1  0.135258  0.749977  0.155794  1
  Si  Si571  1  0.000000  0.811241  0.271765  1
  Si  Si572  1  0.000000  0.688708  0.271764  1
  Si  Si573  1  0.364790  0.439637  0.264593  1
  Si  Si574  1  0.864787  0.560317  0.158151  1
  Si  Si575  1  0.135100  0.560319  0.158152  1
  Si  Si576  1  0.635103  0.439631  0.264593  1
  Si  Si577  1  0.717735  0.345806  0.172705  1
  Si  Si578  1  0.217745  0.654150  0.250044  1
  Si  Si579  1  0.782162  0.654143  0.250041  1
  Si  Si580  1  0.282158  0.345808  0.172706  1
  Si  Si581  1  0.749147  0.343018  0.246363  1
  Si  Si582  1  0.249145  0.656927  0.176386  1
  Si  Si583  1  0.750755  0.656929  0.176384  1
  Si  Si584  1  0.250750  0.343024  0.246362  1
  Si  Si585  1  0.864659  0.438669  0.158132  1
  Si  Si586  1  0.364672  0.561285  0.264615  1
  Si  Si587  1  0.635246  0.561280  0.264615  1
  Si  Si588  1  0.135233  0.438670  0.158133  1
  Si  Si589  1  0.000000  0.188801  0.257244  1
  Si  Si590  1  0.000000  0.311142  0.257244  1
  Si  Si591  1  0.282159  0.154154  0.172707  1
  Si  Si592  1  0.717738  0.154150  0.172707  1
  Si  Si593  1  0.250753  0.156928  0.246363  1
  Si  Si594  1  0.749144  0.156924  0.246364  1
  Si  Si595  1  0.635401  0.311173  0.210311  1
  Si  Si596  1  0.364502  0.188781  0.210312  1
  Si  Si597  1  0.635398  0.188779  0.210313  1
  Si  Si598  1  0.364503  0.311176  0.210311  1
  Si  Si599  1  0.135239  0.061289  0.158134  1
  Si  Si600  1  0.864664  0.061287  0.158134  1
  Si  Si601  1  0.364788  0.060315  0.264596  1
  Si  Si602  1  0.635102  0.060309  0.264593  1
  Si  Si603  1  0.864583  0.249976  0.160561  1
  Si  Si604  1  0.135306  0.249980  0.160562  1
  Si  Si605  1  0.635253  0.249971  0.266955  1
  Si  Si606  1  0.364641  0.249978  0.266954  1
  Si  Si607  1  0.499944  0.311244  0.150983  1
  Si  Si608  1  0.499952  0.188711  0.150984  1
  Si  Si609  1  0.282163  0.845799  0.102274  1
  Si  Si610  1  0.717748  0.845797  0.102272  1
  Si  Si611  1  0.135242  0.938663  0.116847  1
  Si  Si612  1  0.864668  0.938660  0.116847  1
  Si  Si613  1  0.135318  0.749968  0.114417  1
  Si  Si614  1  0.864596  0.749969  0.114415  1
  Si  Si615  1  0.499958  0.811234  0.123994  1
  Si  Si616  1  0.499950  0.688700  0.123995  1
  Si  Si617  1  0.864794  0.439630  0.116822  1
  Si  Si618  1  0.717734  0.654144  0.102270  1
  Si  Si619  1  0.282168  0.654142  0.102270  1
  Si  Si620  1  0.249149  0.343018  0.098592  1
  Si  Si621  1  0.750755  0.343014  0.098592  1
  Si  Si622  1  0.864659  0.561278  0.116840  1
  Si  Si623  1  0.135233  0.561281  0.116841  1
  Si  Si624  1  0.135108  0.439632  0.116823  1
  Si  Si625  1  0.499958  0.188799  0.109475  1
  Si  Si626  1  0.499951  0.311140  0.109474  1
  Si  Si627  1  0.750755  0.156919  0.098591  1
  Si  Si628  1  0.249154  0.156923  0.098593  1
  Si  Si629  1  0.864794  0.060308  0.116824  1
  Si  Si630  1  0.135107  0.060311  0.116824  1
  Si  Si631  1  0.135260  0.249971  0.119184  1
  Si  Si632  1  0.864648  0.249965  0.119183  1
  Si  Si633  1  0.499947  0.688803  0.461045  1
  Si  Si634  1  0.499953  0.811144  0.461044  1
  Si  Si635  1  0.782160  0.845800  0.545583  1
  Si  Si636  1  0.217729  0.845804  0.545583  1
  Si  Si637  1  0.750753  0.843023  0.471927  1
  Si  Si638  1  0.249153  0.843024  0.471927  1
  Si  Si639  1  0.864505  0.811169  0.507978  1
  Si  Si640  1  0.135403  0.688775  0.507979  1
  Si  Si641  1  0.864506  0.688774  0.507977  1
  Si  Si642  1  0.135402  0.811170  0.507978  1
  Si  Si643  1  0.635223  0.938661  0.560155  1
  Si  Si644  1  0.364648  0.938667  0.560157  1
  Si  Si645  1  0.864798  0.939639  0.453699  1
  Si  Si646  1  0.135111  0.939641  0.453699  1
  Si  Si647  1  0.635315  0.749971  0.557728  1
  Si  Si648  1  0.364592  0.749980  0.557728  1
  Si  Si649  1  0.864646  0.749978  0.451334  1
  Si  Si650  1  0.135258  0.749977  0.451336  1
  Si  Si651  1  -0.000000  0.811241  0.567307  1
  Si  Si652  1  0.000000  0.688708  0.567305  1
  Si  Si653  1  0.364790  0.439637  0.560134  1
  Si  Si654  1  0.864787  0.560317  0.453692  1
  Si  Si655  1  0.135100  0.560319  0.453693  1
  Si  Si656  1  0.635103  0.439631  0.560134  1
  Si  Si657  1  0.717735  0.345806  0.468246  1
  Si  Si658  1  0.217745  0.654150  0.545585  1
  Si  Si659  1  0.782162  0.654143  0.545582  1
  Si  Si660  1  0.282158  0.345808  0.468247  1
  Si  Si661  1  0.749147  0.343018  0.541904  1
  Si  Si662  1  0.249145  0.656927  0.471927  1
  Si  Si663  1  0.750755  0.656929  0.471925  1
  Si  Si664  1  0.250750  0.343024  0.541903  1
  Si  Si665  1  0.864659  0.438669  0.453673  1
  Si  Si666  1  0.364672  0.561285  0.560156  1
  Si  Si667  1  0.635246  0.561280  0.560156  1
  Si  Si668  1  0.135233  0.438670  0.453674  1
  Si  Si669  1  0.000000  0.188801  0.552786  1
  Si  Si670  1  -0.000000  0.311142  0.552786  1
  Si  Si671  1  0.282159  0.154154  0.468248  1
  Si  Si672  1  0.717738  0.154150  0.468249  1
  Si  Si673  1  0.250753  0.156928  0.541905  1
  Si  Si674  1  0.749144  0.156924  0.541905  1
  Si  Si675  1  0.635401  0.311173  0.505852  1
  Si  Si676  1  0.364502  0.188781  0.505854  1
  Si  Si677  1  0.635398  0.188779  0.505854  1
  Si  Si678  1  0.364503  0.311176  0.505852  1
  Si  Si679  1  0.135239  0.061289  0.453675  1
  Si  Si680  1  0.864664  0.061287  0.453675  1
  Si  Si681  1  0.364788  0.060315  0.560137  1
  Si  Si682  1  0.635102  0.060309  0.560135  1
  Si  Si683  1  0.864583  0.249976  0.456102  1
  Si  Si684  1  0.135306  0.249980  0.456103  1
  Si  Si685  1  0.635253  0.249971  0.562496  1
  Si  Si686  1  0.364641  0.249978  0.562496  1
  Si  Si687  1  0.499944  0.311244  0.446524  1
  Si  Si688  1  0.499952  0.188711  0.446525  1
  Si  Si689  1  0.000000  0.688799  0.313273  1
  Si  Si690  1  0.000000  0.811140  0.313275  1
  Si  Si691  1  0.282163  0.845799  0.397815  1
  Si  Si692  1  0.717748  0.845797  0.397813  1
  Si  Si693  1  0.250751  0.843019  0.324157  1
  Si  Si694  1  0.749146  0.843015  0.324155  1
  Si  Si695  1  0.364497  0.811172  0.360209  1
  Si  Si696  1  0.635393  0.688778  0.360206  1
  Si  Si697  1  0.364497  0.688778  0.360206  1
  Si  Si698  1  0.635394  0.811173  0.360208  1
  Si  Si699  1  0.135242  0.938663  0.412388  1
  Si  Si700  1  0.864668  0.938660  0.412388  1
  Si  Si701  1  0.364792  0.939632  0.305926  1
  Si  Si702  1  0.635105  0.939628  0.305924  1
  Si  Si703  1  0.135318  0.749968  0.409958  1
  Si  Si704  1  0.864596  0.749969  0.409956  1
  Si  Si705  1  0.364645  0.749974  0.303564  1
  Si  Si706  1  0.635257  0.749966  0.303564  1
  Si  Si707  1  0.499958  0.811234  0.419535  1
  Si  Si708  1  0.499950  0.688700  0.419536  1
  Si  Si709  1  0.864794  0.439630  0.412363  1
  Si  Si710  1  0.364808  0.560310  0.305926  1
  Si  Si711  1  0.635122  0.560306  0.305925  1
  Si  Si712  1  0.217736  0.345801  0.320477  1
  Si  Si713  1  0.717734  0.654144  0.397812  1
  Si  Si714  1  0.282168  0.654142  0.397811  1
  Si  Si715  1  0.782161  0.345793  0.320476  1
  Si  Si716  1  0.249149  0.343018  0.394133  1
  Si  Si717  1  0.749151  0.656921  0.324157  1
  Si  Si718  1  0.250754  0.656924  0.324155  1
  Si  Si719  1  0.750755  0.343014  0.394133  1
  Si  Si720  1  0.364666  0.438662  0.305904  1
  Si  Si721  1  0.864659  0.561278  0.412381  1
  Si  Si722  1  0.135233  0.561281  0.412382  1
  Si  Si723  1  0.635240  0.438658  0.305903  1
  Si  Si724  1  0.135108  0.439632  0.412364  1
  Si  Si725  1  0.499958  0.188799  0.405016  1
  Si  Si726  1  0.499951  0.311140  0.405015  1
  Si  Si727  1  0.782167  0.154141  0.320476  1
  Si  Si728  1  0.217741  0.154144  0.320477  1
  Si  Si729  1  0.750755  0.156919  0.394132  1
  Si  Si730  1  0.249154  0.156923  0.394135  1
  Si  Si731  1  0.135397  0.311170  0.358082  1
  Si  Si732  1  0.864510  0.188769  0.358081  1
  Si  Si733  1  0.135406  0.188775  0.358083  1
  Si  Si734  1  0.864501  0.311164  0.358082  1
  Si  Si735  1  0.635245  0.061276  0.305904  1
  Si  Si736  1  0.364671  0.061281  0.305906  1
  Si  Si737  1  0.864794  0.060308  0.412365  1
  Si  Si738  1  0.135107  0.060311  0.412365  1
  Si  Si739  1  0.364584  0.249973  0.308332  1
  Si  Si740  1  0.635306  0.249966  0.308333  1
  Si  Si741  1  0.135260  0.249971  0.414725  1
  Si  Si742  1  0.864648  0.249965  0.414724  1
  Si  Si743  1  0.000000  0.311236  0.298753  1
  Si  Si744  1  -0.000000  0.188702  0.298754  1
  Si  Si745  1  0.499947  0.688803  0.756586  1
  Si  Si746  1  0.499953  0.811144  0.756586  1
  Si  Si747  1  0.750753  0.843023  0.767468  1
  Si  Si748  1  0.249153  0.843024  0.767468  1
  Si  Si749  1  0.864798  0.939639  0.749240  1
  Si  Si750  1  0.135111  0.939641  0.749240  1
  Si  Si751  1  0.864646  0.749978  0.746875  1
  Si  Si752  1  0.135258  0.749977  0.746877  1
  Si  Si753  1  0.864787  0.560317  0.749233  1
  Si  Si754  1  0.135100  0.560319  0.749234  1
  Si  Si755  1  0.717735  0.345806  0.763787  1
  Si  Si756  1  0.282158  0.345808  0.763788  1
  Si  Si757  1  0.249145  0.656927  0.767468  1
  Si  Si758  1  0.750755  0.656929  0.767466  1
  Si  Si759  1  0.864659  0.438669  0.749215  1
  Si  Si760  1  0.135233  0.438670  0.749216  1
  Si  Si761  1  0.282159  0.154154  0.763789  1
  Si  Si762  1  0.717738  0.154150  0.763790  1
  Si  Si763  1  0.135239  0.061289  0.749217  1
  Si  Si764  1  0.864664  0.061287  0.749217  1
  Si  Si765  1  0.864583  0.249976  0.751643  1
  Si  Si766  1  0.135306  0.249980  0.751644  1
  Si  Si767  1  0.499944  0.311244  0.742066  1
  Si  Si768  1  0.499952  0.188711  0.742067  1
  Si  Si769  1  0.000000  0.688799  0.608815  1
  Si  Si770  1  0.000000  0.811140  0.608816  1
  Si  Si771  1  0.282163  0.845799  0.693356  1
  Si  Si772  1  0.717748  0.845797  0.693354  1
  Si  Si773  1  0.250751  0.843019  0.619698  1
  Si  Si774  1  0.749146  0.843015  0.619697  1
  Si  Si775  1  0.364497  0.811172  0.655750  1
  Si  Si776  1  0.635393  0.688778  0.655748  1
  Si  Si777  1  0.364497  0.688778  0.655747  1
  Si  Si778  1  0.635394  0.811173  0.655749  1
  Si  Si779  1  0.135242  0.938663  0.707930  1
  Si  Si780  1  0.864668  0.938660  0.707929  1
  Si  Si781  1  0.364792  0.939632  0.601467  1
  Si  Si782  1  0.635105  0.939628  0.601465  1
  Si  Si783  1  0.135318  0.749968  0.705499  1
  Si  Si784  1  0.864596  0.749969  0.705498  1
  Si  Si785  1  0.364645  0.749974  0.599106  1
  Si  Si786  1  0.635257  0.749966  0.599105  1
  Si  Si787  1  0.499958  0.811234  0.715076  1
  Si  Si788  1  0.499950  0.688700  0.715077  1
  Si  Si789  1  0.864794  0.439630  0.707904  1
  Si  Si790  1  0.364808  0.560310  0.601467  1
  Si  Si791  1  0.635122  0.560306  0.601466  1
  Si  Si792  1  0.217736  0.345801  0.616018  1
  Si  Si793  1  0.717734  0.654144  0.693353  1
  Si  Si794  1  0.282168  0.654142  0.693353  1
  Si  Si795  1  0.782161  0.345793  0.616017  1
  Si  Si796  1  0.249149  0.343018  0.689675  1
  Si  Si797  1  0.749151  0.656921  0.619698  1
  Si  Si798  1  0.250754  0.656924  0.619696  1
  Si  Si799  1  0.750755  0.343014  0.689674  1
  Si  Si800  1  0.364666  0.438662  0.601445  1
  Si  Si801  1  0.864659  0.561278  0.707923  1
  Si  Si802  1  0.135233  0.561281  0.707924  1
  Si  Si803  1  0.635240  0.438658  0.601445  1
  Si  Si804  1  0.135108  0.439632  0.707905  1
  Si  Si805  1  0.499958  0.188799  0.700557  1
  Si  Si806  1  0.499951  0.311140  0.700556  1
  Si  Si807  1  0.782167  0.154141  0.616017  1
  Si  Si808  1  0.217741  0.154144  0.616019  1
  Si  Si809  1  0.750755  0.156919  0.689673  1
  Si  Si810  1  0.249154  0.156923  0.689676  1
  Si  Si811  1  0.135397  0.311170  0.653623  1
  Si  Si812  1  0.864510  0.188769  0.653623  1
  Si  Si813  1  0.135406  0.188775  0.653624  1
  Si  Si814  1  0.864501  0.311164  0.653623  1
  Si  Si815  1  0.635245  0.061276  0.601446  1
  Si  Si816  1  0.364671  0.061281  0.601448  1
  Si  Si817  1  0.864794  0.060308  0.707906  1
  Si  Si818  1  0.135107  0.060311  0.707906  1
  Si  Si819  1  0.364584  0.249973  0.603873  1
  Si  Si820  1  0.635306  0.249966  0.603874  1
  Si  Si821  1  0.135260  0.249971  0.710267  1
  Si  Si822  1  0.864648  0.249965  0.710265  1
  Si  Si823  1  0.000000  0.311236  0.594295  1
  Si  Si824  1  -0.000000  0.188702  0.594295  1
  H  H825  1  0.326233  0.838590  0.070515  1
  H  H826  1  0.673667  0.838591  0.070513  1
  H  H827  1  0.673642  0.661360  0.070513  1
  H  H828  1  0.326247  0.661355  0.070512  1
  H  H829  1  0.206471  0.332035  0.066971  1
  H  H830  1  0.793429  0.167903  0.066970  1
  H  H831  1  0.206484  0.167914  0.066972  1
  H  H832  1  0.793424  0.332028  0.066971  1
  H  H833  1  0.793426  0.832032  0.799089  1
  H  H834  1  0.206476  0.667907  0.799090  1
  H  H835  1  0.793440  0.667910  0.799087  1
  H  H836  1  0.206482  0.832033  0.799088  1
  H  H837  1  0.673665  0.338592  0.795546  1
  H  H838  1  0.326244  0.338594  0.795546  1
  H  H839  1  0.326244  0.161363  0.795547  1
  H  H840  1  0.673659  0.161358  0.795548  1
