# generated using pymatgen
data_Si13(HO7)4
_symmetry_space_group_name_H-M   'P 1'
_cell_length_a   26.79739289
_cell_length_b   12.91472158
_cell_length_c   30.57392649
_cell_angle_alpha   90.00000000
_cell_angle_beta   90.00000000
_cell_angle_gamma   90.00000000
_symmetry_Int_Tables_number   1
_chemical_formula_structural   Si13(HO7)4
_chemical_formula_sum   'Si52 H16 O112'
_cell_volume   10581.0510262
_cell_formula_units_Z   4
loop_
 _symmetry_equiv_pos_site_id
 _symmetry_equiv_pos_as_xyz
  1  'x, y, z'
loop_
 _atom_site_type_symbol
 _atom_site_label
 _atom_site_symmetry_multiplicity
 _atom_site_fract_x
 _atom_site_fract_y
 _atom_site_fract_z
 _atom_site_occupancy
  O  O1  1  0.171724  0.500053  0.276568  1
  O  O2  1  0.238131  0.641926  0.276889  1
  O  O3  1  0.238139  0.358148  0.276887  1
  O  O4  1  0.141931  0.692338  0.262639  1
  O  O5  1  0.084214  0.807742  0.212063  1
  O  O6  1  0.141925  0.307726  0.262649  1
  O  O7  1  0.084223  0.192347  0.212063  1
  O  O8  1  0.301754  0.500060  0.280082  1
  O  O9  1  0.047822  0.669080  0.265125  1
  O  O10  1  0.081400  0.831009  0.294541  1
  O  O11  1  0.047819  0.331024  0.265117  1
  O  O12  1  0.081397  0.169065  0.294542  1
  O  O13  1  0.663692  0.326880  0.255901  1
  O  O14  1  0.591908  0.673224  0.192977  1
  O  O15  1  0.408055  0.326877  0.192975  1
  O  O16  1  0.591910  0.326887  0.192979  1
  O  O17  1  0.408058  0.673220  0.192978  1
  O  O18  1  0.432226  -0.000000  0.277071  1
  O  O19  1  0.567754  -0.000000  0.277071  1
  O  O20  1  0.336288  0.673212  0.255907  1
  O  O21  1  0.499993  0.863371  0.278413  1
  O  O22  1  0.663690  0.673210  0.255895  1
  O  O23  1  0.499989  0.136730  0.278410  1
  O  O24  1  0.411607  0.799751  0.259006  1
  O  O25  1  0.588377  0.799770  0.259001  1
  O  O26  1  0.588370  0.200333  0.258997  1
  O  O27  1  0.411603  0.200322  0.259004  1
  O  O28  1  0.421072  0.602930  0.267305  1
  O  O29  1  0.578903  0.602942  0.267298  1
  O  O30  1  0.578906  0.397163  0.267301  1
  O  O31  1  0.421074  0.397158  0.267307  1
  O  O32  1  0.336294  0.326848  0.255895  1
  O  O33  1  0.499991  0.500037  0.278263  1
  O  O34  1  0.828252  0.500038  0.276557  1
  O  O35  1  0.761848  0.358167  0.276898  1
  O  O36  1  0.761839  0.641923  0.276889  1
  O  O37  1  0.915759  0.192357  0.212061  1
  O  O38  1  0.858053  0.307741  0.262636  1
  O  O39  1  0.915757  0.807740  0.212061  1
  O  O40  1  0.858055  0.692353  0.262638  1
  O  O41  1  0.698226  0.500043  0.280072  1
  O  O42  1  0.918587  0.169079  0.294541  1
  O  O43  1  0.952158  0.331013  0.265116  1
  O  O44  1  0.918581  0.831010  0.294541  1
  O  O45  1  0.952155  0.669080  0.265118  1
  O  O46  1  0.000000  0.500045  0.276329  1
  O  O47  1  0.171713  0.499984  0.396381  1
  O  O48  1  0.173029  0.368628  0.336450  1
  O  O49  1  0.238143  0.358171  0.396096  1
  O  O50  1  0.238108  0.641940  0.395935  1
  O  O51  1  0.084219  0.192368  0.460860  1
  O  O52  1  0.141933  0.307788  0.410289  1
  O  O53  1  0.084226  0.807739  0.460872  1
  O  O54  1  0.141918  0.692390  0.410304  1
  O  O55  1  0.301754  0.500063  0.392871  1
  O  O56  1  0.068605  0.000000  0.336468  1
  O  O57  1  0.081395  0.169088  0.378392  1
  O  O58  1  0.047822  0.331010  0.407814  1
  O  O59  1  0.081394  0.831021  0.378381  1
  O  O60  1  0.047812  0.669063  0.407812  1
  O  O61  1  0.304450  0.359133  0.336463  1
  O  O62  1  0.304430  0.640966  0.336468  1
  O  O63  1  0.173185  0.631516  0.336487  1
  O  O64  1  0.566223  0.136738  0.336458  1
  O  O65  1  0.408066  0.673231  0.479944  1
  O  O66  1  0.591910  0.326892  0.479944  1
  O  O67  1  0.408066  0.326877  0.479949  1
  O  O68  1  0.591915  0.673241  0.479937  1
  O  O69  1  0.567753  0.000000  0.395857  1
  O  O70  1  0.432227  0.000000  0.395857  1
  O  O71  1  0.499994  0.863387  0.394522  1
  O  O72  1  0.499989  0.136732  0.394516  1
  O  O73  1  0.588375  0.799796  0.413931  1
  O  O74  1  0.411613  0.799793  0.413934  1
  O  O75  1  0.411604  0.200320  0.413928  1
  O  O76  1  0.588363  0.200342  0.413928  1
  O  O77  1  0.578899  0.602949  0.405629  1
  O  O78  1  0.421080  0.602934  0.405629  1
  O  O79  1  0.421078  0.397175  0.405631  1
  O  O80  1  0.578899  0.397189  0.405633  1
  O  O81  1  0.433588  0.500039  0.336461  1
  O  O82  1  0.499992  0.500067  0.394665  1
  O  O83  1  0.336266  0.673233  0.417038  1
  O  O84  1  0.663701  0.673229  0.417032  1
  O  O85  1  0.663693  0.326895  0.417034  1
  O  O86  1  0.336284  0.326881  0.417042  1
  O  O87  1  0.566393  0.500058  0.336458  1
  O  O88  1  0.566230  0.863384  0.336458  1
  O  O89  1  0.433759  0.863377  0.336459  1
  O  O90  1  0.433752  0.136725  0.336459  1
  O  O91  1  0.828264  0.500060  0.396376  1
  O  O92  1  0.826843  0.368602  0.336468  1
  O  O93  1  0.761830  0.641949  0.396053  1
  O  O94  1  0.761862  0.358177  0.395983  1
  O  O95  1  0.858050  0.692350  0.410290  1
  O  O96  1  0.915763  0.807759  0.460869  1
  O  O97  1  0.858052  0.307737  0.410302  1
  O  O98  1  0.915752  0.192360  0.460870  1
  O  O99  1  0.826918  0.631481  0.336445  1
  O  O100  1  0.698211  0.500050  0.392863  1
  O  O101  1  0.952153  0.669075  0.407817  1
  O  O102  1  0.918587  0.831018  0.378384  1
  O  O103  1  0.952156  0.331030  0.407812  1
  O  O104  1  0.918580  0.169085  0.378383  1
  O  O105  1  -0.000000  0.500046  0.396604  1
  O  O106  1  -0.000000  0.368545  0.336465  1
  O  O107  1  0.695543  0.640968  0.336451  1
  O  O108  1  0.000000  0.631554  0.336464  1
  O  O109  1  0.695550  0.359136  0.336463  1
  O  O110  1  0.931380  -0.000000  0.336467  1
  O  O111  1  -0.000000  0.868546  0.336465  1
  O  O112  1  -0.000000  0.131546  0.336471  1
  Si  Si113  1  0.090469  0.250049  0.257160  1
  Si  Si114  1  0.090475  0.750039  0.257157  1
  Si  Si115  1  0.295410  0.380286  0.286056  1
  Si  Si116  1  0.180844  0.619193  0.285837  1
  Si  Si117  1  0.180842  0.380901  0.285815  1
  Si  Si118  1  0.295397  0.619824  0.286063  1
  Si  Si119  1  0.442536  0.500044  0.286105  1
  Si  Si120  1  0.557446  0.500048  0.286101  1
  Si  Si121  1  0.442485  0.880904  0.286056  1
  Si  Si122  1  0.557500  0.880917  0.286056  1
  Si  Si123  1  0.557496  0.119189  0.286056  1
  Si  Si124  1  0.442482  0.119180  0.286058  1
  Si  Si125  1  0.392829  0.691155  0.242545  1
  Si  Si126  1  0.607148  0.691169  0.242538  1
  Si  Si127  1  0.607149  0.308933  0.242541  1
  Si  Si128  1  0.392839  0.308922  0.242542  1
  Si  Si129  1  0.819140  0.380896  0.285828  1
  Si  Si130  1  0.819134  0.619187  0.285802  1
  Si  Si131  1  0.704580  0.380275  0.286060  1
  Si  Si132  1  0.704574  0.619811  0.286050  1
  Si  Si133  1  0.909507  0.250047  0.257158  1
  Si  Si134  1  0.909505  0.750047  0.257158  1
  Si  Si135  1  0.000000  0.381265  0.285361  1
  Si  Si136  1  -0.000000  0.618831  0.285357  1
  Si  Si137  1  0.090488  0.250071  0.415766  1
  Si  Si138  1  0.058296  0.881267  0.336459  1
  Si  Si139  1  0.090456  0.750055  0.415770  1
  Si  Si140  1  0.180855  0.380863  0.387093  1
  Si  Si141  1  0.180813  0.619138  0.387127  1
  Si  Si142  1  0.295408  0.380297  0.386874  1
  Si  Si143  1  0.295381  0.619820  0.386866  1
  Si  Si144  1  0.058297  0.118836  0.336471  1
  Si  Si145  1  0.442536  0.500054  0.386820  1
  Si  Si146  1  0.557447  0.500067  0.386818  1
  Si  Si147  1  0.557501  0.880927  0.386863  1
  Si  Si148  1  0.442487  0.880926  0.386863  1
  Si  Si149  1  0.442483  0.119198  0.386863  1
  Si  Si150  1  0.557495  0.119203  0.386862  1
  Si  Si151  1  0.607151  0.691183  0.430378  1
  Si  Si152  1  0.392830  0.691168  0.430377  1
  Si  Si153  1  0.392835  0.308931  0.430386  1
  Si  Si154  1  0.607145  0.308946  0.430382  1
  Si  Si155  1  0.941683  0.118830  0.336464  1
  Si  Si156  1  0.909508  0.250049  0.415771  1
  Si  Si157  1  0.909505  0.750054  0.415771  1
  Si  Si158  1  0.819130  0.619209  0.387087  1
  Si  Si159  1  0.819150  0.380911  0.387113  1
  Si  Si160  1  0.704566  0.619809  0.386856  1
  Si  Si161  1  0.704585  0.380294  0.386866  1
  Si  Si162  1  0.941681  0.881262  0.336460  1
  Si  Si163  1  0.000000  0.381264  0.387572  1
  Si  Si164  1  -0.000000  0.618825  0.387570  1
  H  H165  1  0.084214  0.807742  0.182627  1
  H  H166  1  0.084223  0.192347  0.182626  1
  H  H167  1  0.591908  0.673224  0.163540  1
  H  H168  1  0.408055  0.326877  0.163538  1
  H  H169  1  0.591910  0.326887  0.163542  1
  H  H170  1  0.408058  0.673220  0.163542  1
  H  H171  1  0.915759  0.192357  0.182624  1
  H  H172  1  0.915757  0.807740  0.182624  1
  H  H173  1  0.084219  0.192368  0.490296  1
  H  H174  1  0.084226  0.807739  0.490309  1
  H  H175  1  0.408066  0.673231  0.509381  1
  H  H176  1  0.591910  0.326892  0.509381  1
  H  H177  1  0.408066  0.326877  0.509386  1
  H  H178  1  0.591915  0.673241  0.509374  1
  H  H179  1  0.915763  0.807759  0.490306  1
  H  H180  1  0.915752  0.192360  0.490307  1
