# generated using pymatgen
data_Si19H2O39
_symmetry_space_group_name_H-M   'P 1'
_cell_length_a   25.48081259
_cell_length_b   13.88888375
_cell_length_c   49.91539294
_cell_angle_alpha   90.00000000
_cell_angle_beta   90.00000000
_cell_angle_gamma   90.00000000
_symmetry_Int_Tables_number   1
_chemical_formula_structural   Si19H2O39
_chemical_formula_sum   'Si152 H16 O312'
_cell_volume   17665.0597553
_cell_formula_units_Z   8
loop_
 _symmetry_equiv_pos_site_id
 _symmetry_equiv_pos_as_xyz
  1  'x, y, z'
loop_
 _atom_site_type_symbol
 _atom_site_label
 _atom_site_symmetry_multiplicity
 _atom_site_fract_x
 _atom_site_fract_y
 _atom_site_fract_z
 _atom_site_occupancy
  O  O1  1  0.928101  0.865483  0.118324  1
  O  O2  1  0.928232  0.135282  0.118200  1
  O  O3  1  0.571857  0.635861  0.118780  1
  O  O4  1  0.572672  0.366203  0.118832  1
  O  O5  1  0.087549  0.170949  0.173032  1
  O  O6  1  0.411670  0.669817  0.172910  1
  O  O7  1  0.412361  0.329144  0.172938  1
  O  O8  1  0.087407  0.829434  0.173021  1
  O  O9  1  0.095008  0.092322  0.217937  1
  O  O10  1  0.094979  0.592352  0.300917  1
  O  O11  1  0.404113  0.591989  0.217893  1
  O  O12  1  0.403688  0.091824  0.301214  1
  O  O13  1  0.405051  0.907397  0.300664  1
  O  O14  1  0.404852  0.407549  0.217941  1
  O  O15  1  0.095119  0.407927  0.300941  1
  O  O16  1  0.095112  0.907918  0.217919  1
  O  O17  1  0.149915  0.242062  0.211139  1
  O  O18  1  0.350001  0.742857  0.211059  1
  O  O19  1  0.350290  0.257356  0.211140  1
  O  O20  1  0.149721  0.757861  0.211077  1
  O  O21  1  0.050279  0.252153  0.216105  1
  O  O22  1  0.050150  0.752111  0.302738  1
  O  O23  1  0.449681  0.751077  0.215741  1
  O  O24  1  0.449747  0.250747  0.302854  1
  O  O25  1  0.449881  0.747931  0.303185  1
  O  O26  1  0.449949  0.248087  0.215896  1
  O  O27  1  0.050219  0.248242  0.302805  1
  O  O28  1  0.050108  0.748269  0.216076  1
  O  O29  1  0.427793  0.633968  0.119049  1
  O  O30  1  0.499435  0.901652  0.231416  1
  O  O31  1  0.070534  0.000000  0.153501  1
  O  O32  1  0.429270  0.499220  0.153356  1
  O  O33  1  0.072320  0.134943  0.119161  1
  O  O34  1  0.428612  0.364355  0.118959  1
  O  O35  1  0.072142  0.865281  0.119206  1
  O  O36  1  0.190289  0.900521  0.288093  1
  O  O37  1  0.190260  0.400494  0.230749  1
  O  O38  1  0.308524  0.400644  0.288139  1
  O  O39  1  0.308535  0.900701  0.230693  1
  O  O40  1  0.308782  0.099634  0.230761  1
  O  O41  1  0.308822  0.599562  0.288053  1
  O  O42  1  0.190174  0.599451  0.230691  1
  O  O43  1  0.190208  0.099471  0.288153  1
  O  O44  1  0.151312  -0.000000  0.250967  1
  O  O45  1  0.151266  0.500135  0.267876  1
  O  O46  1  0.349525  0.499484  0.251493  1
  O  O47  1  0.349602  0.000000  0.267289  1
  O  O48  1  0.250589  0.000000  0.260154  1
  O  O49  1  0.250545  0.500287  0.258696  1
  O  O50  1  0.181350  0.250003  0.259456  1
  O  O51  1  0.181242  0.750015  0.259392  1
  O  O52  1  0.318526  0.750109  0.259365  1
  O  O53  1  0.318678  0.250072  0.259480  1
  O  O54  1  0.249977  0.249463  0.295440  1
  O  O55  1  0.249856  0.749603  0.223403  1
  O  O56  1  0.249946  0.750388  0.295356  1
  O  O57  1  0.250085  0.250589  0.223488  1
  O  O58  1  0.050637  0.000000  0.254682  1
  O  O59  1  0.050600  0.499913  0.264184  1
  O  O60  1  0.449712  0.500663  0.254480  1
  O  O61  1  0.449844  0.002369  0.264477  1
  O  O62  1  0.499936  0.401462  0.287520  1
  O  O63  1  0.588660  0.670468  0.172717  1
  O  O64  1  0.910792  0.170094  0.172171  1
  O  O65  1  0.910641  0.830532  0.172245  1
  O  O66  1  0.589391  0.330694  0.172639  1
  O  O67  1  0.595077  0.592848  0.217904  1
  O  O68  1  0.595229  0.092717  0.300829  1
  O  O69  1  0.904755  0.092162  0.217319  1
  O  O70  1  0.904821  0.592190  0.301522  1
  O  O71  1  0.904990  0.407696  0.301416  1
  O  O72  1  0.904998  0.907654  0.217487  1
  O  O73  1  0.596166  0.907975  0.301262  1
  O  O74  1  0.596194  0.408103  0.217722  1
  O  O75  1  0.650048  0.742834  0.211121  1
  O  O76  1  0.850126  0.242457  0.210901  1
  O  O77  1  0.849918  0.757923  0.210927  1
  O  O78  1  0.650361  0.256990  0.211019  1
  O  O79  1  0.550075  0.752769  0.214900  1
  O  O80  1  0.949982  0.251869  0.214516  1
  O  O81  1  0.949874  0.752018  0.304367  1
  O  O82  1  0.949931  0.247852  0.304393  1
  O  O83  1  0.949816  0.747773  0.214450  1
  O  O84  1  0.550277  0.748546  0.303894  1
  O  O85  1  0.550349  0.248803  0.214743  1
  O  O86  1  0.501847  0.750002  0.259425  1
  O  O87  1  0.502650  0.250153  0.259414  1
  O  O88  1  0.996800  0.750019  0.259408  1
  O  O89  1  0.501156  0.098630  0.231366  1
  O  O90  1  0.000000  0.901670  0.287371  1
  O  O91  1  0.000000  0.401629  0.231472  1
  O  O92  1  0.500036  0.624043  0.153438  1
  O  O93  1  -0.000000  0.598395  0.231429  1
  O  O94  1  0.000000  0.876532  0.153281  1
  O  O95  1  0.571390  0.500902  0.153097  1
  O  O96  1  0.928268  0.000000  0.152544  1
  O  O97  1  0.691419  0.400628  0.287989  1
  O  O98  1  0.691466  0.900450  0.230833  1
  O  O99  1  0.810317  0.900735  0.287997  1
  O  O100  1  0.810281  0.400739  0.230884  1
  O  O101  1  0.810225  0.599472  0.230899  1
  O  O102  1  0.810187  0.099458  0.287972  1
  O  O103  1  0.691681  0.099323  0.230789  1
  O  O104  1  0.691701  0.599464  0.288097  1
  O  O105  1  0.650667  0.500757  0.251367  1
  O  O106  1  0.650721  0.000000  0.267489  1
  O  O107  1  0.848806  0.000000  0.250589  1
  O  O108  1  0.848762  0.500055  0.268296  1
  O  O109  1  0.749655  0.499926  0.258684  1
  O  O110  1  0.749681  0.000000  0.260164  1
  O  O111  1  0.681412  0.750019  0.259486  1
  O  O112  1  0.681564  0.249999  0.259375  1
  O  O113  1  0.819263  0.250056  0.259419  1
  O  O114  1  0.819139  0.750066  0.259441  1
  O  O115  1  0.750240  0.750957  0.295337  1
  O  O116  1  0.750378  0.250705  0.223537  1
  O  O117  1  0.750277  0.249489  0.295267  1
  O  O118  1  0.750140  0.749187  0.223591  1
  O  O119  1  0.550546  0.498911  0.254353  1
  O  O120  1  0.550595  0.998246  0.264518  1
  O  O121  1  0.949324  -0.000000  0.254144  1
  O  O122  1  0.949288  0.500368  0.264701  1
  O  O123  1  0.550157  0.252376  0.304152  1
  O  O124  1  0.996970  0.250040  0.259459  1
  O  O125  1  0.500651  0.376045  0.153424  1
  O  O126  1  0.500690  0.598472  0.287476  1
  O  O127  1  0.000000  0.098399  0.287430  1
  O  O128  1  0.000000  0.124288  0.153189  1
  O  O129  1  0.089787  0.670180  0.453536  1
  O  O130  1  0.087457  0.671018  0.345809  1
  O  O131  1  0.412531  0.170903  0.454041  1
  O  O132  1  0.412258  0.171083  0.345999  1
  O  O133  1  0.411760  0.830401  0.345844  1
  O  O134  1  0.410978  0.831834  0.453676  1
  O  O135  1  0.087495  0.329528  0.345836  1
  O  O136  1  0.089869  0.329875  0.453477  1
  O  O137  1  0.150949  0.744013  0.491863  1
  O  O138  1  0.149794  0.742186  0.307711  1
  O  O139  1  0.350964  0.242985  0.492210  1
  O  O140  1  0.350144  0.243206  0.307838  1
  O  O141  1  0.350141  0.757555  0.307656  1
  O  O142  1  0.350925  0.756441  0.492038  1
  O  O143  1  0.149840  0.257959  0.307773  1
  O  O144  1  0.151003  0.257659  0.492189  1
  O  O145  1  0.001034  0.624058  0.434672  1
  O  O146  1  0.499743  0.876190  0.434484  1
  O  O147  1  0.072079  0.500127  0.433940  1
  O  O148  1  0.070512  0.500314  0.365359  1
  O  O149  1  0.429098  0.001069  0.434140  1
  O  O150  1  0.429279  -0.000000  0.365487  1
  O  O151  1  0.072231  0.635081  0.399680  1
  O  O152  1  0.428557  0.135821  0.399924  1
  O  O153  1  0.427852  0.866211  0.399747  1
  O  O154  1  0.072179  0.365353  0.399653  1
  O  O155  1  0.001013  0.376215  0.434629  1
  O  O156  1  0.589219  0.169764  0.453753  1
  O  O157  1  0.589291  0.169400  0.346109  1
  O  O158  1  0.913089  0.670528  0.454619  1
  O  O159  1  0.910691  0.669974  0.346685  1
  O  O160  1  0.910716  0.330425  0.346633  1
  O  O161  1  0.912961  0.329778  0.454460  1
  O  O162  1  0.588778  0.829610  0.346251  1
  O  O163  1  0.588028  0.828943  0.454042  1
  O  O164  1  0.650725  0.243239  0.492045  1
  O  O165  1  0.650218  0.242793  0.307705  1
  O  O166  1  0.851064  0.742567  0.492506  1
  O  O167  1  0.849994  0.742292  0.307964  1
  O  O168  1  0.850032  0.257787  0.307946  1
  O  O169  1  0.851086  0.256873  0.492310  1
  O  O170  1  0.650198  0.756881  0.307880  1
  O  O171  1  0.650571  0.756207  0.492007  1
  O  O172  1  -0.000000  0.624271  0.365666  1
  O  O173  1  0.571155  -0.000000  0.434383  1
  O  O174  1  0.571396  0.000000  0.365760  1
  O  O175  1  0.929914  0.500220  0.434912  1
  O  O176  1  0.928244  0.500448  0.366327  1
  O  O177  1  0.572624  0.134146  0.399978  1
  O  O178  1  0.928156  0.635233  0.400658  1
  O  O179  1  0.928152  0.365444  0.400561  1
  O  O180  1  0.571895  0.864526  0.400137  1
  O  O181  1  0.500542  0.124179  0.434461  1
  O  O182  1  0.000000  0.376531  0.365591  1
  O  O183  1  0.500616  0.124137  0.365417  1
  O  O184  1  0.500080  0.876145  0.365403  1
  O  O185  1  0.090068  0.169464  0.627547  1
  O  O186  1  0.411065  0.668586  0.627341  1
  O  O187  1  0.412681  0.329154  0.627112  1
  O  O188  1  0.089841  0.829929  0.627612  1
  O  O189  1  0.098175  0.592188  0.498565  1
  O  O190  1  0.099290  0.092066  0.582375  1
  O  O191  1  0.404383  0.091941  0.499094  1
  O  O192  1  0.405278  0.592667  0.581843  1
  O  O193  1  0.405403  0.407748  0.582005  1
  O  O194  1  0.404463  0.907217  0.499300  1
  O  O195  1  0.097535  0.907681  0.582519  1
  O  O196  1  0.096123  0.407651  0.498526  1
  O  O197  1  0.151179  0.244295  0.589304  1
  O  O198  1  0.350667  0.742790  0.588909  1
  O  O199  1  0.351306  0.256961  0.588922  1
  O  O200  1  0.150873  0.756705  0.589000  1
  O  O201  1  0.051083  0.750942  0.495907  1
  O  O202  1  0.051294  0.250019  0.585216  1
  O  O203  1  0.450539  0.251235  0.497081  1
  O  O204  1  0.450593  0.752454  0.585392  1
  O  O205  1  0.450858  0.247957  0.584216  1
  O  O206  1  0.450923  0.748381  0.495552  1
  O  O207  1  0.050898  0.748491  0.585469  1
  O  O208  1  0.051111  0.247302  0.495564  1
  O  O209  1  0.004011  0.749282  0.540694  1
  O  O210  1  0.004348  0.250214  0.540393  1
  O  O211  1  0.497449  0.749537  0.540497  1
  O  O212  1  0.002443  0.901536  0.513163  1
  O  O213  1  0.499698  0.624075  0.646651  1
  O  O214  1  0.072002  0.000000  0.647131  1
  O  O215  1  0.429056  0.499188  0.646953  1
  O  O216  1  0.192405  0.400974  0.569419  1
  O  O217  1  0.192988  0.900827  0.511496  1
  O  O218  1  0.309415  0.900573  0.569051  1
  O  O219  1  0.309882  0.400508  0.512142  1
  O  O220  1  0.310188  0.598843  0.512084  1
  O  O221  1  0.309714  0.099131  0.569163  1
  O  O222  1  0.191934  0.099780  0.511779  1
  O  O223  1  0.191328  0.599616  0.569057  1
  O  O224  1  0.145195  0.497783  0.534507  1
  O  O225  1  0.142544  0.998212  0.545036  1
  O  O226  1  0.342832  0.000000  0.530489  1
  O  O227  1  0.344629  0.499679  0.550481  1
  O  O228  1  0.245681  0.500382  0.538044  1
  O  O229  1  0.243958  0.000000  0.543834  1
  O  O230  1  0.182050  0.750543  0.540374  1
  O  O231  1  0.182256  0.250004  0.540742  1
  O  O232  1  0.319651  0.249719  0.540612  1
  O  O233  1  0.319569  0.750002  0.540469  1
  O  O234  1  0.250746  0.749590  0.576351  1
  O  O235  1  0.250869  0.250100  0.504709  1
  O  O236  1  0.251185  0.250164  0.576657  1
  O  O237  1  0.250934  0.748977  0.504476  1
  O  O238  1  0.044182  0.501425  0.532252  1
  O  O239  1  0.042166  0.001022  0.549988  1
  O  O240  1  0.442376  0.000000  0.537882  1
  O  O241  1  0.444238  0.499823  0.543459  1
  O  O242  1  0.002715  0.401299  0.568375  1
  O  O243  1  0.001096  0.124128  0.646424  1
  O  O244  1  -0.000000  0.876023  0.646481  1
  O  O245  1  0.001671  0.597985  0.568624  1
  O  O246  1  0.001647  0.097815  0.512932  1
  O  O247  1  0.587836  0.671697  0.627105  1
  O  O248  1  0.913156  0.170371  0.626491  1
  O  O249  1  0.912777  0.829913  0.626686  1
  O  O250  1  0.589314  0.330494  0.627359  1
  O  O251  1  0.597231  0.092616  0.498876  1
  O  O252  1  0.597232  0.591534  0.582489  1
  O  O253  1  0.905805  0.592570  0.499743  1
  O  O254  1  0.904799  0.092432  0.581362  1
  O  O255  1  0.904469  0.907624  0.581542  1
  O  O256  1  0.905147  0.407561  0.499565  1
  O  O257  1  0.595742  0.407091  0.582190  1
  O  O258  1  0.598696  0.908300  0.498807  1
  O  O259  1  0.650256  0.743222  0.588960  1
  O  O260  1  0.851298  0.243273  0.588689  1
  O  O261  1  0.850751  0.757034  0.588886  1
  O  O262  1  0.650891  0.257677  0.589036  1
  O  O263  1  0.550823  0.251830  0.496008  1
  O  O264  1  0.550845  0.750648  0.583706  1
  O  O265  1  0.950758  0.752614  0.497450  1
  O  O266  1  0.950992  0.251629  0.583598  1
  O  O267  1  0.950470  0.748282  0.583855  1
  O  O268  1  0.950734  0.247902  0.497259  1
  O  O269  1  0.551118  0.246660  0.585123  1
  O  O270  1  0.551187  0.750006  0.497432  1
  O  O271  1  0.503084  0.250589  0.540607  1
  O  O272  1  0.928101  0.865483  0.680579  1
  O  O273  1  0.928232  0.135282  0.680455  1
  O  O274  1  0.501168  0.401857  0.512661  1
  O  O275  1  0.571236  0.501136  0.646745  1
  O  O276  1  0.929982  0.000000  0.646217  1
  O  O277  1  0.571857  0.635861  0.681035  1
  O  O278  1  0.691857  0.900707  0.569467  1
  O  O279  1  0.691681  0.400386  0.511763  1
  O  O280  1  0.809789  0.400921  0.569074  1
  O  O281  1  0.809057  0.900423  0.511946  1
  O  O282  1  0.809214  0.099135  0.511921  1
  O  O283  1  0.809332  0.599402  0.569184  1
  O  O284  1  0.691338  0.599152  0.511872  1
  O  O285  1  0.692439  0.099751  0.569625  1
  O  O286  1  0.642336  0.001428  0.536193  1
  O  O287  1  0.645369  0.498812  0.546702  1
  O  O288  1  0.844700  0.500517  0.530969  1
  O  O289  1  0.842848  0.000000  0.550358  1
  O  O290  1  0.743778  -0.000000  0.537374  1
  O  O291  1  0.745645  0.499852  0.542889  1
  O  O292  1  0.682207  0.249686  0.540572  1
  O  O293  1  0.681888  0.750267  0.540532  1
  O  O294  1  0.818959  0.750150  0.540657  1
  O  O295  1  0.819265  0.249935  0.540507  1
  O  O296  1  0.750899  0.250579  0.576599  1
  O  O297  1  0.750660  0.749181  0.504554  1
  O  O298  1  0.750372  0.749916  0.576643  1
  O  O299  1  0.750781  0.250160  0.504495  1
  O  O300  1  0.541980  0.998862  0.531392  1
  O  O301  1  0.544209  0.501452  0.548379  1
  O  O302  1  0.944401  0.499089  0.538093  1
  O  O303  1  0.942637  0.000000  0.542813  1
  O  O304  1  0.501137  0.097820  0.567991  1
  O  O305  1  0.500627  0.598586  0.512486  1
  O  O306  1  0.500588  0.901473  0.568089  1
  O  O307  1  0.500585  0.376271  0.646642  1
  O  O308  1  0.572672  0.366203  0.681087  1
  O  O309  1  0.427793  0.633968  0.681304  1
  O  O310  1  0.072320  0.134943  0.681416  1
  O  O311  1  0.428612  0.364355  0.681214  1
  O  O312  1  0.072142  0.865281  0.681461  1
  Si  Si313  1  0.401745  0.499804  0.235403  1
  Si  Si314  1  0.401729  -0.000000  0.283451  1
  Si  Si315  1  0.098352  0.000000  0.235400  1
  Si  Si316  1  0.304859  -0.000000  0.245926  1
  Si  Si317  1  0.098325  0.500112  0.283459  1
  Si  Si318  1  0.096416  0.192495  0.203890  1
  Si  Si319  1  0.403113  0.692005  0.203764  1
  Si  Si320  1  0.403593  0.307516  0.203812  1
  Si  Si321  1  0.096300  0.807753  0.203866  1
  Si  Si322  1  0.060265  0.111470  0.149764  1
  Si  Si323  1  0.439350  0.610507  0.149710  1
  Si  Si324  1  0.439899  0.388161  0.149644  1
  Si  Si325  1  0.060097  0.889080  0.149792  1
  Si  Si326  1  0.192815  0.213678  0.288775  1
  Si  Si327  1  0.192723  0.713669  0.230075  1
  Si  Si328  1  0.306965  0.713831  0.288671  1
  Si  Si329  1  0.307081  0.213904  0.230162  1
  Si  Si330  1  0.306825  0.786420  0.230074  1
  Si  Si331  1  0.306926  0.286375  0.288772  1
  Si  Si332  1  0.192895  0.286294  0.230144  1
  Si  Si333  1  0.192798  0.786318  0.288703  1
  Si  Si334  1  0.194963  -0.000000  0.272973  1
  Si  Si335  1  0.194923  0.500029  0.245872  1
  Si  Si336  1  0.304844  0.500031  0.272894  1
  Si  Si337  1  0.000000  0.500049  0.247091  1
  Si  Si338  1  0.000000  -0.000000  0.271762  1
  Si  Si339  1  0.596906  0.692587  0.203589  1
  Si  Si340  1  0.903059  0.192106  0.203119  1
  Si  Si341  1  0.902951  0.807980  0.203156  1
  Si  Si342  1  0.597499  0.308200  0.203496  1
  Si  Si343  1  0.560746  0.611942  0.149457  1
  Si  Si344  1  0.938854  0.111633  0.148936  1
  Si  Si345  1  0.938688  0.889318  0.149048  1
  Si  Si346  1  0.561293  0.389607  0.149492  1
  Si  Si347  1  0.693313  0.713746  0.288764  1
  Si  Si348  1  0.693431  0.213595  0.230111  1
  Si  Si349  1  0.807476  0.213639  0.288700  1
  Si  Si350  1  0.807388  0.713634  0.230159  1
  Si  Si351  1  0.807555  0.286564  0.230138  1
  Si  Si352  1  0.807463  0.786554  0.288727  1
  Si  Si353  1  0.693179  0.786182  0.230187  1
  Si  Si354  1  0.693297  0.286365  0.288655  1
  Si  Si355  1  0.695294  0.500136  0.272808  1
  Si  Si356  1  0.695324  0.000000  0.246036  1
  Si  Si357  1  0.805479  0.000000  0.272775  1
  Si  Si358  1  0.805467  0.500086  0.246092  1
  Si  Si359  1  0.598460  0.500297  0.235256  1
  Si  Si360  1  0.598524  0.000000  0.283604  1
  Si  Si361  1  0.901615  0.000000  0.234875  1
  Si  Si362  1  0.901604  0.500055  0.283992  1
  Si  Si363  1  0.000000  0.211876  0.288878  1
  Si  Si364  1  0.000000  0.711875  0.229988  1
  Si  Si365  1  0.500859  0.212140  0.229980  1
  Si  Si366  1  0.500535  0.711967  0.288862  1
  Si  Si367  1  0.500451  0.287941  0.288865  1
  Si  Si368  1  0.000000  0.788211  0.288823  1
  Si  Si369  1  0.000000  0.288151  0.230036  1
  Si  Si370  1  0.500121  0.788169  0.230005  1
  Si  Si371  1  0.500253  0.000000  0.246976  1
  Si  Si372  1  0.500223  0.499938  0.271913  1
  Si  Si373  1  0.061622  0.388951  0.430383  1
  Si  Si374  1  0.060159  0.389118  0.369066  1
  Si  Si375  1  0.439133  0.889895  0.430424  1
  Si  Si376  1  0.439383  0.889610  0.369080  1
  Si  Si377  1  0.098240  0.692207  0.484397  1
  Si  Si378  1  0.096314  0.692549  0.314952  1
  Si  Si379  1  0.404090  0.192103  0.484957  1
  Si  Si380  1  0.403251  0.192281  0.315120  1
  Si  Si381  1  0.403409  0.807783  0.314998  1
  Si  Si382  1  0.403624  0.808209  0.484538  1
  Si  Si383  1  0.096406  0.307778  0.314999  1
  Si  Si384  1  0.097995  0.307675  0.484371  1
  Si  Si385  1  0.061625  0.611309  0.430399  1
  Si  Si386  1  0.060185  0.611513  0.369079  1
  Si  Si387  1  0.439808  0.112161  0.430613  1
  Si  Si388  1  0.439876  0.111957  0.369249  1
  Si  Si389  1  0.560516  0.888216  0.430796  1
  Si  Si390  1  0.560778  0.888323  0.369454  1
  Si  Si391  1  0.597758  0.192334  0.484567  1
  Si  Si392  1  0.597191  0.192219  0.315257  1
  Si  Si393  1  0.904524  0.692453  0.485468  1
  Si  Si394  1  0.902981  0.692094  0.315740  1
  Si  Si395  1  0.903044  0.307947  0.315711  1
  Si  Si396  1  0.904362  0.307673  0.485293  1
  Si  Si397  1  0.597241  0.807839  0.315374  1
  Si  Si398  1  0.597589  0.807906  0.484868  1
  Si  Si399  1  0.561192  0.110604  0.430637  1
  Si  Si400  1  0.561272  0.110659  0.369312  1
  Si  Si401  1  0.940242  0.611409  0.431252  1
  Si  Si402  1  0.938779  0.611548  0.369923  1
  Si  Si403  1  0.938752  0.389244  0.369832  1
  Si  Si404  1  0.940236  0.389059  0.431161  1
  Si  Si405  1  0.496646  0.000000  0.552392  1
  Si  Si406  1  0.002230  0.287767  0.569842  1
  Si  Si407  1  0.001980  0.788137  0.511375  1
  Si  Si408  1  0.001791  0.211229  0.511093  1
  Si  Si409  1  0.497644  0.500330  0.528201  1
  Si  Si410  1  0.098628  0.191773  0.596713  1
  Si  Si411  1  0.403603  0.691901  0.596470  1
  Si  Si412  1  0.404466  0.307672  0.596189  1
  Si  Si413  1  0.098095  0.807755  0.596734  1
  Si  Si414  1  0.061687  0.111153  0.650694  1
  Si  Si415  1  0.439084  0.610394  0.650622  1
  Si  Si416  1  0.439861  0.388134  0.650527  1
  Si  Si417  1  0.061559  0.888815  0.650723  1
  Si  Si418  1  0.193633  0.713749  0.569663  1
  Si  Si419  1  0.193802  0.214002  0.511377  1
  Si  Si420  1  0.308125  0.213349  0.569932  1
  Si  Si421  1  0.308021  0.712982  0.511203  1
  Si  Si422  1  0.307939  0.286374  0.511337  1
  Si  Si423  1  0.307753  0.786373  0.569765  1
  Si  Si424  1  0.194106  0.786537  0.511048  1
  Si  Si425  1  0.194191  0.286746  0.570012  1
  Si  Si426  1  0.193075  0.500005  0.553924  1
  Si  Si427  1  0.192469  0.000000  0.526950  1
  Si  Si428  1  0.301889  -0.000000  0.554107  1
  Si  Si429  1  0.303093  0.499758  0.527207  1
  Si  Si430  1  0.096193  0.499919  0.516070  1
  Si  Si431  1  0.095737  0.000000  0.564940  1
  Si  Si432  1  0.397872  0.000000  0.516489  1
  Si  Si433  1  0.399424  0.499996  0.564627  1
  Si  Si434  1  0.001598  0.711538  0.570122  1
  Si  Si435  1  0.501208  0.288339  0.511168  1
  Si  Si436  1  0.500243  0.712158  0.511044  1
  Si  Si437  1  0.501348  0.211157  0.569876  1
  Si  Si438  1  0.998347  0.499814  0.552890  1
  Si  Si439  1  0.597142  0.692298  0.596219  1
  Si  Si440  1  0.904539  0.192290  0.595655  1
  Si  Si441  1  0.904053  0.807823  0.595863  1
  Si  Si442  1  0.597637  0.307504  0.596535  1
  Si  Si443  1  0.560471  0.612211  0.650369  1
  Si  Si444  1  0.940305  0.111393  0.649868  1
  Si  Si445  1  0.940173  0.889026  0.649974  1
  Si  Si446  1  0.561252  0.389830  0.650430  1
  Si  Si447  1  0.693901  0.214039  0.569964  1
  Si  Si448  1  0.693550  0.713300  0.511266  1
  Si  Si449  1  0.807417  0.713568  0.569951  1
  Si  Si450  1  0.807723  0.213343  0.511211  1
  Si  Si451  1  0.807562  0.786198  0.511302  1
  Si  Si452  1  0.807912  0.286762  0.569802  1
  Si  Si453  1  0.693726  0.286191  0.511243  1
  Si  Si454  1  0.693417  0.786469  0.569881  1
  Si  Si455  1  0.692286  0.000000  0.554256  1
  Si  Si456  1  0.692948  0.499698  0.527093  1
  Si  Si457  1  0.802804  0.500210  0.554051  1
  Si  Si458  1  0.801571  0.000000  0.526904  1
  Si  Si459  1  0.595430  0.000000  0.516360  1
  Si  Si460  1  0.595890  0.499686  0.564801  1
  Si  Si461  1  0.899556  0.499916  0.516922  1
  Si  Si462  1  0.898045  0.000000  0.564189  1
  Si  Si463  1  0.997333  0.000000  0.528681  1
  Si  Si464  1  0.500032  0.788030  0.569847  1
  H  H465  1  0.928101  0.865483  0.100294  1
  H  H466  1  0.928232  0.135282  0.100170  1
  H  H467  1  0.571857  0.635861  0.100750  1
  H  H468  1  0.572672  0.366203  0.100801  1
  H  H469  1  0.427793  0.633968  0.101019  1
  H  H470  1  0.072320  0.134943  0.101130  1
  H  H471  1  0.428612  0.364355  0.100929  1
  H  H472  1  0.072142  0.865281  0.101175  1
  H  H473  1  0.928101  0.865483  0.698610  1
  H  H474  1  0.928232  0.135282  0.698486  1
  H  H475  1  0.571857  0.635861  0.699066  1
  H  H476  1  0.572672  0.366203  0.699118  1
  H  H477  1  0.427793  0.633968  0.699335  1
  H  H478  1  0.072320  0.134943  0.699447  1
  H  H479  1  0.428612  0.364355  0.699245  1
  H  H480  1  0.072142  0.865281  0.699491  1
