# generated using pymatgen
data_Si22H2O45
_symmetry_space_group_name_H-M   'P 1'
_cell_length_a   12.64886671
_cell_length_b   11.38395757
_cell_length_c   57.48906778
_cell_angle_alpha   90.00000000
_cell_angle_beta   90.00000000
_cell_angle_gamma   90.00000000
_symmetry_Int_Tables_number   1
_chemical_formula_structural   Si22H2O45
_chemical_formula_sum   'Si88 H8 O180'
_cell_volume   8278.09013473
_cell_formula_units_Z   4
loop_
 _symmetry_equiv_pos_site_id
 _symmetry_equiv_pos_as_xyz
  1  'x, y, z'
loop_
 _atom_site_type_symbol
 _atom_site_label
 _atom_site_symmetry_multiplicity
 _atom_site_fract_x
 _atom_site_fract_y
 _atom_site_fract_z
 _atom_site_occupancy
  O  O1  1  0.322819  0.826020  0.102628  1
  O  O2  1  0.322817  0.173756  0.102628  1
  O  O3  1  0.677283  0.826019  0.102629  1
  O  O4  1  0.677283  0.173759  0.102628  1
  O  O5  1  0.362491  0.000000  0.129507  1
  O  O6  1  0.398570  0.811365  0.188495  1
  O  O7  1  0.398569  0.188383  0.188495  1
  O  O8  1  0.336021  0.793401  0.147316  1
  O  O9  1  0.336022  0.206360  0.147317  1
  O  O10  1  0.202878  0.792008  0.181780  1
  O  O11  1  0.202876  0.207732  0.181781  1
  O  O12  1  0.331392  0.615270  0.176085  1
  O  O13  1  0.331384  0.384478  0.176087  1
  O  O14  1  0.140305  0.845217  0.223488  1
  O  O15  1  0.140304  0.154521  0.223489  1
  O  O16  1  0.000000  0.159023  0.192043  1
  O  O17  1  0.360922  0.499878  0.213962  1
  O  O18  1  0.139981  0.000000  0.192616  1
  O  O19  1  -0.000000  0.840715  0.192042  1
  O  O20  1  0.327685  0.387785  0.252233  1
  O  O21  1  0.327685  0.611946  0.252235  1
  O  O22  1  0.362490  0.499882  0.321543  1
  O  O23  1  0.322812  0.326009  0.294665  1
  O  O24  1  0.322814  0.673749  0.294665  1
  O  O25  1  0.142383  -0.000000  0.254547  1
  O  O26  1  0.336024  0.293406  0.339353  1
  O  O27  1  0.336025  0.706364  0.339353  1
  O  O28  1  0.202887  0.292029  0.373818  1
  O  O29  1  0.202891  0.707760  0.373818  1
  O  O30  1  0.331400  0.115288  0.368123  1
  O  O31  1  0.331407  0.884496  0.368122  1
  O  O32  1  0.200333  0.217184  0.264097  1
  O  O33  1  0.200334  0.782553  0.264097  1
  O  O34  1  0.398849  0.807372  0.263915  1
  O  O35  1  0.398848  0.192365  0.263918  1
  O  O36  1  -0.000000  0.157414  0.254819  1
  O  O37  1  -0.000000  0.842322  0.254818  1
  O  O38  1  0.327699  0.887817  0.444271  1
  O  O39  1  0.327699  0.111978  0.444270  1
  O  O40  1  0.322819  0.826020  0.486701  1
  O  O41  1  0.322817  0.173756  0.486701  1
  O  O42  1  0.398580  0.311387  0.380531  1
  O  O43  1  0.398584  0.688399  0.380531  1
  O  O44  1  0.142394  0.499894  0.446584  1
  O  O45  1  -0.000000  0.342350  0.446855  1
  O  O46  1  0.140314  0.345245  0.415525  1
  O  O47  1  0.140316  0.654545  0.415525  1
  O  O48  1  0.200347  0.717210  0.456133  1
  O  O49  1  0.200343  0.282578  0.456133  1
  O  O50  1  0.000000  0.659050  0.384079  1
  O  O51  1  0.398859  0.307398  0.455954  1
  O  O52  1  0.398862  0.692394  0.455952  1
  O  O53  1  0.360939  0.000000  0.405998  1
  O  O54  1  0.139993  0.499895  0.384652  1
  O  O55  1  -0.000000  0.340743  0.384079  1
  O  O56  1  -0.000000  0.657443  0.446855  1
  O  O57  1  0.637607  0.000000  0.129506  1
  O  O58  1  0.601515  0.811368  0.188494  1
  O  O59  1  0.601514  0.188381  0.188495  1
  O  O60  1  0.664072  0.793402  0.147317  1
  O  O61  1  0.664070  0.206360  0.147317  1
  O  O62  1  0.797208  0.792003  0.181781  1
  O  O63  1  0.797207  0.207735  0.181781  1
  O  O64  1  0.668688  0.615270  0.176085  1
  O  O65  1  0.668696  0.384478  0.176087  1
  O  O66  1  0.859782  0.845218  0.223488  1
  O  O67  1  0.859780  0.154518  0.223489  1
  O  O68  1  0.639158  0.499877  0.213962  1
  O  O69  1  0.500040  0.000000  0.195444  1
  O  O70  1  0.500044  0.842253  0.226431  1
  O  O71  1  0.860103  0.000000  0.192615  1
  O  O72  1  0.500048  0.154955  0.123588  1
  O  O73  1  0.500049  0.844815  0.123589  1
  O  O74  1  0.500043  0.157491  0.226433  1
  O  O75  1  0.500040  0.499868  0.182977  1
  O  O76  1  0.500041  0.499867  0.245622  1
  O  O77  1  0.672397  0.387784  0.252233  1
  O  O78  1  0.672397  0.611946  0.252235  1
  O  O79  1  0.637606  0.499880  0.321543  1
  O  O80  1  0.677279  0.326009  0.294664  1
  O  O81  1  0.677279  0.673745  0.294665  1
  O  O82  1  0.857702  0.000000  0.254548  1
  O  O83  1  0.664073  0.293405  0.339353  1
  O  O84  1  0.664077  0.706364  0.339353  1
  O  O85  1  0.797218  0.292036  0.373817  1
  O  O86  1  0.797221  0.707760  0.373817  1
  O  O87  1  0.668712  0.115288  0.368123  1
  O  O88  1  0.668705  0.884496  0.368121  1
  O  O89  1  0.799750  0.217183  0.264097  1
  O  O90  1  0.799752  0.782551  0.264096  1
  O  O91  1  0.500043  0.000000  0.257342  1
  O  O92  1  0.601236  0.807371  0.263916  1
  O  O93  1  0.601235  0.192366  0.263918  1
  O  O94  1  0.500056  0.000000  0.375013  1
  O  O95  1  0.500048  0.654951  0.315626  1
  O  O96  1  0.500047  0.344812  0.315625  1
  O  O97  1  0.672411  0.887818  0.444271  1
  O  O98  1  0.672411  0.111979  0.444270  1
  O  O99  1  0.677283  0.826019  0.486701  1
  O  O100  1  0.677283  0.173759  0.486701  1
  O  O101  1  0.601525  0.311382  0.380532  1
  O  O102  1  0.601529  0.688400  0.380531  1
  O  O103  1  0.857713  0.499898  0.446584  1
  O  O104  1  0.859790  0.345246  0.415525  1
  O  O105  1  0.859794  0.654550  0.415525  1
  O  O106  1  0.500055  0.000000  0.437659  1
  O  O107  1  0.799765  0.717214  0.456133  1
  O  O108  1  0.799761  0.282583  0.456134  1
  O  O109  1  0.601246  0.307398  0.455954  1
  O  O110  1  0.601250  0.692392  0.455952  1
  O  O111  1  0.639174  -0.000000  0.405999  1
  O  O112  1  0.500057  0.499892  0.387481  1
  O  O113  1  0.500055  0.657512  0.418468  1
  O  O114  1  0.860116  0.499898  0.384652  1
  O  O115  1  0.500050  0.342274  0.418468  1
  O  O116  1  0.500053  0.499895  0.449378  1
  O  O117  1  0.362491  0.000000  0.513579  1
  O  O118  1  0.398570  0.811365  0.572567  1
  O  O119  1  0.398569  0.188383  0.572568  1
  O  O120  1  0.336021  0.793401  0.531389  1
  O  O121  1  0.336022  0.206360  0.531389  1
  O  O122  1  0.202878  0.792008  0.565853  1
  O  O123  1  0.202876  0.207732  0.565853  1
  O  O124  1  0.331392  0.615270  0.560158  1
  O  O125  1  0.331384  0.384478  0.560160  1
  O  O126  1  0.140305  0.845217  0.607561  1
  O  O127  1  0.140304  0.154521  0.607562  1
  O  O128  1  0.000000  0.159023  0.576116  1
  O  O129  1  0.360922  0.499878  0.598035  1
  O  O130  1  0.139981  0.000000  0.576688  1
  O  O131  1  -0.000000  0.840715  0.576115  1
  O  O132  1  0.327685  0.387785  0.636306  1
  O  O133  1  0.327685  0.611946  0.636308  1
  O  O134  1  0.362490  0.499882  0.705615  1
  O  O135  1  0.322812  0.326009  0.678737  1
  O  O136  1  0.322814  0.673749  0.678738  1
  O  O137  1  0.142383  0.000000  0.638620  1
  O  O138  1  0.336024  0.293406  0.723426  1
  O  O139  1  0.336025  0.706364  0.723426  1
  O  O140  1  0.200333  0.217184  0.648170  1
  O  O141  1  0.200334  0.782553  0.648169  1
  O  O142  1  0.398849  0.807372  0.647988  1
  O  O143  1  0.398848  0.192365  0.647990  1
  O  O144  1  -0.000000  0.157414  0.638891  1
  O  O145  1  -0.000000  0.842322  0.638891  1
  O  O146  1  0.637607  0.000000  0.513579  1
  O  O147  1  0.601515  0.811368  0.572567  1
  O  O148  1  0.601514  0.188381  0.572568  1
  O  O149  1  0.664072  0.793402  0.531389  1
  O  O150  1  0.664070  0.206360  0.531390  1
  O  O151  1  0.797208  0.792003  0.565854  1
  O  O152  1  0.797207  0.207735  0.565854  1
  O  O153  1  0.668688  0.615270  0.560158  1
  O  O154  1  0.668696  0.384478  0.560160  1
  O  O155  1  0.859782  0.845218  0.607561  1
  O  O156  1  0.859780  0.154518  0.607562  1
  O  O157  1  0.639158  0.499877  0.598035  1
  O  O158  1  0.500040  0.000000  0.579517  1
  O  O159  1  0.500044  0.842253  0.610504  1
  O  O160  1  0.860103  0.000000  0.576688  1
  O  O161  1  0.500048  0.154955  0.507661  1
  O  O162  1  0.500049  0.844815  0.507662  1
  O  O163  1  0.500043  0.157491  0.610505  1
  O  O164  1  0.500040  0.499868  0.567050  1
  O  O165  1  0.500041  0.499867  0.629695  1
  O  O166  1  0.672397  0.387784  0.636306  1
  O  O167  1  0.672397  0.611946  0.636308  1
  O  O168  1  0.637606  0.499880  0.705616  1
  O  O169  1  0.677279  0.326009  0.678737  1
  O  O170  1  0.677279  0.673745  0.678737  1
  O  O171  1  0.857702  0.000000  0.638621  1
  O  O172  1  0.664073  0.293405  0.723426  1
  O  O173  1  0.664077  0.706364  0.723426  1
  O  O174  1  0.799750  0.217183  0.648170  1
  O  O175  1  0.799752  0.782551  0.648169  1
  O  O176  1  0.500043  0.000000  0.641414  1
  O  O177  1  0.601236  0.807371  0.647989  1
  O  O178  1  0.601235  0.192366  0.647991  1
  O  O179  1  0.500048  0.654951  0.699698  1
  O  O180  1  0.500047  0.344812  0.699697  1
  Si  Si181  1  0.377622  0.499868  0.240917  1
  Si  Si182  1  0.377837  0.499874  0.186991  1
  Si  Si183  1  0.121482  0.864472  0.196670  1
  Si  Si184  1  0.121481  0.135267  0.196671  1
  Si  Si185  1  0.314180  0.750822  0.172747  1
  Si  Si186  1  0.314177  0.248926  0.172748  1
  Si  Si187  1  0.377804  0.864221  0.125861  1
  Si  Si188  1  0.377803  0.135549  0.125860  1
  Si  Si189  1  0.308098  0.281835  0.269083  1
  Si  Si190  1  0.377803  0.635546  0.317897  1
  Si  Si191  1  0.377802  0.364218  0.317896  1
  Si  Si192  1  0.308099  0.717905  0.269083  1
  Si  Si193  1  0.314188  0.250839  0.364785  1
  Si  Si194  1  0.314192  0.748945  0.364784  1
  Si  Si195  1  0.121678  0.864457  0.250316  1
  Si  Si196  1  0.121678  0.135280  0.250316  1
  Si  Si197  1  0.377637  0.000000  0.432953  1
  Si  Si198  1  0.377853  0.000000  0.379028  1
  Si  Si199  1  0.308108  0.217928  0.461119  1
  Si  Si200  1  0.308111  0.781860  0.461119  1
  Si  Si201  1  0.121492  0.364498  0.388707  1
  Si  Si202  1  0.121494  0.635293  0.388707  1
  Si  Si203  1  0.121690  0.635306  0.442353  1
  Si  Si204  1  0.121687  0.364483  0.442353  1
  Si  Si205  1  0.622459  0.499868  0.240917  1
  Si  Si206  1  0.878604  0.864471  0.196670  1
  Si  Si207  1  0.878603  0.135266  0.196671  1
  Si  Si208  1  0.685906  0.750821  0.172747  1
  Si  Si209  1  0.685907  0.248926  0.172748  1
  Si  Si210  1  0.622294  0.864221  0.125860  1
  Si  Si211  1  0.622293  0.135549  0.125860  1
  Si  Si212  1  0.622243  0.499874  0.186991  1
  Si  Si213  1  0.500041  0.135381  0.199588  1
  Si  Si214  1  0.500042  0.864367  0.199587  1
  Si  Si215  1  0.622294  0.635545  0.317897  1
  Si  Si216  1  0.500042  0.135461  0.253312  1
  Si  Si217  1  0.622292  0.364217  0.317896  1
  Si  Si218  1  0.685918  0.250840  0.364784  1
  Si  Si219  1  0.685918  0.748945  0.364784  1
  Si  Si220  1  0.878408  0.864456  0.250316  1
  Si  Si221  1  0.878407  0.135279  0.250317  1
  Si  Si222  1  0.691987  0.281835  0.269083  1
  Si  Si223  1  0.691987  0.717903  0.269083  1
  Si  Si224  1  0.500043  0.864279  0.253311  1
  Si  Si225  1  0.622474  0.000000  0.432954  1
  Si  Si226  1  0.500052  0.364303  0.445348  1
  Si  Si227  1  0.622260  0.000000  0.379028  1
  Si  Si228  1  0.878613  0.364500  0.388707  1
  Si  Si229  1  0.878616  0.635295  0.388707  1
  Si  Si230  1  0.500055  0.635486  0.445347  1
  Si  Si231  1  0.878417  0.364486  0.442353  1
  Si  Si232  1  0.878420  0.635309  0.442352  1
  Si  Si233  1  0.691999  0.781861  0.461119  1
  Si  Si234  1  0.691997  0.217930  0.461119  1
  Si  Si235  1  0.500056  0.635398  0.391623  1
  Si  Si236  1  0.500053  0.364385  0.391624  1
  Si  Si237  1  0.377622  0.499868  0.624990  1
  Si  Si238  1  0.377837  0.499874  0.571064  1
  Si  Si239  1  0.121482  0.864472  0.580743  1
  Si  Si240  1  0.121481  0.135267  0.580743  1
  Si  Si241  1  0.314180  0.750822  0.556820  1
  Si  Si242  1  0.314177  0.248926  0.556821  1
  Si  Si243  1  0.377804  0.864221  0.509933  1
  Si  Si244  1  0.377803  0.135549  0.509933  1
  Si  Si245  1  0.308098  0.281835  0.653156  1
  Si  Si246  1  0.377803  0.635546  0.701969  1
  Si  Si247  1  0.377802  0.364218  0.701969  1
  Si  Si248  1  0.308099  0.717905  0.653156  1
  Si  Si249  1  0.121678  0.864457  0.634389  1
  Si  Si250  1  0.121678  0.135280  0.634389  1
  Si  Si251  1  0.622459  0.499868  0.624990  1
  Si  Si252  1  0.878604  0.864471  0.580743  1
  Si  Si253  1  0.878603  0.135266  0.580743  1
  Si  Si254  1  0.685906  0.750821  0.556820  1
  Si  Si255  1  0.685907  0.248926  0.556821  1
  Si  Si256  1  0.622294  0.864221  0.509933  1
  Si  Si257  1  0.622293  0.135549  0.509932  1
  Si  Si258  1  0.622243  0.499874  0.571064  1
  Si  Si259  1  0.500041  0.135381  0.583660  1
  Si  Si260  1  0.500042  0.864367  0.583660  1
  Si  Si261  1  0.622294  0.635545  0.701970  1
  Si  Si262  1  0.500042  0.135461  0.637385  1
  Si  Si263  1  0.622292  0.364217  0.701969  1
  Si  Si264  1  0.878408  0.864456  0.634389  1
  Si  Si265  1  0.878407  0.135279  0.634390  1
  Si  Si266  1  0.691987  0.281835  0.653156  1
  Si  Si267  1  0.691987  0.717903  0.653155  1
  Si  Si268  1  0.500043  0.864279  0.637384  1
  H  H269  1  0.322819  0.826020  0.086973  1
  H  H270  1  0.322817  0.173756  0.086973  1
  H  H271  1  0.677283  0.826019  0.086973  1
  H  H272  1  0.677283  0.173759  0.086973  1
  H  H273  1  0.336024  0.293406  0.739081  1
  H  H274  1  0.336025  0.706364  0.739081  1
  H  H275  1  0.664073  0.293405  0.739081  1
  H  H276  1  0.664077  0.706364  0.739081  1
