# generated using pymatgen
data_Si49(HO25)4
_symmetry_space_group_name_H-M   'P 1'
_cell_length_a   26.79739289
_cell_length_b   12.91472158
_cell_length_c   61.36040731
_cell_angle_alpha   90.00000000
_cell_angle_beta   90.00000000
_cell_angle_gamma   90.00000000
_symmetry_Int_Tables_number   1
_chemical_formula_structural   Si49(HO25)4
_chemical_formula_sum   'Si196 H16 O400'
_cell_volume   21235.6630362
_cell_formula_units_Z   4
loop_
 _symmetry_equiv_pos_site_id
 _symmetry_equiv_pos_as_xyz
  1  'x, y, z'
loop_
 _atom_site_type_symbol
 _atom_site_label
 _atom_site_symmetry_multiplicity
 _atom_site_fract_x
 _atom_site_fract_y
 _atom_site_fract_z
 _atom_site_occupancy
  O  O1  1  0.171724  0.500053  0.170313  1
  O  O2  1  0.068335  0.000000  0.125161  1
  O  O3  1  0.238131  0.641926  0.170473  1
  O  O4  1  0.067961  0.858162  0.096155  1
  O  O5  1  0.238139  0.358148  0.170472  1
  O  O6  1  0.067960  0.141927  0.096157  1
  O  O7  1  0.141931  0.692338  0.163373  1
  O  O8  1  0.084214  0.807742  0.138173  1
  O  O9  1  0.141925  0.307726  0.163378  1
  O  O10  1  0.084223  0.192347  0.138172  1
  O  O11  1  0.301754  0.500060  0.172064  1
  O  O12  1  0.047822  0.669080  0.164611  1
  O  O13  1  0.081400  0.831009  0.179268  1
  O  O14  1  0.047819  0.331024  0.164607  1
  O  O15  1  0.081397  0.169065  0.179269  1
  O  O16  1  0.663692  0.326880  0.160015  1
  O  O17  1  0.591908  0.673224  0.128662  1
  O  O18  1  0.408055  0.326877  0.128661  1
  O  O19  1  0.591910  0.326887  0.128664  1
  O  O20  1  0.408058  0.673220  0.128663  1
  O  O21  1  0.432226  0.000000  0.170564  1
  O  O22  1  0.567754  0.000000  0.170564  1
  O  O23  1  0.336288  0.673212  0.160018  1
  O  O24  1  0.499993  0.863371  0.171232  1
  O  O25  1  0.663690  0.673210  0.160013  1
  O  O26  1  0.499989  0.136730  0.171231  1
  O  O27  1  0.411607  0.799751  0.161563  1
  O  O28  1  0.588377  0.799770  0.161560  1
  O  O29  1  0.588370  0.200333  0.161558  1
  O  O30  1  0.411603  0.200322  0.161562  1
  O  O31  1  0.421072  0.602930  0.165698  1
  O  O32  1  0.578903  0.602942  0.165694  1
  O  O33  1  0.578906  0.397163  0.165696  1
  O  O34  1  0.421074  0.397158  0.165699  1
  O  O35  1  0.336294  0.326848  0.160012  1
  O  O36  1  0.499991  0.500037  0.171158  1
  O  O37  1  0.931643  -0.000000  0.125158  1
  O  O38  1  0.828252  0.500038  0.170308  1
  O  O39  1  0.932018  0.141939  0.096155  1
  O  O40  1  0.761848  0.358167  0.170478  1
  O  O41  1  0.932013  0.858160  0.096153  1
  O  O42  1  0.761839  0.641923  0.170473  1
  O  O43  1  0.915759  0.192357  0.138171  1
  O  O44  1  0.858053  0.307741  0.163371  1
  O  O45  1  0.915757  0.807740  0.138171  1
  O  O46  1  0.858055  0.692353  0.163372  1
  O  O47  1  0.698226  0.500043  0.172059  1
  O  O48  1  0.918587  0.169079  0.179268  1
  O  O49  1  0.952158  0.331013  0.164607  1
  O  O50  1  0.918581  0.831010  0.179269  1
  O  O51  1  0.952155  0.669080  0.164608  1
  O  O52  1  0.000000  0.500045  0.170194  1
  O  O53  1  0.000000  0.131485  0.124564  1
  O  O54  1  0.000000  0.868606  0.124565  1
  O  O55  1  0.068343  0.000000  0.275150  1
  O  O56  1  0.328267  -0.000000  0.388662  1
  O  O57  1  0.171713  0.499984  0.230012  1
  O  O58  1  0.173029  0.368628  0.200150  1
  O  O59  1  0.067966  0.141940  0.304160  1
  O  O60  1  0.261829  0.858169  0.388822  1
  O  O61  1  0.238143  0.358171  0.229870  1
  O  O62  1  0.067925  0.858152  0.304155  1
  O  O63  1  0.238108  0.641940  0.229790  1
  O  O64  1  0.261829  0.141963  0.388822  1
  O  O65  1  0.084219  0.192368  0.262140  1
  O  O66  1  0.141933  0.307788  0.236942  1
  O  O67  1  0.084226  0.807739  0.262146  1
  O  O68  1  0.141918  0.692390  0.236950  1
  O  O69  1  0.091917  0.173239  0.347024  1
  O  O70  1  0.163692  0.826889  0.378371  1
  O  O71  1  0.091913  0.826879  0.347022  1
  O  O72  1  0.163697  0.173236  0.378371  1
  O  O73  1  0.064339  0.000000  0.331943  1
  O  O74  1  0.198218  0.000000  0.390413  1
  O  O75  1  0.301754  0.500063  0.228263  1
  O  O76  1  0.068605  -0.000000  0.200159  1
  O  O77  1  0.067747  0.500055  0.388926  1
  O  O78  1  0.088372  0.299784  0.379916  1
  O  O79  1  0.088375  0.700331  0.379916  1
  O  O80  1  0.078900  0.102941  0.384053  1
  O  O81  1  0.078896  0.897165  0.384053  1
  O  O82  1  0.081395  0.169088  0.221049  1
  O  O83  1  0.047822  0.331010  0.235709  1
  O  O84  1  0.081394  0.831021  0.221043  1
  O  O85  1  0.047812  0.669063  0.235708  1
  O  O86  1  0.304450  0.359133  0.200157  1
  O  O87  1  0.304430  0.640966  0.200159  1
  O  O88  1  0.173185  0.631516  0.200169  1
  O  O89  1  0.431634  0.500056  0.343519  1
  O  O90  1  0.568340  0.500067  0.343520  1
  O  O91  1  0.499986  0.631518  0.342921  1
  O  O92  1  0.566223  0.136738  0.200154  1
  O  O93  1  0.499990  0.368612  0.342926  1
  O  O94  1  0.432011  0.641955  0.314513  1
  O  O95  1  0.567967  0.358174  0.314513  1
  O  O96  1  0.432014  0.358170  0.314512  1
  O  O97  1  0.567960  0.641967  0.314511  1
  O  O98  1  0.641920  0.192393  0.381720  1
  O  O99  1  0.415747  0.692369  0.356527  1
  O  O100  1  0.358048  0.807763  0.381726  1
  O  O101  1  0.584225  0.307765  0.356523  1
  O  O102  1  0.641931  0.807797  0.381729  1
  O  O103  1  0.415756  0.307759  0.356528  1
  O  O104  1  0.358047  0.192363  0.381726  1
  O  O105  1  0.584219  0.692391  0.356530  1
  O  O106  1  0.408066  0.673231  0.271649  1
  O  O107  1  0.591910  0.326892  0.271649  1
  O  O108  1  0.408066  0.326877  0.271651  1
  O  O109  1  0.591915  0.673241  0.271645  1
  O  O110  1  0.435644  0.500051  0.286731  1
  O  O111  1  0.564335  0.500059  0.286726  1
  O  O112  1  0.499988  0.640983  0.285556  1
  O  O113  1  0.499993  0.359150  0.285559  1
  O  O114  1  0.567753  0.000000  0.229751  1
  O  O115  1  0.432227  -0.000000  0.229751  1
  O  O116  1  0.499994  0.863387  0.229086  1
  O  O117  1  0.499989  0.136732  0.229083  1
  O  O118  1  0.588375  0.799796  0.238757  1
  O  O119  1  0.411613  0.799793  0.238758  1
  O  O120  1  0.411604  0.200320  0.238755  1
  O  O121  1  0.588363  0.200342  0.238755  1
  O  O122  1  0.578899  0.602949  0.234620  1
  O  O123  1  0.421080  0.602934  0.234620  1
  O  O124  1  0.421078  0.397175  0.234621  1
  O  O125  1  0.578899  0.397189  0.234622  1
  O  O126  1  0.547817  0.169074  0.382960  1
  O  O127  1  0.418580  0.669079  0.397627  1
  O  O128  1  0.452155  0.831045  0.382960  1
  O  O129  1  0.581398  0.331027  0.397630  1
  O  O130  1  0.547821  0.831034  0.382962  1
  O  O131  1  0.418582  0.331034  0.397629  1
  O  O132  1  0.452155  0.169079  0.382962  1
  O  O133  1  0.581395  0.669090  0.397624  1
  O  O134  1  0.433588  0.500039  0.200156  1
  O  O135  1  0.499992  0.500067  0.229157  1
  O  O136  1  0.336266  0.673233  0.240305  1
  O  O137  1  0.499983  0.000000  0.388547  1
  O  O138  1  0.663701  0.673229  0.240302  1
  O  O139  1  0.663693  0.326895  0.240303  1
  O  O140  1  0.336284  0.326881  0.240307  1
  O  O141  1  0.566393  0.500058  0.200155  1
  O  O142  1  0.566230  0.863384  0.200155  1
  O  O143  1  0.433759  0.863377  0.200155  1
  O  O144  1  0.433752  0.136725  0.200155  1
  O  O145  1  0.828264  0.500060  0.230010  1
  O  O146  1  0.671711  -0.000000  0.388658  1
  O  O147  1  0.931642  -0.000000  0.275153  1
  O  O148  1  0.826843  0.368602  0.200159  1
  O  O149  1  0.761830  0.641949  0.229849  1
  O  O150  1  0.738104  0.141943  0.388886  1
  O  O151  1  0.932014  0.858168  0.304160  1
  O  O152  1  0.738148  0.858174  0.388801  1
  O  O153  1  0.761862  0.358177  0.229814  1
  O  O154  1  0.932014  0.141936  0.304159  1
  O  O155  1  0.858050  0.692350  0.236943  1
  O  O156  1  0.915763  0.807759  0.262145  1
  O  O157  1  0.858052  0.307737  0.236948  1
  O  O158  1  0.915752  0.192360  0.262145  1
  O  O159  1  0.826918  0.631481  0.200148  1
  O  O160  1  0.836272  0.173236  0.378366  1
  O  O161  1  0.908071  0.826882  0.347021  1
  O  O162  1  0.836287  0.826883  0.378367  1
  O  O163  1  0.908070  0.173235  0.347022  1
  O  O164  1  0.698211  0.500050  0.228259  1
  O  O165  1  0.801757  0.000000  0.390407  1
  O  O166  1  0.935644  0.000000  0.331942  1
  O  O167  1  -0.000000  -0.000000  0.389517  1
  O  O168  1  0.932232  0.500067  0.388926  1
  O  O169  1  -0.000000  0.868590  0.275764  1
  O  O170  1  0.000000  0.859137  0.333116  1
  O  O171  1  0.911610  0.299780  0.379917  1
  O  O172  1  0.911609  0.700341  0.379919  1
  O  O173  1  0.921079  0.102943  0.384053  1
  O  O174  1  0.921074  0.897176  0.384053  1
  O  O175  1  0.952153  0.669075  0.235710  1
  O  O176  1  0.918587  0.831018  0.221045  1
  O  O177  1  0.952156  0.331030  0.235708  1
  O  O178  1  0.918580  0.169085  0.221044  1
  O  O179  1  -0.000000  0.500046  0.230123  1
  O  O180  1  -0.000000  0.368545  0.200158  1
  O  O181  1  0.695543  0.640968  0.200151  1
  O  O182  1  0.000000  0.631554  0.200157  1
  O  O183  1  -0.000000  0.131489  0.275748  1
  O  O184  1  0.695550  0.359136  0.200157  1
  O  O185  1  0.931380  0.000000  0.200159  1
  O  O186  1  -0.000000  0.363392  0.389595  1
  O  O187  1  0.000000  0.868546  0.200158  1
  O  O188  1  -0.000000  0.636725  0.389591  1
  O  O189  1  0.000000  0.131546  0.200161  1
  O  O190  1  -0.000000  0.140964  0.333115  1
  O  O191  1  0.328255  -0.000000  0.448363  1
  O  O192  1  0.171724  0.500053  0.607028  1
  O  O193  1  0.068335  0.000000  0.561876  1
  O  O194  1  0.261844  0.141945  0.448200  1
  O  O195  1  0.238131  0.641926  0.607188  1
  O  O196  1  0.067961  0.858162  0.532869  1
  O  O197  1  0.238139  0.358148  0.607187  1
  O  O198  1  0.261841  0.858172  0.448201  1
  O  O199  1  0.067960  0.141927  0.532872  1
  O  O200  1  0.141931  0.692338  0.600088  1
  O  O201  1  0.084214  0.807742  0.574887  1
  O  O202  1  0.141925  0.307726  0.600092  1
  O  O203  1  0.084223  0.192347  0.574887  1
  O  O204  1  0.163696  0.173228  0.458659  1
  O  O205  1  0.091915  0.826879  0.490007  1
  O  O206  1  0.163696  0.826890  0.458658  1
  O  O207  1  0.091914  0.173221  0.490009  1
  O  O208  1  0.198223  -0.000000  0.446616  1
  O  O209  1  0.301754  0.500060  0.608779  1
  O  O210  1  0.064335  -0.000000  0.505085  1
  O  O211  1  0.067745  0.500055  0.448108  1
  O  O212  1  0.088370  0.299772  0.457115  1
  O  O213  1  0.088375  0.700334  0.457114  1
  O  O214  1  0.078903  0.102942  0.452978  1
  O  O215  1  0.078902  0.897164  0.452978  1
  O  O216  1  0.047822  0.669080  0.601326  1
  O  O217  1  0.081400  0.831009  0.615983  1
  O  O218  1  0.047819  0.331024  0.601322  1
  O  O219  1  0.081397  0.169065  0.615984  1
  O  O220  1  0.066390  0.000000  0.418516  1
  O  O221  1  0.326920  0.868624  0.418522  1
  O  O222  1  0.326917  0.131500  0.418523  1
  O  O223  1  0.066219  0.363383  0.418517  1
  O  O224  1  0.195542  0.140984  0.418519  1
  O  O225  1  0.195541  0.859147  0.418518  1
  O  O226  1  0.066223  0.636718  0.418518  1
  O  O227  1  0.568327  0.500055  0.493512  1
  O  O228  1  0.431628  0.500048  0.493507  1
  O  O229  1  0.663692  0.326880  0.596730  1
  O  O230  1  0.499990  0.368561  0.418510  1
  O  O231  1  0.499984  0.631494  0.494123  1
  O  O232  1  0.499986  0.368613  0.494125  1
  O  O233  1  0.567960  0.641936  0.522516  1
  O  O234  1  0.432048  0.358153  0.522516  1
  O  O235  1  0.567966  0.358163  0.522518  1
  O  O236  1  0.432050  0.641936  0.522515  1
  O  O237  1  0.358052  0.192367  0.455299  1
  O  O238  1  0.584209  0.692352  0.480498  1
  O  O239  1  0.641919  0.807734  0.455294  1
  O  O240  1  0.415755  0.307740  0.480499  1
  O  O241  1  0.358049  0.807748  0.455299  1
  O  O242  1  0.584209  0.307755  0.480500  1
  O  O243  1  0.641923  0.192364  0.455296  1
  O  O244  1  0.415754  0.692352  0.480497  1
  O  O245  1  0.591908  0.673224  0.565377  1
  O  O246  1  0.408055  0.326877  0.565376  1
  O  O247  1  0.591910  0.326887  0.565378  1
  O  O248  1  0.408058  0.673220  0.565378  1
  O  O249  1  0.564329  0.500057  0.550299  1
  O  O250  1  0.435634  0.500051  0.550302  1
  O  O251  1  0.499990  0.640966  0.551474  1
  O  O252  1  0.499991  0.359128  0.551477  1
  O  O253  1  0.432226  -0.000000  0.607279  1
  O  O254  1  0.567754  -0.000000  0.607279  1
  O  O255  1  0.336288  0.673212  0.596733  1
  O  O256  1  0.499993  0.863371  0.607947  1
  O  O257  1  0.663690  0.673210  0.596727  1
  O  O258  1  0.499989  0.136730  0.607946  1
  O  O259  1  0.411607  0.799751  0.598277  1
  O  O260  1  0.588377  0.799770  0.598275  1
  O  O261  1  0.588370  0.200333  0.598273  1
  O  O262  1  0.411603  0.200322  0.598277  1
  O  O263  1  0.421072  0.602930  0.602413  1
  O  O264  1  0.578903  0.602942  0.602409  1
  O  O265  1  0.578906  0.397163  0.602410  1
  O  O266  1  0.421074  0.397158  0.602414  1
  O  O267  1  0.452159  0.169071  0.454064  1
  O  O268  1  0.581397  0.669077  0.439403  1
  O  O269  1  0.547820  0.831023  0.454064  1
  O  O270  1  0.418581  0.331039  0.439404  1
  O  O271  1  0.452160  0.831021  0.454066  1
  O  O272  1  0.581401  0.331028  0.439405  1
  O  O273  1  0.547826  0.169081  0.454064  1
  O  O274  1  0.418584  0.669079  0.439404  1
  O  O275  1  0.336294  0.326848  0.596727  1
  O  O276  1  0.499991  0.500037  0.607872  1
  O  O277  1  0.499988  0.631560  0.418513  1
  O  O278  1  0.431374  0.500055  0.418513  1
  O  O279  1  0.568608  0.500055  0.418512  1
  O  O280  1  0.499988  0.000000  0.448478  1
  O  O281  1  0.499990  0.131558  0.418515  1
  O  O282  1  0.499982  0.868551  0.418515  1
  O  O283  1  0.931643  -0.000000  0.561873  1
  O  O284  1  0.828252  0.500038  0.607023  1
  O  O285  1  0.671728  0.000000  0.448356  1
  O  O286  1  0.673206  0.131526  0.418504  1
  O  O287  1  0.932018  0.141939  0.532869  1
  O  O288  1  0.761848  0.358167  0.607192  1
  O  O289  1  0.738134  0.858163  0.448200  1
  O  O290  1  0.932013  0.858160  0.532868  1
  O  O291  1  0.738128  0.141942  0.448196  1
  O  O292  1  0.761839  0.641923  0.607188  1
  O  O293  1  0.915759  0.192357  0.574886  1
  O  O294  1  0.858053  0.307741  0.600086  1
  O  O295  1  0.915757  0.807740  0.574886  1
  O  O296  1  0.858055  0.692353  0.600087  1
  O  O297  1  0.908062  0.173225  0.490006  1
  O  O298  1  0.933585  -0.000000  0.418515  1
  O  O299  1  0.836289  0.826869  0.458659  1
  O  O300  1  0.908056  0.826886  0.490007  1
  O  O301  1  0.836278  0.173222  0.458653  1
  O  O302  1  0.933756  0.636730  0.418516  1
  O  O303  1  0.935641  -0.000000  0.505083  1
  O  O304  1  0.698226  0.500043  0.608774  1
  O  O305  1  0.801752  0.000000  0.446607  1
  O  O306  1  0.804437  0.140975  0.418512  1
  O  O307  1  0.000000  0.859133  0.503911  1
  O  O308  1  0.932227  0.500060  0.448110  1
  O  O309  1  0.933759  0.363390  0.418516  1
  O  O310  1  -0.000000  0.636728  0.447442  1
  O  O311  1  0.911602  0.299783  0.457114  1
  O  O312  1  0.911602  0.700322  0.457112  1
  O  O313  1  0.921075  0.102945  0.452976  1
  O  O314  1  0.921072  0.897177  0.452975  1
  O  O315  1  0.918587  0.169079  0.615983  1
  O  O316  1  0.952158  0.331013  0.601322  1
  O  O317  1  0.918581  0.831010  0.615984  1
  O  O318  1  0.952155  0.669080  0.601323  1
  O  O319  1  -0.000000  0.140969  0.503913  1
  O  O320  1  0.000000  0.500045  0.606909  1
  O  O321  1  0.000000  0.363383  0.447441  1
  O  O322  1  0.000000  -0.000000  0.447515  1
  O  O323  1  -0.000000  0.131485  0.561278  1
  O  O324  1  0.000000  0.868606  0.561279  1
  O  O325  1  0.673031  0.868645  0.418523  1
  O  O326  1  0.804451  0.859143  0.418516  1
  O  O327  1  0.068343  0.000000  0.711865  1
  O  O328  1  0.171713  0.499984  0.666727  1
  O  O329  1  0.173029  0.368628  0.636865  1
  O  O330  1  0.067966  0.141940  0.740875  1
  O  O331  1  0.238143  0.358171  0.666585  1
  O  O332  1  0.067925  0.858152  0.740870  1
  O  O333  1  0.238108  0.641940  0.666504  1
  O  O334  1  0.084219  0.192368  0.698855  1
  O  O335  1  0.141933  0.307788  0.673657  1
  O  O336  1  0.084226  0.807739  0.698861  1
  O  O337  1  0.141918  0.692390  0.673664  1
  O  O338  1  0.301754  0.500063  0.664978  1
  O  O339  1  0.068605  0.000000  0.636874  1
  O  O340  1  0.081395  0.169088  0.657764  1
  O  O341  1  0.047822  0.331010  0.672424  1
  O  O342  1  0.081394  0.831021  0.657758  1
  O  O343  1  0.047812  0.669063  0.672423  1
  O  O344  1  0.304450  0.359133  0.636872  1
  O  O345  1  0.304430  0.640966  0.636874  1
  O  O346  1  0.173185  0.631516  0.636883  1
  O  O347  1  0.566223  0.136738  0.636869  1
  O  O348  1  0.408066  0.673231  0.708364  1
  O  O349  1  0.591910  0.326892  0.708364  1
  O  O350  1  0.408066  0.326877  0.708366  1
  O  O351  1  0.591915  0.673241  0.708360  1
  O  O352  1  0.567753  0.000000  0.666466  1
  O  O353  1  0.432227  0.000000  0.666466  1
  O  O354  1  0.499994  0.863387  0.665800  1
  O  O355  1  0.499989  0.136732  0.665797  1
  O  O356  1  0.588375  0.799796  0.675472  1
  O  O357  1  0.411613  0.799793  0.675473  1
  O  O358  1  0.411604  0.200320  0.675470  1
  O  O359  1  0.588363  0.200342  0.675470  1
  O  O360  1  0.578899  0.602949  0.671335  1
  O  O361  1  0.421080  0.602934  0.671335  1
  O  O362  1  0.421078  0.397175  0.671336  1
  O  O363  1  0.578899  0.397189  0.671337  1
  O  O364  1  0.433588  0.500039  0.636871  1
  O  O365  1  0.499992  0.500067  0.665872  1
  O  O366  1  0.336266  0.673233  0.677020  1
  O  O367  1  0.663701  0.673229  0.677017  1
  O  O368  1  0.663693  0.326895  0.677018  1
  O  O369  1  0.336284  0.326881  0.677022  1
  O  O370  1  0.566393  0.500058  0.636869  1
  O  O371  1  0.566230  0.863384  0.636869  1
  O  O372  1  0.433759  0.863377  0.636870  1
  O  O373  1  0.433752  0.136725  0.636870  1
  O  O374  1  0.828264  0.500060  0.666725  1
  O  O375  1  0.931642  0.000000  0.711868  1
  O  O376  1  0.826843  0.368602  0.636874  1
  O  O377  1  0.761830  0.641949  0.666563  1
  O  O378  1  0.932014  0.858168  0.740875  1
  O  O379  1  0.761862  0.358177  0.666528  1
  O  O380  1  0.932014  0.141936  0.740874  1
  O  O381  1  0.858050  0.692350  0.673657  1
  O  O382  1  0.915763  0.807759  0.698859  1
  O  O383  1  0.858052  0.307737  0.673663  1
  O  O384  1  0.915752  0.192360  0.698860  1
  O  O385  1  0.826918  0.631481  0.636863  1
  O  O386  1  0.698211  0.500050  0.664974  1
  O  O387  1  -0.000000  0.868590  0.712479  1
  O  O388  1  0.952153  0.669075  0.672425  1
  O  O389  1  0.918587  0.831018  0.657760  1
  O  O390  1  0.952156  0.331030  0.672423  1
  O  O391  1  0.918580  0.169085  0.657759  1
  O  O392  1  0.000000  0.500046  0.666838  1
  O  O393  1  0.000000  0.368545  0.636873  1
  O  O394  1  0.695543  0.640968  0.636866  1
  O  O395  1  0.000000  0.631554  0.636872  1
  O  O396  1  0.000000  0.131489  0.712463  1
  O  O397  1  0.695550  0.359136  0.636872  1
  O  O398  1  0.931380  -0.000000  0.636874  1
  O  O399  1  0.000000  0.868546  0.636872  1
  O  O400  1  0.000000  0.131546  0.636876  1
  Si  Si401  1  0.090469  0.250049  0.160643  1
  Si  Si402  1  0.090475  0.750039  0.160641  1
  Si  Si403  1  0.295410  0.380286  0.175040  1
  Si  Si404  1  0.180844  0.619193  0.174932  1
  Si  Si405  1  0.057761  0.880895  0.121176  1
  Si  Si406  1  0.180842  0.380901  0.174920  1
  Si  Si407  1  0.057764  0.119191  0.121178  1
  Si  Si408  1  0.295397  0.619824  0.175044  1
  Si  Si409  1  0.442536  0.500044  0.175065  1
  Si  Si410  1  0.557446  0.500048  0.175063  1
  Si  Si411  1  0.442485  0.880904  0.175040  1
  Si  Si412  1  0.557500  0.880917  0.175040  1
  Si  Si413  1  0.557496  0.119189  0.175040  1
  Si  Si414  1  0.442482  0.119180  0.175042  1
  Si  Si415  1  0.392829  0.691155  0.153361  1
  Si  Si416  1  0.607148  0.691169  0.153357  1
  Si  Si417  1  0.607149  0.308933  0.153358  1
  Si  Si418  1  0.392839  0.308922  0.153359  1
  Si  Si419  1  0.942209  0.119192  0.121176  1
  Si  Si420  1  0.819140  0.380896  0.174927  1
  Si  Si421  1  0.942208  0.880896  0.121175  1
  Si  Si422  1  0.819134  0.619187  0.174914  1
  Si  Si423  1  0.704580  0.380275  0.175043  1
  Si  Si424  1  0.704574  0.619811  0.175038  1
  Si  Si425  1  0.909507  0.250047  0.160642  1
  Si  Si426  1  0.909505  0.750047  0.160642  1
  Si  Si427  1  -0.000000  0.381265  0.174694  1
  Si  Si428  1  -0.000000  0.618831  0.174692  1
  Si  Si429  1  0.090488  0.250071  0.239671  1
  Si  Si430  1  0.057494  0.380915  0.393403  1
  Si  Si431  1  0.058296  0.881267  0.200155  1
  Si  Si432  1  0.057446  -0.000000  0.393425  1
  Si  Si433  1  0.090456  0.750055  0.239673  1
  Si  Si434  1  0.107149  0.191175  0.371719  1
  Si  Si435  1  0.057496  0.619199  0.393403  1
  Si  Si436  1  0.107147  0.808942  0.371717  1
  Si  Si437  1  0.057764  0.119217  0.279137  1
  Si  Si438  1  0.319128  0.880904  0.393289  1
  Si  Si439  1  0.180855  0.380863  0.225384  1
  Si  Si440  1  0.057775  0.880910  0.279136  1
  Si  Si441  1  0.180813  0.619138  0.225401  1
  Si  Si442  1  0.319129  0.119215  0.393290  1
  Si  Si443  1  0.057499  0.119817  0.329172  1
  Si  Si444  1  0.204566  0.880302  0.393403  1
  Si  Si445  1  0.295408  0.380297  0.225275  1
  Si  Si446  1  0.057498  0.880283  0.329168  1
  Si  Si447  1  0.295381  0.619820  0.225271  1
  Si  Si448  1  0.204567  0.119817  0.393404  1
  Si  Si449  1  0.058297  0.118836  0.200161  1
  Si  Si450  1  0.442536  0.500054  0.225248  1
  Si  Si451  1  0.557447  0.500067  0.225247  1
  Si  Si452  1  0.442208  0.619205  0.339534  1
  Si  Si453  1  0.557766  0.380923  0.339532  1
  Si  Si454  1  0.442212  0.380913  0.339533  1
  Si  Si455  1  0.557763  0.619217  0.339535  1
  Si  Si456  1  0.442480  0.619815  0.289503  1
  Si  Si457  1  0.557502  0.380296  0.289503  1
  Si  Si458  1  0.442484  0.380290  0.289503  1
  Si  Si459  1  0.557498  0.619826  0.289500  1
  Si  Si460  1  0.499989  0.881275  0.393050  1
  Si  Si461  1  0.499984  0.118838  0.393050  1
  Si  Si462  1  0.557501  0.880927  0.225270  1
  Si  Si463  1  0.442487  0.880926  0.225270  1
  Si  Si464  1  0.442483  0.119198  0.225270  1
  Si  Si465  1  0.557495  0.119203  0.225269  1
  Si  Si466  1  0.607151  0.691183  0.246952  1
  Si  Si467  1  0.392830  0.691168  0.246951  1
  Si  Si468  1  0.392835  0.308931  0.246956  1
  Si  Si469  1  0.607145  0.308946  0.246954  1
  Si  Si470  1  0.590459  0.250076  0.378996  1
  Si  Si471  1  0.409504  0.750059  0.379001  1
  Si  Si472  1  0.590483  0.750082  0.379001  1
  Si  Si473  1  0.409506  0.250061  0.379000  1
  Si  Si474  1  0.942481  0.380929  0.393401  1
  Si  Si475  1  0.892836  0.808937  0.371715  1
  Si  Si476  1  0.941683  0.118830  0.200157  1
  Si  Si477  1  0.942536  0.000000  0.393423  1
  Si  Si478  1  0.892832  0.191172  0.371718  1
  Si  Si479  1  0.909508  0.250049  0.239673  1
  Si  Si480  1  0.909505  0.750054  0.239673  1
  Si  Si481  1  0.942484  0.619202  0.393401  1
  Si  Si482  1  0.819130  0.619209  0.225381  1
  Si  Si483  1  0.680814  0.119151  0.393266  1
  Si  Si484  1  0.942216  0.880903  0.279140  1
  Si  Si485  1  0.680857  0.880869  0.393290  1
  Si  Si486  1  0.819150  0.380911  0.225394  1
  Si  Si487  1  0.942208  0.119194  0.279137  1
  Si  Si488  1  0.704566  0.619809  0.225266  1
  Si  Si489  1  0.795381  0.119822  0.393401  1
  Si  Si490  1  0.942484  0.880282  0.329170  1
  Si  Si491  1  0.795410  0.880296  0.393399  1
  Si  Si492  1  0.704585  0.380294  0.225271  1
  Si  Si493  1  0.942481  0.119820  0.329169  1
  Si  Si494  1  0.941681  0.881262  0.200156  1
  Si  Si495  1  -0.000000  0.381264  0.225623  1
  Si  Si496  1  -0.000000  0.618825  0.225622  1
  Si  Si497  1  0.057445  0.000000  0.443608  1
  Si  Si498  1  0.057497  0.619191  0.443632  1
  Si  Si499  1  0.057496  0.119809  0.507862  1
  Si  Si500  1  0.057496  0.380919  0.443632  1
  Si  Si501  1  0.090469  0.250049  0.597358  1
  Si  Si502  1  0.204577  0.880286  0.443631  1
  Si  Si503  1  0.090475  0.750039  0.597356  1
  Si  Si504  1  0.295410  0.380286  0.611755  1
  Si  Si505  1  0.057495  0.880280  0.507860  1
  Si  Si506  1  0.107152  0.808935  0.465313  1
  Si  Si507  1  0.107149  0.191168  0.465313  1
  Si  Si508  1  0.319137  0.119199  0.443757  1
  Si  Si509  1  0.180844  0.619193  0.611647  1
  Si  Si510  1  0.057761  0.880895  0.557891  1
  Si  Si511  1  0.180842  0.380901  0.611635  1
  Si  Si512  1  0.319134  0.880915  0.443755  1
  Si  Si513  1  0.057764  0.119191  0.557893  1
  Si  Si514  1  0.204579  0.119830  0.443632  1
  Si  Si515  1  0.295397  0.619824  0.611759  1
  Si  Si516  1  0.442536  0.500044  0.611780  1
  Si  Si517  1  0.590472  0.250055  0.458032  1
  Si  Si518  1  0.557446  0.500048  0.611778  1
  Si  Si519  1  0.557761  0.619202  0.497496  1
  Si  Si520  1  0.442204  0.380895  0.497495  1
  Si  Si521  1  0.557765  0.380908  0.497498  1
  Si  Si522  1  0.442204  0.619203  0.497494  1
  Si  Si523  1  0.557495  0.619826  0.547525  1
  Si  Si524  1  0.442486  0.380286  0.547527  1
  Si  Si525  1  0.557496  0.380285  0.547526  1
  Si  Si526  1  0.442485  0.619812  0.547526  1
  Si  Si527  1  0.409503  0.750061  0.458028  1
  Si  Si528  1  0.590469  0.750055  0.458029  1
  Si  Si529  1  0.499988  0.881276  0.443980  1
  Si  Si530  1  0.409507  0.250045  0.458028  1
  Si  Si531  1  0.558297  0.618842  0.418512  1
  Si  Si532  1  0.499994  0.118836  0.443979  1
  Si  Si533  1  0.442485  0.880904  0.611755  1
  Si  Si534  1  0.557500  0.880917  0.611755  1
  Si  Si535  1  0.557496  0.119189  0.611755  1
  Si  Si536  1  0.442482  0.119180  0.611757  1
  Si  Si537  1  0.392829  0.691155  0.590075  1
  Si  Si538  1  0.607148  0.691169  0.590072  1
  Si  Si539  1  0.607149  0.308933  0.590073  1
  Si  Si540  1  0.392839  0.308922  0.590074  1
  Si  Si541  1  0.441682  0.381277  0.418516  1
  Si  Si542  1  0.441680  0.618837  0.418516  1
  Si  Si543  1  0.558298  0.381273  0.418517  1
  Si  Si544  1  0.942535  0.000000  0.443607  1
  Si  Si545  1  0.942209  0.119192  0.557891  1
  Si  Si546  1  0.819140  0.380896  0.611642  1
  Si  Si547  1  0.680840  0.880914  0.443753  1
  Si  Si548  1  0.942208  0.880896  0.557890  1
  Si  Si549  1  0.680841  0.119211  0.443736  1
  Si  Si550  1  0.819134  0.619187  0.611629  1
  Si  Si551  1  0.942481  0.119813  0.507859  1
  Si  Si552  1  0.704580  0.380275  0.611757  1
  Si  Si553  1  0.795405  0.880304  0.443631  1
  Si  Si554  1  0.942479  0.880285  0.507859  1
  Si  Si555  1  0.795394  0.119834  0.443624  1
  Si  Si556  1  0.704574  0.619811  0.611753  1
  Si  Si557  1  0.942482  0.380922  0.443631  1
  Si  Si558  1  0.942485  0.619194  0.443629  1
  Si  Si559  1  0.892823  0.191168  0.465310  1
  Si  Si560  1  0.892835  0.808935  0.465311  1
  Si  Si561  1  0.909507  0.250047  0.597356  1
  Si  Si562  1  0.909505  0.750047  0.597356  1
  Si  Si563  1  -0.000000  0.381265  0.611409  1
  Si  Si564  1  -0.000000  0.618831  0.611407  1
  Si  Si565  1  0.090488  0.250071  0.676386  1
  Si  Si566  1  0.058296  0.881267  0.636870  1
  Si  Si567  1  0.090456  0.750055  0.676388  1
  Si  Si568  1  0.057764  0.119217  0.715851  1
  Si  Si569  1  0.180855  0.380863  0.662099  1
  Si  Si570  1  0.057775  0.880910  0.715851  1
  Si  Si571  1  0.180813  0.619138  0.662116  1
  Si  Si572  1  0.295408  0.380297  0.661990  1
  Si  Si573  1  0.295381  0.619820  0.661986  1
  Si  Si574  1  0.058297  0.118836  0.636876  1
  Si  Si575  1  0.442536  0.500054  0.661963  1
  Si  Si576  1  0.557447  0.500067  0.661962  1
  Si  Si577  1  0.557501  0.880927  0.661984  1
  Si  Si578  1  0.442487  0.880926  0.661984  1
  Si  Si579  1  0.442483  0.119198  0.661984  1
  Si  Si580  1  0.557495  0.119203  0.661984  1
  Si  Si581  1  0.607151  0.691183  0.683666  1
  Si  Si582  1  0.392830  0.691168  0.683666  1
  Si  Si583  1  0.392835  0.308931  0.683670  1
  Si  Si584  1  0.607145  0.308946  0.683669  1
  Si  Si585  1  0.941683  0.118830  0.636872  1
  Si  Si586  1  0.909508  0.250049  0.676388  1
  Si  Si587  1  0.909505  0.750054  0.676388  1
  Si  Si588  1  0.819130  0.619209  0.662096  1
  Si  Si589  1  0.942216  0.880903  0.715855  1
  Si  Si590  1  0.819150  0.380911  0.662109  1
  Si  Si591  1  0.942208  0.119194  0.715852  1
  Si  Si592  1  0.704566  0.619809  0.661981  1
  Si  Si593  1  0.704585  0.380294  0.661986  1
  Si  Si594  1  0.941681  0.881262  0.636870  1
  Si  Si595  1  -0.000000  0.381264  0.662338  1
  Si  Si596  1  -0.000000  0.618825  0.662336  1
  H  H597  1  0.067961  0.858162  0.081487  1
  H  H598  1  0.067960  0.141927  0.081490  1
  H  H599  1  0.591908  0.673224  0.113995  1
  H  H600  1  0.408055  0.326877  0.113994  1
  H  H601  1  0.591910  0.326887  0.113996  1
  H  H602  1  0.408058  0.673220  0.113996  1
  H  H603  1  0.932018  0.141939  0.081487  1
  H  H604  1  0.932013  0.858160  0.081486  1
  H  H605  1  0.067966  0.141940  0.755543  1
  H  H606  1  0.067925  0.858152  0.755537  1
  H  H607  1  0.408066  0.673231  0.723031  1
  H  H608  1  0.591910  0.326892  0.723031  1
  H  H609  1  0.408066  0.326877  0.723034  1
  H  H610  1  0.591915  0.673241  0.723028  1
  H  H611  1  0.932014  0.858168  0.755543  1
  H  H612  1  0.932014  0.141936  0.755541  1
