# generated using pymatgen
data_Si42H2O85
_symmetry_space_group_name_H-M   'P 1'
_cell_length_a   12.80769475
_cell_length_b   12.63554297
_cell_length_c   85.02122977
_cell_angle_alpha   90.00000000
_cell_angle_beta   90.00000000
_cell_angle_gamma   90.00000000
_symmetry_Int_Tables_number   1
_chemical_formula_structural   Si42H2O85
_chemical_formula_sum   'Si168 H8 O340'
_cell_volume   13759.1707348
_cell_formula_units_Z   4
loop_
 _symmetry_equiv_pos_site_id
 _symmetry_equiv_pos_as_xyz
  1  'x, y, z'
loop_
 _atom_site_type_symbol
 _atom_site_label
 _atom_site_symmetry_multiplicity
 _atom_site_fract_x
 _atom_site_fract_y
 _atom_site_fract_z
 _atom_site_occupancy
  O  O1  1  0.658608  0.142426  0.112624  1
  O  O2  1  0.658598  0.857669  0.112625  1
  O  O3  1  0.780496  0.000000  0.102051  1
  O  O4  1  0.811998  0.202824  0.093587  1
  O  O5  1  0.811986  0.797262  0.093588  1
  O  O6  1  0.790987  0.399315  0.096638  1
  O  O7  1  0.790991  0.600767  0.096637  1
  O  O8  1  0.354219  0.329294  0.105777  1
  O  O9  1  0.354217  0.670813  0.105778  1
  O  O10  1  0.835261  0.329889  0.069394  1
  O  O11  1  0.335265  0.329899  0.075232  1
  O  O12  1  0.335258  0.670232  0.075233  1
  O  O13  1  0.835272  0.670222  0.069395  1
  O  O14  1  0.971612  0.331749  0.091730  1
  O  O15  1  0.971613  0.668352  0.091732  1
  O  O16  1  0.316497  0.500058  0.091154  1
  O  O17  1  0.176462  0.361093  0.093370  1
  O  O18  1  0.176459  0.639014  0.093371  1
  O  O19  1  0.054055  0.500047  0.103015  1
  O  O20  1  0.654352  0.500051  0.113288  1
  O  O21  1  0.799626  0.142382  0.149778  1
  O  O22  1  0.799617  0.857700  0.149779  1
  O  O23  1  0.921772  -0.000000  0.139202  1
  O  O24  1  0.844399  0.137843  0.121211  1
  O  O25  1  0.844390  0.862238  0.121212  1
  O  O26  1  0.987351  0.201859  0.139382  1
  O  O27  1  0.987338  0.798214  0.139384  1
  O  O28  1  0.676855  0.000000  0.160027  1
  O  O29  1  0.611736  0.140563  0.141313  1
  O  O30  1  0.611726  0.859532  0.141314  1
  O  O31  1  0.651206  0.199441  0.169640  1
  O  O32  1  0.651197  0.800644  0.169641  1
  O  O33  1  0.537693  0.000000  0.123264  1
  O  O34  1  0.471435  0.200805  0.121944  1
  O  O35  1  0.471422  0.799299  0.121945  1
  O  O36  1  0.800423  0.500030  0.150158  1
  O  O37  1  0.841972  0.500041  0.121423  1
  O  O38  1  0.962154  0.399455  0.140019  1
  O  O39  1  0.962152  0.600614  0.140021  1
  O  O40  1  0.609658  0.500046  0.142566  1
  O  O41  1  0.669442  0.398390  0.166873  1
  O  O42  1  0.669454  0.601694  0.166872  1
  O  O43  1  0.496666  0.398577  0.123261  1
  O  O44  1  0.496667  0.601527  0.123262  1
  O  O45  1  0.335673  0.325788  0.135693  1
  O  O46  1  0.335663  0.674301  0.135694  1
  O  O47  1  0.067635  0.326937  0.118194  1
  O  O48  1  0.067633  0.673145  0.118196  1
  O  O49  1  0.147639  0.332528  0.145504  1
  O  O50  1  0.147633  0.667550  0.145506  1
  O  O51  1  0.495686  0.329314  0.174671  1
  O  O52  1  0.495690  0.670753  0.174671  1
  O  O53  1  0.641674  0.329245  0.194771  1
  O  O54  1  0.641674  0.670825  0.194771  1
  O  O55  1  0.259214  0.500041  0.144934  1
  O  O56  1  0.306620  0.359912  0.165139  1
  O  O57  1  0.306622  0.640163  0.165140  1
  O  O58  1  0.400604  0.500033  0.180923  1
  O  O59  1  0.200265  0.142373  0.240767  1
  O  O60  1  0.200271  0.857692  0.240767  1
  O  O61  1  0.078119  0.000000  0.251344  1
  O  O62  1  0.155496  0.137831  0.269334  1
  O  O63  1  0.155503  0.862226  0.269334  1
  O  O64  1  0.012544  0.201851  0.251163  1
  O  O65  1  0.012551  0.798207  0.251162  1
  O  O66  1  0.323034  0.000000  0.230518  1
  O  O67  1  0.388157  0.140553  0.249232  1
  O  O68  1  0.388165  0.859522  0.249231  1
  O  O69  1  0.348683  0.199433  0.220905  1
  O  O70  1  0.348689  0.800637  0.220904  1
  O  O71  1  0.462201  0.000000  0.267281  1
  O  O72  1  0.528461  0.200792  0.268601  1
  O  O73  1  0.528472  0.799287  0.268599  1
  O  O74  1  0.199471  0.500028  0.240387  1
  O  O75  1  0.157922  0.500032  0.269122  1
  O  O76  1  0.037740  0.399448  0.250526  1
  O  O77  1  0.037741  0.600608  0.250525  1
  O  O78  1  0.390237  0.500041  0.247979  1
  O  O79  1  0.330446  0.398382  0.223673  1
  O  O80  1  0.330440  0.601685  0.223673  1
  O  O81  1  0.503230  0.398564  0.267283  1
  O  O82  1  0.503230  0.601514  0.267284  1
  O  O83  1  0.664225  0.325777  0.254852  1
  O  O84  1  0.664229  0.674288  0.254852  1
  O  O85  1  0.932262  0.326929  0.272351  1
  O  O86  1  0.932263  0.673135  0.272350  1
  O  O87  1  0.852256  0.332519  0.245041  1
  O  O88  1  0.852260  0.667541  0.245040  1
  O  O89  1  0.504201  0.329311  0.215874  1
  O  O90  1  0.504201  0.670751  0.215875  1
  O  O91  1  0.358212  0.329246  0.195775  1
  O  O92  1  0.358217  0.670824  0.195775  1
  O  O93  1  0.740680  0.500030  0.245611  1
  O  O94  1  0.693270  0.359905  0.225406  1
  O  O95  1  0.693271  0.640157  0.225405  1
  O  O96  1  0.599285  0.500031  0.209623  1
  O  O97  1  0.841295  0.142442  0.358544  1
  O  O98  1  0.341289  0.142412  0.277920  1
  O  O99  1  0.341298  0.857655  0.277920  1
  O  O100  1  0.841296  0.857686  0.358543  1
  O  O101  1  0.719403  -0.000000  0.347969  1
  O  O102  1  0.219402  0.000000  0.288494  1
  O  O103  1  0.687911  0.202843  0.339507  1
  O  O104  1  0.187901  0.202808  0.296958  1
  O  O105  1  0.187915  0.797248  0.296957  1
  O  O106  1  0.687908  0.797281  0.339506  1
  O  O107  1  0.708916  0.399338  0.342556  1
  O  O108  1  0.208909  0.399298  0.293907  1
  O  O109  1  0.208909  0.600751  0.293909  1
  O  O110  1  0.708913  0.600789  0.342556  1
  O  O111  1  0.145688  0.329291  0.351696  1
  O  O112  1  0.645676  0.329280  0.284768  1
  O  O113  1  0.645683  0.670807  0.284768  1
  O  O114  1  0.145681  0.670815  0.351696  1
  O  O115  1  0.664644  0.329887  0.315313  1
  O  O116  1  0.164650  0.329876  0.321151  1
  O  O117  1  0.164642  0.670208  0.321151  1
  O  O118  1  0.664650  0.670219  0.315313  1
  O  O119  1  0.528292  0.331760  0.337650  1
  O  O120  1  0.028285  0.331734  0.298816  1
  O  O121  1  0.028289  0.668338  0.298814  1
  O  O122  1  0.528289  0.668359  0.337648  1
  O  O123  1  0.183406  0.500048  0.337073  1
  O  O124  1  0.683401  0.500046  0.299390  1
  O  O125  1  0.323446  0.361094  0.339289  1
  O  O126  1  0.823435  0.361082  0.297174  1
  O  O127  1  0.823440  0.639000  0.297174  1
  O  O128  1  0.323441  0.639015  0.339289  1
  O  O129  1  0.445850  0.500059  0.348933  1
  O  O130  1  0.945847  0.500035  0.287530  1
  O  O131  1  0.345545  0.500035  0.277257  1
  O  O132  1  0.845549  0.500066  0.359207  1
  O  O133  1  0.700275  0.142408  0.395698  1
  O  O134  1  0.700279  0.857725  0.395697  1
  O  O135  1  0.578127  0.000000  0.385121  1
  O  O136  1  0.655503  0.137865  0.367131  1
  O  O137  1  0.655505  0.862261  0.367130  1
  O  O138  1  0.512554  0.201886  0.385302  1
  O  O139  1  0.512557  0.798241  0.385301  1
  O  O140  1  0.823044  -0.000000  0.405946  1
  O  O141  1  0.888166  0.140584  0.387233  1
  O  O142  1  0.888169  0.859552  0.387232  1
  O  O143  1  0.848697  0.199466  0.415560  1
  O  O144  1  0.848699  0.800673  0.415559  1
  O  O145  1  0.962204  0.000000  0.369183  1
  O  O146  1  0.028469  0.200818  0.367864  1
  O  O147  1  0.028471  0.799315  0.367862  1
  O  O148  1  0.699478  0.500067  0.396077  1
  O  O149  1  0.657929  0.500060  0.367342  1
  O  O150  1  0.537750  0.399484  0.385939  1
  O  O151  1  0.537749  0.600643  0.385939  1
  O  O152  1  0.890247  0.500060  0.388484  1
  O  O153  1  0.830454  0.398419  0.412792  1
  O  O154  1  0.830458  0.601721  0.412791  1
  O  O155  1  0.003239  0.398593  0.369179  1
  O  O156  1  0.003232  0.601544  0.369181  1
  O  O157  1  0.164231  0.325809  0.381612  1
  O  O158  1  0.164232  0.674327  0.381611  1
  O  O159  1  0.432272  0.326959  0.364113  1
  O  O160  1  0.432273  0.673166  0.364112  1
  O  O161  1  0.352267  0.332557  0.391424  1
  O  O162  1  0.352268  0.667577  0.391423  1
  O  O163  1  0.004214  0.329349  0.420590  1
  O  O164  1  0.004215  0.670794  0.420589  1
  O  O165  1  0.858237  0.329283  0.440690  1
  O  O166  1  0.858235  0.670862  0.440689  1
  O  O167  1  0.240686  0.500068  0.390852  1
  O  O168  1  0.193282  0.359946  0.411058  1
  O  O169  1  0.193284  0.640196  0.411057  1
  O  O170  1  0.099299  0.500073  0.426841  1
  O  O171  1  0.299656  0.142415  0.486684  1
  O  O172  1  0.299656  0.857732  0.486685  1
  O  O173  1  0.421806  -0.000000  0.497262  1
  O  O174  1  0.344427  0.137877  0.515251  1
  O  O175  1  0.344429  0.862272  0.515252  1
  O  O176  1  0.487376  0.201899  0.497080  1
  O  O177  1  0.487377  0.798253  0.497081  1
  O  O178  1  0.176889  0.000000  0.476436  1
  O  O179  1  0.111764  0.140589  0.495150  1
  O  O180  1  0.111765  0.859557  0.495150  1
  O  O181  1  0.151234  0.199471  0.466823  1
  O  O182  1  0.151234  0.800677  0.466823  1
  O  O183  1  0.037727  0.000000  0.513199  1
  O  O184  1  0.971460  0.200826  0.514518  1
  O  O185  1  0.971462  0.799322  0.514520  1
  O  O186  1  0.300452  0.500082  0.486305  1
  O  O187  1  0.342001  0.500075  0.515039  1
  O  O188  1  0.462179  0.399498  0.496443  1
  O  O189  1  0.462184  0.600656  0.496444  1
  O  O190  1  0.109683  0.500072  0.493897  1
  O  O191  1  0.169479  0.398424  0.469591  1
  O  O192  1  0.169471  0.601725  0.469591  1
  O  O193  1  0.996694  0.398600  0.513202  1
  O  O194  1  0.996695  0.601550  0.513201  1
  O  O195  1  0.835699  0.325818  0.500771  1
  O  O196  1  0.835699  0.674336  0.500771  1
  O  O197  1  0.567650  0.326974  0.518269  1
  O  O198  1  0.567652  0.673182  0.518270  1
  O  O199  1  0.647664  0.332568  0.490959  1
  O  O200  1  0.647666  0.667587  0.490960  1
  O  O201  1  0.995717  0.329355  0.461793  1
  O  O202  1  0.995714  0.670800  0.461793  1
  O  O203  1  0.141695  0.329284  0.441693  1
  O  O204  1  0.141695  0.670865  0.441692  1
  O  O205  1  0.759246  0.500078  0.491531  1
  O  O206  1  0.806649  0.359952  0.471325  1
  O  O207  1  0.806648  0.640202  0.471325  1
  O  O208  1  0.900633  0.500077  0.455541  1
  O  O209  1  0.658608  0.142426  0.604461  1
  O  O210  1  0.158635  0.142452  0.523838  1
  O  O211  1  0.158637  0.857696  0.523838  1
  O  O212  1  0.658598  0.857669  0.604462  1
  O  O213  1  0.780496  0.000000  0.593888  1
  O  O214  1  0.280528  0.000000  0.534412  1
  O  O215  1  0.811998  0.202824  0.585424  1
  O  O216  1  0.312017  0.202856  0.542875  1
  O  O217  1  0.312021  0.797295  0.542876  1
  O  O218  1  0.811986  0.797262  0.585425  1
  O  O219  1  0.790987  0.399315  0.588475  1
  O  O220  1  0.291010  0.399352  0.539826  1
  O  O221  1  0.291014  0.600803  0.539826  1
  O  O222  1  0.790991  0.600767  0.588474  1
  O  O223  1  0.354219  0.329294  0.597614  1
  O  O224  1  0.854242  0.329303  0.530686  1
  O  O225  1  0.854247  0.670830  0.530687  1
  O  O226  1  0.354217  0.670813  0.597614  1
  O  O227  1  0.835261  0.329889  0.561231  1
  O  O228  1  0.335265  0.329899  0.567069  1
  O  O229  1  0.335258  0.670232  0.567069  1
  O  O230  1  0.835272  0.670222  0.561232  1
  O  O231  1  0.971612  0.331749  0.583567  1
  O  O232  1  0.471632  0.331777  0.544734  1
  O  O233  1  0.471635  0.668371  0.544735  1
  O  O234  1  0.971613  0.668352  0.583569  1
  O  O235  1  0.316497  0.500058  0.582991  1
  O  O236  1  0.816518  0.500063  0.545309  1
  O  O237  1  0.176462  0.361093  0.585207  1
  O  O238  1  0.676480  0.361109  0.543092  1
  O  O239  1  0.676485  0.639030  0.543093  1
  O  O240  1  0.176459  0.639014  0.585208  1
  O  O241  1  0.054055  0.500047  0.594852  1
  O  O242  1  0.554074  0.500075  0.533449  1
  O  O243  1  0.154380  0.500079  0.523174  1
  O  O244  1  0.654352  0.500051  0.605125  1
  O  O245  1  0.799626  0.142382  0.641615  1
  O  O246  1  0.799617  0.857700  0.641616  1
  O  O247  1  0.921772  0.000000  0.631039  1
  O  O248  1  0.844399  0.137843  0.613048  1
  O  O249  1  0.844390  0.862238  0.613049  1
  O  O250  1  0.987351  0.201859  0.631219  1
  O  O251  1  0.987338  0.798214  0.631221  1
  O  O252  1  0.676855  0.000000  0.651864  1
  O  O253  1  0.611736  0.140563  0.633150  1
  O  O254  1  0.611726  0.859532  0.633151  1
  O  O255  1  0.651206  0.199441  0.661477  1
  O  O256  1  0.651197  0.800644  0.661478  1
  O  O257  1  0.537693  0.000000  0.615101  1
  O  O258  1  0.471435  0.200805  0.613781  1
  O  O259  1  0.471422  0.799299  0.613782  1
  O  O260  1  0.800423  0.500030  0.641995  1
  O  O261  1  0.841972  0.500041  0.613260  1
  O  O262  1  0.962154  0.399455  0.631856  1
  O  O263  1  0.962152  0.600614  0.631858  1
  O  O264  1  0.609658  0.500046  0.634403  1
  O  O265  1  0.669442  0.398390  0.658709  1
  O  O266  1  0.669454  0.601694  0.658709  1
  O  O267  1  0.496666  0.398577  0.615098  1
  O  O268  1  0.496667  0.601527  0.615099  1
  O  O269  1  0.335673  0.325788  0.627530  1
  O  O270  1  0.335663  0.674301  0.627530  1
  O  O271  1  0.067635  0.326937  0.610030  1
  O  O272  1  0.067633  0.673145  0.610033  1
  O  O273  1  0.147639  0.332528  0.637341  1
  O  O274  1  0.147633  0.667550  0.637343  1
  O  O275  1  0.495686  0.329314  0.666508  1
  O  O276  1  0.495690  0.670753  0.666508  1
  O  O277  1  0.641674  0.329245  0.686607  1
  O  O278  1  0.641674  0.670825  0.686607  1
  O  O279  1  0.259214  0.500041  0.636771  1
  O  O280  1  0.306620  0.359912  0.656976  1
  O  O281  1  0.306622  0.640163  0.656977  1
  O  O282  1  0.400604  0.500033  0.672760  1
  O  O283  1  0.200265  0.142373  0.732604  1
  O  O284  1  0.200271  0.857692  0.732604  1
  O  O285  1  0.078119  0.000000  0.743181  1
  O  O286  1  0.155496  0.137831  0.761171  1
  O  O287  1  0.155503  0.862226  0.761170  1
  O  O288  1  0.012544  0.201851  0.743000  1
  O  O289  1  0.012551  0.798207  0.742999  1
  O  O290  1  0.323034  0.000000  0.722355  1
  O  O291  1  0.388157  0.140553  0.741069  1
  O  O292  1  0.388165  0.859522  0.741068  1
  O  O293  1  0.348683  0.199433  0.712742  1
  O  O294  1  0.348689  0.800637  0.712741  1
  O  O295  1  0.462201  -0.000000  0.759117  1
  O  O296  1  0.528461  0.200792  0.760438  1
  O  O297  1  0.528472  0.799287  0.760436  1
  O  O298  1  0.199471  0.500028  0.732224  1
  O  O299  1  0.157922  0.500032  0.760959  1
  O  O300  1  0.037740  0.399448  0.742363  1
  O  O301  1  0.037741  0.600608  0.742362  1
  O  O302  1  0.390237  0.500041  0.739816  1
  O  O303  1  0.330446  0.398382  0.715510  1
  O  O304  1  0.330440  0.601685  0.715510  1
  O  O305  1  0.503230  0.398564  0.759120  1
  O  O306  1  0.503230  0.601514  0.759121  1
  O  O307  1  0.664225  0.325777  0.746689  1
  O  O308  1  0.664229  0.674288  0.746689  1
  O  O309  1  0.932262  0.326929  0.764188  1
  O  O310  1  0.932263  0.673135  0.764187  1
  O  O311  1  0.852256  0.332519  0.736878  1
  O  O312  1  0.852260  0.667541  0.736877  1
  O  O313  1  0.504201  0.329311  0.707711  1
  O  O314  1  0.504201  0.670751  0.707712  1
  O  O315  1  0.358212  0.329246  0.687612  1
  O  O316  1  0.358217  0.670824  0.687612  1
  O  O317  1  0.740680  0.500030  0.737448  1
  O  O318  1  0.693270  0.359905  0.717242  1
  O  O319  1  0.693271  0.640157  0.717242  1
  O  O320  1  0.599285  0.500031  0.701459  1
  O  O321  1  0.341289  0.142412  0.769757  1
  O  O322  1  0.341298  0.857655  0.769756  1
  O  O323  1  0.219402  0.000000  0.780331  1
  O  O324  1  0.187901  0.202808  0.788795  1
  O  O325  1  0.187915  0.797248  0.788793  1
  O  O326  1  0.208909  0.399298  0.785744  1
  O  O327  1  0.208909  0.600751  0.785746  1
  O  O328  1  0.645676  0.329280  0.776605  1
  O  O329  1  0.645683  0.670807  0.776605  1
  O  O330  1  0.664644  0.329887  0.807150  1
  O  O331  1  0.164650  0.329876  0.812988  1
  O  O332  1  0.164642  0.670208  0.812988  1
  O  O333  1  0.664650  0.670219  0.807150  1
  O  O334  1  0.028285  0.331734  0.790653  1
  O  O335  1  0.028289  0.668338  0.790651  1
  O  O336  1  0.683401  0.500046  0.791227  1
  O  O337  1  0.823435  0.361082  0.789011  1
  O  O338  1  0.823440  0.639000  0.789011  1
  O  O339  1  0.945847  0.500035  0.779367  1
  O  O340  1  0.345545  0.500035  0.769094  1
  Si  Si341  1  0.773266  0.121568  0.106382  1
  Si  Si342  1  0.773256  0.878520  0.106383  1
  Si  Si343  1  0.768435  0.500044  0.106727  1
  Si  Si344  1  0.853468  0.312677  0.087407  1
  Si  Si345  1  0.853469  0.687416  0.087408  1
  Si  Si346  1  0.297313  0.377652  0.091209  1
  Si  Si347  1  0.297311  0.622466  0.091209  1
  Si  Si348  1  0.066740  0.377145  0.101315  1
  Si  Si349  1  0.066740  0.622950  0.101317  1
  Si  Si350  1  0.385935  0.622946  0.179078  1
  Si  Si351  1  0.893174  0.121542  0.137982  1
  Si  Si352  1  0.893165  0.878534  0.137983  1
  Si  Si353  1  0.684646  0.121808  0.155959  1
  Si  Si354  1  0.684636  0.878276  0.155960  1
  Si  Si355  1  0.565088  0.121758  0.124420  1
  Si  Si356  1  0.565078  0.878341  0.124421  1
  Si  Si357  1  0.892571  0.500034  0.138187  1
  Si  Si358  1  0.687014  0.500042  0.156845  1
  Si  Si359  1  0.563218  0.500053  0.125546  1
  Si  Si360  1  0.412810  0.310219  0.121621  1
  Si  Si361  1  0.412804  0.689882  0.121622  1
  Si  Si362  1  0.043734  0.310966  0.136160  1
  Si  Si363  1  0.043726  0.689109  0.136162  1
  Si  Si364  1  0.616333  0.309216  0.176784  1
  Si  Si365  1  0.616336  0.690863  0.176784  1
  Si  Si366  1  0.260943  0.377532  0.148110  1
  Si  Si367  1  0.260941  0.622550  0.148110  1
  Si  Si368  1  0.385930  0.377125  0.179078  1
  Si  Si369  1  0.613957  0.622943  0.211467  1
  Si  Si370  1  0.106720  0.121535  0.252564  1
  Si  Si371  1  0.106724  0.878525  0.252563  1
  Si  Si372  1  0.315246  0.121802  0.234586  1
  Si  Si373  1  0.315252  0.878269  0.234585  1
  Si  Si374  1  0.434808  0.121747  0.266125  1
  Si  Si375  1  0.434817  0.878329  0.266124  1
  Si  Si376  1  0.107323  0.500029  0.252358  1
  Si  Si377  1  0.312880  0.500035  0.233700  1
  Si  Si378  1  0.436677  0.500040  0.264999  1
  Si  Si379  1  0.587085  0.310206  0.268924  1
  Si  Si380  1  0.587092  0.689870  0.268924  1
  Si  Si381  1  0.956162  0.310961  0.254386  1
  Si  Si382  1  0.956164  0.689100  0.254384  1
  Si  Si383  1  0.383554  0.309211  0.213761  1
  Si  Si384  1  0.383556  0.690856  0.213761  1
  Si  Si385  1  0.738950  0.377523  0.242435  1
  Si  Si386  1  0.738952  0.622540  0.242434  1
  Si  Si387  1  0.613957  0.377123  0.211467  1
  Si  Si388  1  0.726638  0.121586  0.352301  1
  Si  Si389  1  0.226632  0.121555  0.284164  1
  Si  Si390  1  0.226640  0.878505  0.284163  1
  Si  Si391  1  0.726637  0.878537  0.352300  1
  Si  Si392  1  0.731468  0.500064  0.352645  1
  Si  Si393  1  0.231460  0.500028  0.283819  1
  Si  Si394  1  0.646439  0.312693  0.333326  1
  Si  Si395  1  0.146430  0.312663  0.303138  1
  Si  Si396  1  0.146433  0.687400  0.303137  1
  Si  Si397  1  0.646437  0.687429  0.333325  1
  Si  Si398  1  0.202593  0.377641  0.337127  1
  Si  Si399  1  0.702586  0.377640  0.299336  1
  Si  Si400  1  0.702590  0.622454  0.299336  1
  Si  Si401  1  0.202589  0.622457  0.337128  1
  Si  Si402  1  0.433166  0.377157  0.347234  1
  Si  Si403  1  0.933162  0.377134  0.289231  1
  Si  Si404  1  0.933162  0.622937  0.289230  1
  Si  Si405  1  0.433165  0.622963  0.347233  1
  Si  Si406  1  0.113972  0.622981  0.424996  1
  Si  Si407  1  0.606728  0.121568  0.383902  1
  Si  Si408  1  0.606730  0.878559  0.383901  1
  Si  Si409  1  0.815258  0.121837  0.401880  1
  Si  Si410  1  0.815260  0.878302  0.401879  1
  Si  Si411  1  0.934816  0.121776  0.370340  1
  Si  Si412  1  0.934817  0.878356  0.370339  1
  Si  Si413  1  0.607333  0.500064  0.384107  1
  Si  Si414  1  0.812893  0.500067  0.402764  1
  Si  Si415  1  0.936684  0.500066  0.371465  1
  Si  Si416  1  0.087093  0.310232  0.367540  1
  Si  Si417  1  0.087092  0.689898  0.367540  1
  Si  Si418  1  0.456171  0.310994  0.382080  1
  Si  Si419  1  0.456172  0.689135  0.382079  1
  Si  Si420  1  0.883571  0.309248  0.422704  1
  Si  Si421  1  0.883572  0.690891  0.422703  1
  Si  Si422  1  0.238956  0.377561  0.394029  1
  Si  Si423  1  0.238957  0.622577  0.394028  1
  Si  Si424  1  0.113969  0.377163  0.424997  1
  Si  Si425  1  0.885960  0.622985  0.457385  1
  Si  Si426  1  0.393204  0.121579  0.498480  1
  Si  Si427  1  0.393202  0.878571  0.498481  1
  Si  Si428  1  0.184673  0.121840  0.480503  1
  Si  Si429  1  0.184673  0.878306  0.480503  1
  Si  Si430  1  0.065114  0.121782  0.512042  1
  Si  Si431  1  0.065116  0.878364  0.512043  1
  Si  Si432  1  0.392598  0.500077  0.498276  1
  Si  Si433  1  0.187038  0.500076  0.479617  1
  Si  Si434  1  0.063245  0.500075  0.510916  1
  Si  Si435  1  0.912837  0.310239  0.514842  1
  Si  Si436  1  0.912839  0.689909  0.514843  1
  Si  Si437  1  0.543758  0.311007  0.500303  1
  Si  Si438  1  0.543760  0.689146  0.500304  1
  Si  Si439  1  0.116361  0.309253  0.459679  1
  Si  Si440  1  0.116359  0.690898  0.459679  1
  Si  Si441  1  0.760974  0.377569  0.488353  1
  Si  Si442  1  0.760975  0.622585  0.488354  1
  Si  Si443  1  0.885963  0.377166  0.457385  1
  Si  Si444  1  0.773266  0.121568  0.598219  1
  Si  Si445  1  0.273292  0.121598  0.530081  1
  Si  Si446  1  0.273294  0.878549  0.530082  1
  Si  Si447  1  0.773256  0.878520  0.598220  1
  Si  Si448  1  0.768435  0.500044  0.598564  1
  Si  Si449  1  0.268463  0.500078  0.529737  1
  Si  Si450  1  0.853468  0.312677  0.579244  1
  Si  Si451  1  0.353485  0.312707  0.549056  1
  Si  Si452  1  0.353487  0.687442  0.549057  1
  Si  Si453  1  0.853469  0.687416  0.579245  1
  Si  Si454  1  0.297313  0.377652  0.583046  1
  Si  Si455  1  0.797330  0.377656  0.545254  1
  Si  Si456  1  0.797334  0.622472  0.545254  1
  Si  Si457  1  0.297311  0.622466  0.583046  1
  Si  Si458  1  0.066740  0.377145  0.593152  1
  Si  Si459  1  0.566755  0.377173  0.535148  1
  Si  Si460  1  0.566757  0.622977  0.535149  1
  Si  Si461  1  0.066740  0.622950  0.593154  1
  Si  Si462  1  0.385935  0.622946  0.670915  1
  Si  Si463  1  0.893174  0.121542  0.629819  1
  Si  Si464  1  0.893165  0.878534  0.629820  1
  Si  Si465  1  0.684646  0.121808  0.647796  1
  Si  Si466  1  0.684636  0.878276  0.647797  1
  Si  Si467  1  0.565088  0.121758  0.616257  1
  Si  Si468  1  0.565078  0.878341  0.616258  1
  Si  Si469  1  0.892571  0.500034  0.630024  1
  Si  Si470  1  0.687014  0.500042  0.648682  1
  Si  Si471  1  0.563218  0.500053  0.617383  1
  Si  Si472  1  0.412810  0.310219  0.613458  1
  Si  Si473  1  0.412804  0.689882  0.613459  1
  Si  Si474  1  0.043734  0.310966  0.627997  1
  Si  Si475  1  0.043726  0.689109  0.627999  1
  Si  Si476  1  0.616333  0.309216  0.668621  1
  Si  Si477  1  0.616336  0.690863  0.668621  1
  Si  Si478  1  0.260943  0.377532  0.639947  1
  Si  Si479  1  0.260941  0.622550  0.639947  1
  Si  Si480  1  0.385930  0.377125  0.670915  1
  Si  Si481  1  0.613957  0.622943  0.703304  1
  Si  Si482  1  0.106720  0.121535  0.744401  1
  Si  Si483  1  0.106724  0.878525  0.744400  1
  Si  Si484  1  0.315246  0.121802  0.726423  1
  Si  Si485  1  0.315252  0.878269  0.726422  1
  Si  Si486  1  0.434808  0.121747  0.757962  1
  Si  Si487  1  0.434817  0.878329  0.757961  1
  Si  Si488  1  0.107323  0.500029  0.744195  1
  Si  Si489  1  0.312880  0.500035  0.725537  1
  Si  Si490  1  0.436677  0.500040  0.756836  1
  Si  Si491  1  0.587085  0.310206  0.760761  1
  Si  Si492  1  0.587092  0.689870  0.760761  1
  Si  Si493  1  0.956162  0.310961  0.746223  1
  Si  Si494  1  0.956164  0.689100  0.746221  1
  Si  Si495  1  0.383554  0.309211  0.705598  1
  Si  Si496  1  0.383556  0.690856  0.705598  1
  Si  Si497  1  0.738950  0.377523  0.734272  1
  Si  Si498  1  0.738952  0.622540  0.734271  1
  Si  Si499  1  0.613957  0.377123  0.703304  1
  Si  Si500  1  0.226632  0.121555  0.776001  1
  Si  Si501  1  0.226640  0.878505  0.776000  1
  Si  Si502  1  0.231460  0.500028  0.775655  1
  Si  Si503  1  0.146430  0.312663  0.794975  1
  Si  Si504  1  0.146433  0.687400  0.794974  1
  Si  Si505  1  0.702586  0.377640  0.791172  1
  Si  Si506  1  0.702590  0.622454  0.791173  1
  Si  Si507  1  0.933162  0.377134  0.781068  1
  Si  Si508  1  0.933162  0.622937  0.781067  1
  H  H509  1  0.835261  0.329889  0.058809  1
  H  H510  1  0.335265  0.329899  0.064646  1
  H  H511  1  0.335258  0.670232  0.064647  1
  H  H512  1  0.835272  0.670222  0.058809  1
  H  H513  1  0.664644  0.329887  0.817736  1
  H  H514  1  0.164650  0.329876  0.823573  1
  H  H515  1  0.164642  0.670208  0.823573  1
  H  H516  1  0.664650  0.670219  0.817735  1
