# generated using pymatgen
data_Si12H2O25
_symmetry_space_group_name_H-M   'P 1'
_cell_length_a   18.21443564
_cell_length_b   11.53028005
_cell_length_c   56.85512887
_cell_angle_alpha   57.87465027
_cell_angle_beta   98.63194497
_cell_angle_gamma   68.02464466
_symmetry_Int_Tables_number   1
_chemical_formula_structural   Si12H2O25
_chemical_formula_sum   'Si72 H12 O150'
_cell_volume   8400.32046653
_cell_formula_units_Z   6
loop_
 _symmetry_equiv_pos_site_id
 _symmetry_equiv_pos_as_xyz
  1  'x, y, z'
loop_
 _atom_site_type_symbol
 _atom_site_label
 _atom_site_symmetry_multiplicity
 _atom_site_fract_x
 _atom_site_fract_y
 _atom_site_fract_z
 _atom_site_occupancy
  O  O1  1  0.332881  0.313226  0.131867  1
  O  O2  1  0.832749  0.314258  0.131753  1
  O  O3  1  0.247969  0.009549  0.149632  1
  O  O4  1  0.773206  0.722197  0.194351  1
  O  O5  1  0.273204  0.731588  0.191186  1
  O  O6  1  0.226963  0.277827  0.261939  1
  O  O7  1  0.726962  0.268442  0.265103  1
  O  O8  1  0.832360  0.471382  0.197437  1
  O  O9  1  0.332504  0.471685  0.197262  1
  O  O10  1  0.832493  0.863492  0.206775  1
  O  O11  1  0.332350  0.864075  0.206556  1
  O  O12  1  0.167810  0.528616  0.258861  1
  O  O13  1  0.667669  0.528310  0.259037  1
  O  O14  1  0.167672  0.136511  0.249524  1
  O  O15  1  0.667814  0.135929  0.249741  1
  O  O16  1  0.667290  0.686766  0.168506  1
  O  O17  1  0.167422  0.685732  0.168620  1
  O  O18  1  0.667413  0.979588  0.183935  1
  O  O19  1  0.167281  0.978826  0.184008  1
  O  O20  1  0.332881  0.313226  0.287794  1
  O  O21  1  0.832749  0.314258  0.287680  1
  O  O22  1  0.332750  0.020410  0.272363  1
  O  O23  1  0.832884  0.021171  0.272290  1
  O  O24  1  0.747976  0.494715  0.228043  1
  O  O25  1  0.252203  0.505314  0.228255  1
  O  O26  1  0.752188  0.990500  0.150736  1
  O  O27  1  0.247969  0.009549  0.305559  1
  O  O28  1  0.615956  0.828203  0.223192  1
  O  O29  1  0.115675  0.828017  0.223269  1
  O  O30  1  0.615682  0.940785  0.269078  1
  O  O31  1  0.115963  0.940032  0.269244  1
  O  O32  1  0.384210  0.171795  0.233107  1
  O  O33  1  0.884492  0.171973  0.233030  1
  O  O34  1  0.384487  0.059207  0.187222  1
  O  O35  1  0.884206  0.059956  0.187056  1
  O  O36  1  0.618097  0.706461  0.275855  1
  O  O37  1  0.117903  0.705948  0.275924  1
  O  O38  1  0.617904  0.058401  0.217116  1
  O  O39  1  0.118099  0.057501  0.217248  1
  O  O40  1  0.382069  0.293534  0.180445  1
  O  O41  1  0.882265  0.294042  0.180375  1
  O  O42  1  0.382265  0.941590  0.239183  1
  O  O43  1  0.882070  0.942488  0.239052  1
  O  O44  1  0.500250  0.765998  0.233297  1
  O  O45  1  0.000000  0.766335  0.233243  1
  O  O46  1  0.499917  0.233993  0.223003  1
  O  O47  1  0.000000  0.233651  0.223057  1
  O  O48  1  0.500192  0.883853  0.281570  1
  O  O49  1  -0.000000  0.884057  0.281537  1
  O  O50  1  0.499975  0.116142  0.174730  1
  O  O51  1  0.000000  0.115934  0.174763  1
  O  O52  1  0.773206  0.722197  0.350278  1
  O  O53  1  0.273204  0.731588  0.347113  1
  O  O54  1  0.226963  0.277827  0.417865  1
  O  O55  1  0.726962  0.268442  0.421030  1
  O  O56  1  0.832360  0.471382  0.353364  1
  O  O57  1  0.332504  0.471685  0.353188  1
  O  O58  1  0.832493  0.863492  0.362701  1
  O  O59  1  0.332350  0.864075  0.362483  1
  O  O60  1  0.167810  0.528616  0.414788  1
  O  O61  1  0.667669  0.528310  0.414964  1
  O  O62  1  0.167672  0.136511  0.405451  1
  O  O63  1  0.667814  0.135929  0.405668  1
  O  O64  1  0.667290  0.686766  0.324432  1
  O  O65  1  0.167422  0.685732  0.324547  1
  O  O66  1  0.667413  0.979588  0.339862  1
  O  O67  1  0.167281  0.978826  0.339935  1
  O  O68  1  0.332881  0.313226  0.443720  1
  O  O69  1  0.832749  0.314258  0.443607  1
  O  O70  1  0.332750  0.020410  0.428290  1
  O  O71  1  0.832884  0.021171  0.428217  1
  O  O72  1  0.747976  0.494715  0.383969  1
  O  O73  1  0.252203  0.505314  0.384182  1
  O  O74  1  0.752188  0.990500  0.306663  1
  O  O75  1  0.247969  0.009549  0.461486  1
  O  O76  1  0.615956  0.828203  0.379118  1
  O  O77  1  0.115675  0.828017  0.379196  1
  O  O78  1  0.615682  0.940785  0.425005  1
  O  O79  1  0.115963  0.940032  0.425171  1
  O  O80  1  0.384210  0.171795  0.389034  1
  O  O81  1  0.884492  0.171973  0.388957  1
  O  O82  1  0.384487  0.059207  0.343149  1
  O  O83  1  0.884206  0.059956  0.342983  1
  O  O84  1  0.618097  0.706461  0.431781  1
  O  O85  1  0.117903  0.705948  0.431851  1
  O  O86  1  0.617904  0.058401  0.373043  1
  O  O87  1  0.118099  0.057501  0.373175  1
  O  O88  1  0.382069  0.293534  0.336372  1
  O  O89  1  0.882265  0.294042  0.336302  1
  O  O90  1  0.382265  0.941590  0.395110  1
  O  O91  1  0.882070  0.942488  0.394979  1
  O  O92  1  0.500250  0.765998  0.389223  1
  O  O93  1  0.000000  0.766335  0.389170  1
  O  O94  1  0.499917  0.233993  0.378930  1
  O  O95  1  0.000000  0.233651  0.378984  1
  O  O96  1  0.500192  0.883853  0.437497  1
  O  O97  1  0.000000  0.884057  0.437464  1
  O  O98  1  0.499975  0.116142  0.330657  1
  O  O99  1  0.000000  0.115934  0.330690  1
  O  O100  1  0.773206  0.722197  0.506205  1
  O  O101  1  0.273204  0.731588  0.503039  1
  O  O102  1  0.226963  0.277827  0.573792  1
  O  O103  1  0.726962  0.268442  0.576957  1
  O  O104  1  0.832360  0.471382  0.509291  1
  O  O105  1  0.332504  0.471685  0.509115  1
  O  O106  1  0.832493  0.863492  0.518628  1
  O  O107  1  0.332350  0.864075  0.518410  1
  O  O108  1  0.167810  0.528616  0.570715  1
  O  O109  1  0.667669  0.528310  0.570891  1
  O  O110  1  0.167672  0.136511  0.561377  1
  O  O111  1  0.667814  0.135929  0.561595  1
  O  O112  1  0.667290  0.686766  0.480359  1
  O  O113  1  0.167422  0.685732  0.480473  1
  O  O114  1  0.667413  0.979588  0.495789  1
  O  O115  1  0.167281  0.978826  0.495861  1
  O  O116  1  0.332881  0.313226  0.599647  1
  O  O117  1  0.832749  0.314258  0.599533  1
  O  O118  1  0.332750  0.020410  0.584217  1
  O  O119  1  0.832884  0.021171  0.584144  1
  O  O120  1  0.747976  0.494715  0.539896  1
  O  O121  1  0.252203  0.505314  0.540109  1
  O  O122  1  0.752188  0.990500  0.462590  1
  O  O123  1  0.247969  0.009549  0.617413  1
  O  O124  1  0.615956  0.828203  0.535045  1
  O  O125  1  0.115675  0.828017  0.535123  1
  O  O126  1  0.615682  0.940785  0.580931  1
  O  O127  1  0.115963  0.940032  0.581098  1
  O  O128  1  0.384210  0.171795  0.544961  1
  O  O129  1  0.884492  0.171973  0.544884  1
  O  O130  1  0.384487  0.059207  0.499076  1
  O  O131  1  0.884206  0.059956  0.498910  1
  O  O132  1  0.618097  0.706461  0.587708  1
  O  O133  1  0.117903  0.705948  0.587778  1
  O  O134  1  0.617904  0.058401  0.528970  1
  O  O135  1  0.118099  0.057501  0.529101  1
  O  O136  1  0.382069  0.293534  0.492298  1
  O  O137  1  0.882265  0.294042  0.492229  1
  O  O138  1  0.382265  0.941590  0.551037  1
  O  O139  1  0.882070  0.942488  0.550906  1
  O  O140  1  0.500250  0.765998  0.545150  1
  O  O141  1  -0.000000  0.766335  0.545097  1
  O  O142  1  0.499917  0.233993  0.534856  1
  O  O143  1  0.000000  0.233651  0.534911  1
  O  O144  1  0.500192  0.883853  0.593423  1
  O  O145  1  0.000000  0.884057  0.593391  1
  O  O146  1  0.499975  0.116142  0.486584  1
  O  O147  1  0.000000  0.115934  0.486617  1
  O  O148  1  0.667290  0.686766  0.636286  1
  O  O149  1  0.167422  0.685732  0.636400  1
  O  O150  1  0.752188  0.990500  0.618516  1
  Si  Si151  1  0.755356  0.593620  0.197383  1
  Si  Si152  1  0.256438  0.597671  0.196702  1
  Si  Si153  1  0.756430  0.889649  0.183610  1
  Si  Si154  1  0.255347  0.895860  0.182593  1
  Si  Si155  1  0.244818  0.406390  0.258914  1
  Si  Si156  1  0.743736  0.402339  0.259595  1
  Si  Si157  1  0.243732  0.110374  0.272685  1
  Si  Si158  1  0.744816  0.104159  0.273703  1
  Si  Si159  1  0.601571  0.699697  0.248645  1
  Si  Si160  1  0.101291  0.699413  0.248688  1
  Si  Si161  1  0.601292  0.098161  0.239172  1
  Si  Si162  1  0.101580  0.097311  0.239306  1
  Si  Si163  1  0.398596  0.300296  0.207655  1
  Si  Si164  1  0.898877  0.300578  0.207612  1
  Si  Si165  1  0.398876  0.901832  0.217128  1
  Si  Si166  1  0.898587  0.902681  0.216994  1
  Si  Si167  1  0.601624  0.798527  0.289313  1
  Si  Si168  1  0.101461  0.798087  0.289375  1
  Si  Si169  1  0.601454  0.000000  0.198539  1
  Si  Si170  1  0.101621  0.998392  0.198650  1
  Si  Si171  1  0.398544  0.201466  0.166986  1
  Si  Si172  1  0.898706  0.201904  0.166925  1
  Si  Si173  1  0.398714  0.000000  0.257760  1
  Si  Si174  1  0.898547  0.001599  0.257650  1
  Si  Si175  1  0.755356  0.593620  0.353309  1
  Si  Si176  1  0.256438  0.597671  0.352629  1
  Si  Si177  1  0.756430  0.889649  0.339536  1
  Si  Si178  1  0.255347  0.895860  0.338519  1
  Si  Si179  1  0.244818  0.406390  0.414840  1
  Si  Si180  1  0.743736  0.402339  0.415522  1
  Si  Si181  1  0.243732  0.110374  0.428612  1
  Si  Si182  1  0.744816  0.104159  0.429630  1
  Si  Si183  1  0.601571  0.699697  0.404572  1
  Si  Si184  1  0.101291  0.699413  0.404615  1
  Si  Si185  1  0.601292  0.098161  0.395099  1
  Si  Si186  1  0.101580  0.097311  0.395233  1
  Si  Si187  1  0.398596  0.300296  0.363582  1
  Si  Si188  1  0.898877  0.300578  0.363539  1
  Si  Si189  1  0.398876  0.901832  0.373054  1
  Si  Si190  1  0.898587  0.902681  0.372920  1
  Si  Si191  1  0.601624  0.798527  0.445240  1
  Si  Si192  1  0.101461  0.798087  0.445302  1
  Si  Si193  1  0.601454  0.000000  0.354466  1
  Si  Si194  1  0.101621  0.998392  0.354577  1
  Si  Si195  1  0.398544  0.201466  0.322913  1
  Si  Si196  1  0.898706  0.201904  0.322852  1
  Si  Si197  1  0.398714  -0.000000  0.413687  1
  Si  Si198  1  0.898547  0.001599  0.413577  1
  Si  Si199  1  0.755356  0.593620  0.509236  1
  Si  Si200  1  0.256438  0.597671  0.508556  1
  Si  Si201  1  0.756430  0.889649  0.495463  1
  Si  Si202  1  0.255347  0.895860  0.494446  1
  Si  Si203  1  0.244818  0.406390  0.570767  1
  Si  Si204  1  0.743736  0.402339  0.571449  1
  Si  Si205  1  0.243732  0.110374  0.584538  1
  Si  Si206  1  0.744816  0.104159  0.585556  1
  Si  Si207  1  0.601571  0.699697  0.560498  1
  Si  Si208  1  0.101291  0.699413  0.560542  1
  Si  Si209  1  0.601292  0.098161  0.551026  1
  Si  Si210  1  0.101580  0.097311  0.551159  1
  Si  Si211  1  0.398596  0.300296  0.519508  1
  Si  Si212  1  0.898877  0.300578  0.519465  1
  Si  Si213  1  0.398876  0.901832  0.528981  1
  Si  Si214  1  0.898587  0.902681  0.528847  1
  Si  Si215  1  0.601624  0.798527  0.601166  1
  Si  Si216  1  0.101461  0.798087  0.601229  1
  Si  Si217  1  0.601454  -0.000000  0.510393  1
  Si  Si218  1  0.101621  0.998392  0.510503  1
  Si  Si219  1  0.398544  0.201466  0.478840  1
  Si  Si220  1  0.898706  0.201904  0.478778  1
  Si  Si221  1  0.398714  -0.000000  0.569614  1
  Si  Si222  1  0.898547  0.001599  0.569504  1
  H  H223  1  0.332881  0.313226  0.116037  1
  H  H224  1  0.832749  0.314258  0.115923  1
  H  H225  1  0.247969  0.009549  0.133803  1
  H  H226  1  0.667290  0.686766  0.152676  1
  H  H227  1  0.167422  0.685732  0.152790  1
  H  H228  1  0.752188  0.990500  0.134906  1
  H  H229  1  0.332881  0.313226  0.615477  1
  H  H230  1  0.832749  0.314258  0.615363  1
  H  H231  1  0.247969  0.009549  0.633242  1
  H  H232  1  0.667290  0.686766  0.652116  1
  H  H233  1  0.167422  0.685732  0.652230  1
  H  H234  1  0.752188  0.990500  0.634346  1
