# generated using pymatgen
data_Si12H2O25
_symmetry_space_group_name_H-M   'P 1'
_cell_length_a   11.87220547
_cell_length_b   21.48459692
_cell_length_c   60.49126377
_cell_angle_alpha   134.99964537
_cell_angle_beta   90.00000000
_cell_angle_gamma   90.00000000
_symmetry_Int_Tables_number   1
_chemical_formula_structural   Si12H2O25
_chemical_formula_sum   'Si96 H16 O200'
_cell_volume   10910.3570214
_cell_formula_units_Z   8
loop_
 _symmetry_equiv_pos_site_id
 _symmetry_equiv_pos_as_xyz
  1  'x, y, z'
loop_
 _atom_site_type_symbol
 _atom_site_label
 _atom_site_symmetry_multiplicity
 _atom_site_fract_x
 _atom_site_fract_y
 _atom_site_fract_z
 _atom_site_occupancy
  O  O1  1  0.887917  0.869313  0.174729  1
  O  O2  1  0.104942  0.877846  0.177374  1
  O  O3  1  0.710314  0.954759  0.190607  1
  O  O4  1  0.290326  0.952562  0.190080  1
  O  O5  1  0.777101  0.839201  0.132161  1
  O  O6  1  0.211226  0.835789  0.131871  1
  O  O7  1  0.895415  0.978225  0.172540  1
  O  O8  1  0.111899  0.982222  0.173016  1
  O  O9  1  0.000000  0.769511  0.177500  1
  O  O10  1  0.006374  0.746498  0.132106  1
  O  O11  1  0.649103  0.903478  0.216780  1
  O  O12  1  0.351224  0.903122  0.216861  1
  O  O13  1  0.499944  0.968223  0.208429  1
  O  O14  1  0.000000  0.600837  0.132043  1
  O  O15  1  0.649788  0.402860  0.249609  1
  O  O16  1  0.351476  0.402558  0.249600  1
  O  O17  1  0.350457  0.065735  0.249678  1
  O  O18  1  0.996109  0.272318  0.222090  1
  O  O19  1  0.002093  0.086993  0.221984  1
  O  O20  1  0.000000  0.102927  0.183465  1
  O  O21  1  -0.000000  0.244329  0.254600  1
  O  O22  1  0.648766  0.066375  0.249910  1
  O  O23  1  0.891185  0.803301  0.239823  1
  O  O24  1  0.106515  0.799747  0.239100  1
  O  O25  1  0.711376  0.778507  0.213280  1
  O  O26  1  0.290393  0.778374  0.213481  1
  O  O27  1  0.500654  0.835903  0.224450  1
  O  O28  1  0.893152  0.681091  0.182799  1
  O  O29  1  0.110922  0.680671  0.182342  1
  O  O30  1  0.894718  0.625339  0.238871  1
  O  O31  1  0.111646  0.630284  0.240922  1
  O  O32  1  0.709194  0.546949  0.213712  1
  O  O33  1  0.289255  0.546323  0.213611  1
  O  O34  1  0.887179  0.517736  0.181968  1
  O  O35  1  0.104340  0.521716  0.184023  1
  O  O36  1  0.996193  0.413138  0.178480  1
  O  O37  1  0.000000  0.397590  0.132015  1
  O  O38  1  0.649680  0.434559  0.216714  1
  O  O39  1  0.351254  0.434119  0.216657  1
  O  O40  1  0.499580  0.532490  0.224537  1
  O  O41  1  0.500823  0.335714  0.208152  1
  O  O42  1  0.785575  0.662758  0.213707  1
  O  O43  1  0.216514  0.662362  0.213573  1
  O  O44  1  0.894208  0.298000  0.174983  1
  O  O45  1  0.111101  0.304572  0.176266  1
  O  O46  1  0.710356  0.278088  0.190126  1
  O  O47  1  0.290301  0.278384  0.190216  1
  O  O48  1  0.783755  0.160535  0.131771  1
  O  O49  1  0.215858  0.163906  0.132157  1
  O  O50  1  0.887811  0.180414  0.172776  1
  O  O51  1  0.105077  0.185502  0.173125  1
  O  O52  1  0.004772  0.255929  0.131980  1
  O  O53  1  0.889001  0.702209  0.341121  1
  O  O54  1  0.887917  0.869313  0.425870  1
  O  O55  1  0.105365  0.695560  0.337807  1
  O  O56  1  0.104942  0.877846  0.428514  1
  O  O57  1  0.708751  0.722644  0.324981  1
  O  O58  1  0.710314  0.954759  0.441748  1
  O  O59  1  0.288885  0.720891  0.324884  1
  O  O60  1  0.290326  0.952562  0.441221  1
  O  O61  1  0.777101  0.839201  0.383301  1
  O  O62  1  0.211226  0.835789  0.383011  1
  O  O63  1  0.892097  0.818183  0.342729  1
  O  O64  1  0.895415  0.978225  0.423680  1
  O  O65  1  0.109393  0.818082  0.342223  1
  O  O66  1  0.111899  0.982222  0.424157  1
  O  O67  1  0.000000  0.769511  0.428641  1
  O  O68  1  0.006374  0.746498  0.383246  1
  O  O69  1  0.649103  0.903478  0.467920  1
  O  O70  1  0.351224  0.903122  0.468002  1
  O  O71  1  0.499944  0.968223  0.459570  1
  O  O72  1  0.894484  0.375069  0.276630  1
  O  O73  1  0.111388  0.370251  0.274243  1
  O  O74  1  0.709830  0.454101  0.301706  1
  O  O75  1  0.289854  0.452886  0.301462  1
  O  O76  1  0.887611  0.482493  0.333419  1
  O  O77  1  0.104664  0.478361  0.331075  1
  O  O78  1  0.996150  0.587753  0.337095  1
  O  O79  1  0.000000  0.600837  0.383184  1
  O  O80  1  0.649307  0.565787  0.298452  1
  O  O81  1  0.649788  0.402860  0.500749  1
  O  O82  1  0.350794  0.565295  0.298478  1
  O  O83  1  0.351476  0.402558  0.500740  1
  O  O84  1  0.500262  0.467418  0.290600  1
  O  O85  1  0.783837  0.338289  0.301746  1
  O  O86  1  0.215379  0.337508  0.301642  1
  O  O87  1  0.499496  0.664030  0.306954  1
  O  O88  1  0.887961  0.196688  0.274332  1
  O  O89  1  0.104756  0.200808  0.276480  1
  O  O90  1  0.710032  0.222218  0.301648  1
  O  O91  1  0.289548  0.221375  0.301538  1
  O  O92  1  0.499623  0.164485  0.290768  1
  O  O93  1  0.350457  0.065735  0.500819  1
  O  O94  1  0.895132  0.315076  0.331198  1
  O  O95  1  0.112152  0.319320  0.333333  1
  O  O96  1  0.996109  0.272318  0.473230  1
  O  O97  1  0.002093  0.086993  0.473124  1
  O  O98  1  0.000000  0.102927  0.434605  1
  O  O99  1  0.000000  0.244329  0.505741  1
  O  O100  1  0.648766  0.066375  0.501050  1
  O  O101  1  0.891185  0.803301  0.490964  1
  O  O102  1  0.106515  0.799747  0.490241  1
  O  O103  1  0.711376  0.778507  0.464420  1
  O  O104  1  0.290393  0.778374  0.464622  1
  O  O105  1  0.500654  0.835903  0.475591  1
  O  O106  1  0.351504  0.934238  0.265582  1
  O  O107  1  0.893152  0.681091  0.433940  1
  O  O108  1  0.110922  0.680671  0.433482  1
  O  O109  1  0.000000  0.728740  0.293291  1
  O  O110  1  0.998377  0.913508  0.293032  1
  O  O111  1  0.001194  0.897699  0.331643  1
  O  O112  1  0.997979  0.756029  0.260490  1
  O  O113  1  0.649761  0.934567  0.265365  1
  O  O114  1  0.894718  0.625339  0.490011  1
  O  O115  1  0.111646  0.630284  0.492063  1
  O  O116  1  0.709194  0.546949  0.464852  1
  O  O117  1  0.289255  0.546323  0.464752  1
  O  O118  1  0.887179  0.517736  0.433108  1
  O  O119  1  0.104340  0.521716  0.435163  1
  O  O120  1  0.996193  0.413138  0.429621  1
  O  O121  1  0.000000  0.397590  0.383155  1
  O  O122  1  0.649680  0.434559  0.467855  1
  O  O123  1  0.648942  0.597459  0.265551  1
  O  O124  1  0.351254  0.434119  0.467798  1
  O  O125  1  0.350539  0.596821  0.265534  1
  O  O126  1  0.499580  0.532490  0.475678  1
  O  O127  1  0.500823  0.335714  0.459292  1
  O  O128  1  0.785575  0.662758  0.464848  1
  O  O129  1  0.216514  0.662362  0.464714  1
  O  O130  1  0.894208  0.298000  0.426124  1
  O  O131  1  0.895467  0.126853  0.339899  1
  O  O132  1  0.111101  0.304572  0.427406  1
  O  O133  1  0.112390  0.128145  0.339017  1
  O  O134  1  0.710356  0.278088  0.441266  1
  O  O135  1  0.711388  0.046168  0.324647  1
  O  O136  1  0.290301  0.278384  0.441356  1
  O  O137  1  0.291246  0.046717  0.325120  1
  O  O138  1  0.783755  0.160535  0.382912  1
  O  O139  1  0.215858  0.163906  0.383298  1
  O  O140  1  0.887811  0.180414  0.423916  1
  O  O141  1  0.888755  0.017691  0.342050  1
  O  O142  1  0.105077  0.185502  0.424265  1
  O  O143  1  0.106063  0.021816  0.342228  1
  O  O144  1  0.002278  0.228131  0.336613  1
  O  O145  1  0.004772  0.255929  0.383120  1
  O  O146  1  0.649679  0.097628  0.298574  1
  O  O147  1  0.351366  0.096888  0.298400  1
  O  O148  1  0.501021  0.032343  0.306912  1
  O  O149  1  0.889001  0.702209  0.592262  1
  O  O150  1  0.105365  0.695560  0.588948  1
  O  O151  1  0.708751  0.722644  0.576122  1
  O  O152  1  0.288885  0.720891  0.576024  1
  O  O153  1  0.777101  0.839201  0.634442  1
  O  O154  1  0.211226  0.835789  0.634152  1
  O  O155  1  0.892097  0.818183  0.593870  1
  O  O156  1  0.109393  0.818082  0.593363  1
  O  O157  1  0.006374  0.746498  0.634387  1
  O  O158  1  0.894484  0.375069  0.527771  1
  O  O159  1  0.111388  0.370251  0.525384  1
  O  O160  1  0.709830  0.454101  0.552847  1
  O  O161  1  0.289854  0.452886  0.552602  1
  O  O162  1  0.887611  0.482493  0.584560  1
  O  O163  1  0.104664  0.478361  0.582216  1
  O  O164  1  0.996150  0.587753  0.588236  1
  O  O165  1  0.000000  0.600837  0.634324  1
  O  O166  1  0.649307  0.565787  0.549592  1
  O  O167  1  0.350794  0.565295  0.549619  1
  O  O168  1  0.500262  0.467418  0.541740  1
  O  O169  1  0.783837  0.338289  0.552887  1
  O  O170  1  0.215379  0.337508  0.552783  1
  O  O171  1  0.499496  0.664030  0.558094  1
  O  O172  1  0.887961  0.196688  0.525473  1
  O  O173  1  0.104756  0.200808  0.527621  1
  O  O174  1  0.710032  0.222218  0.552789  1
  O  O175  1  0.289548  0.221375  0.552679  1
  O  O176  1  0.499623  0.164485  0.541909  1
  O  O177  1  0.895132  0.315076  0.582339  1
  O  O178  1  0.112152  0.319320  0.584473  1
  O  O179  1  0.351504  0.934238  0.516723  1
  O  O180  1  0.000000  0.728740  0.544431  1
  O  O181  1  0.998377  0.913508  0.544173  1
  O  O182  1  0.001194  0.897699  0.582784  1
  O  O183  1  0.997979  0.756029  0.511631  1
  O  O184  1  0.649761  0.934567  0.516505  1
  O  O185  1  0.000000  0.397590  0.634296  1
  O  O186  1  0.648942  0.597459  0.516692  1
  O  O187  1  0.350539  0.596821  0.516675  1
  O  O188  1  0.895467  0.126853  0.591040  1
  O  O189  1  0.112390  0.128145  0.590158  1
  O  O190  1  0.711388  0.046168  0.575788  1
  O  O191  1  0.291246  0.046717  0.576261  1
  O  O192  1  0.783755  0.160535  0.634053  1
  O  O193  1  0.215858  0.163906  0.634439  1
  O  O194  1  0.888755  0.017691  0.593191  1
  O  O195  1  0.106063  0.021816  0.593369  1
  O  O196  1  0.002278  0.228131  0.587753  1
  O  O197  1  0.004772  0.255929  0.634261  1
  O  O198  1  0.649679  0.097628  0.549715  1
  O  O199  1  0.351366  0.096888  0.549541  1
  O  O200  1  0.501021  0.032343  0.558052  1
  Si  Si201  1  0.812576  0.910288  0.166852  1
  Si  Si202  1  0.184248  0.913380  0.168014  1
  Si  Si203  1  0.629117  0.973726  0.215644  1
  Si  Si204  1  0.370688  0.972879  0.215439  1
  Si  Si205  1  0.001196  0.680477  0.168645  1
  Si  Si206  1  0.000000  0.822454  0.168531  1
  Si  Si207  1  0.996434  0.183313  0.187473  1
  Si  Si208  1  0.003766  0.038441  0.187408  1
  Si  Si209  1  0.001695  0.320353  0.256377  1
  Si  Si210  1  0.997329  0.175315  0.256350  1
  Si  Si211  1  0.816583  0.729965  0.211526  1
  Si  Si212  1  0.187298  0.728248  0.211007  1
  Si  Si213  1  0.629865  0.859296  0.228902  1
  Si  Si214  1  0.371159  0.859001  0.229035  1
  Si  Si215  1  0.813090  0.586003  0.211070  1
  Si  Si216  1  0.185726  0.589107  0.212378  1
  Si  Si217  1  0.630299  0.358898  0.215255  1
  Si  Si218  1  0.629207  0.527398  0.229020  1
  Si  Si219  1  0.371280  0.358638  0.215259  1
  Si  Si220  1  0.370089  0.527139  0.229021  1
  Si  Si221  1  0.996003  0.462058  0.168418  1
  Si  Si222  1  0.813205  0.227238  0.167396  1
  Si  Si223  1  0.186167  0.231356  0.167747  1
  Si  Si224  1  0.002225  0.324710  0.168360  1
  Si  Si225  1  0.809449  0.773740  0.348544  1
  Si  Si226  1  0.812576  0.910288  0.417992  1
  Si  Si227  1  0.182493  0.768943  0.346923  1
  Si  Si228  1  0.184248  0.913380  0.419154  1
  Si  Si229  1  0.629117  0.973726  0.466785  1
  Si  Si230  1  0.370688  0.972879  0.466580  1
  Si  Si231  1  0.001196  0.680477  0.419785  1
  Si  Si232  1  0.000000  0.822454  0.419672  1
  Si  Si233  1  0.000000  0.675534  0.346836  1
  Si  Si234  1  0.812978  0.414526  0.304434  1
  Si  Si235  1  0.185673  0.410585  0.302700  1
  Si  Si236  1  0.629126  0.641407  0.299916  1
  Si  Si237  1  0.629686  0.472867  0.286121  1
  Si  Si238  1  0.370237  0.640576  0.299809  1
  Si  Si239  1  0.370625  0.472471  0.286165  1
  Si  Si240  1  0.996475  0.538135  0.346837  1
  Si  Si241  1  0.813919  0.269601  0.302846  1
  Si  Si242  1  0.186309  0.271844  0.304283  1
  Si  Si243  1  0.629247  0.141786  0.286390  1
  Si  Si244  1  0.370259  0.140978  0.286158  1
  Si  Si245  1  0.996434  0.183313  0.438614  1
  Si  Si246  1  0.003766  0.038441  0.438548  1
  Si  Si247  1  0.001695  0.320353  0.507518  1
  Si  Si248  1  0.997329  0.175315  0.507491  1
  Si  Si249  1  0.816583  0.729965  0.462667  1
  Si  Si250  1  0.187298  0.728248  0.462147  1
  Si  Si251  1  0.629865  0.859296  0.480043  1
  Si  Si252  1  0.371159  0.859001  0.480176  1
  Si  Si253  1  0.001917  0.817675  0.327895  1
  Si  Si254  1  0.997576  0.962260  0.327642  1
  Si  Si255  1  0.002335  0.680384  0.258938  1
  Si  Si256  1  0.997343  0.825024  0.258723  1
  Si  Si257  1  0.813090  0.586003  0.462211  1
  Si  Si258  1  0.185726  0.589107  0.463519  1
  Si  Si259  1  0.630299  0.358898  0.466395  1
  Si  Si260  1  0.629207  0.527398  0.480160  1
  Si  Si261  1  0.371280  0.358638  0.466399  1
  Si  Si262  1  0.370089  0.527139  0.480162  1
  Si  Si263  1  0.996003  0.462058  0.419558  1
  Si  Si264  1  0.813205  0.227238  0.418537  1
  Si  Si265  1  0.814354  0.085890  0.347348  1
  Si  Si266  1  0.186167  0.231356  0.418888  1
  Si  Si267  1  0.187224  0.089152  0.347656  1
  Si  Si268  1  0.630410  0.027174  0.299720  1
  Si  Si269  1  0.371423  0.027158  0.299898  1
  Si  Si270  1  0.003283  0.317201  0.346744  1
  Si  Si271  1  0.004059  0.179929  0.346732  1
  Si  Si272  1  0.002225  0.324710  0.419500  1
  Si  Si273  1  0.809449  0.773740  0.599685  1
  Si  Si274  1  0.182493  0.768943  0.598064  1
  Si  Si275  1  0.000000  0.675534  0.597977  1
  Si  Si276  1  0.812978  0.414526  0.555575  1
  Si  Si277  1  0.185673  0.410585  0.553840  1
  Si  Si278  1  0.629126  0.641407  0.551056  1
  Si  Si279  1  0.629686  0.472867  0.537262  1
  Si  Si280  1  0.370237  0.640576  0.550950  1
  Si  Si281  1  0.370625  0.472471  0.537306  1
  Si  Si282  1  0.996475  0.538135  0.597978  1
  Si  Si283  1  0.813919  0.269601  0.553987  1
  Si  Si284  1  0.186309  0.271844  0.555423  1
  Si  Si285  1  0.629247  0.141786  0.537531  1
  Si  Si286  1  0.370259  0.140978  0.537299  1
  Si  Si287  1  0.001917  0.817675  0.579036  1
  Si  Si288  1  0.997576  0.962260  0.578782  1
  Si  Si289  1  0.002335  0.680384  0.510079  1
  Si  Si290  1  0.997343  0.825024  0.509863  1
  Si  Si291  1  0.814354  0.085890  0.598488  1
  Si  Si292  1  0.187224  0.089152  0.598796  1
  Si  Si293  1  0.630410  0.027174  0.550861  1
  Si  Si294  1  0.371423  0.027158  0.551038  1
  Si  Si295  1  0.003283  0.317201  0.597884  1
  Si  Si296  1  0.004059  0.179929  0.597873  1
  H  H297  1  0.777101  0.839201  0.117283  1
  H  H298  1  0.211226  0.835789  0.116993  1
  H  H299  1  0.006374  0.746498  0.117227  1
  H  H300  1  0.000000  0.600837  0.117165  1
  H  H301  1  0.000000  0.397590  0.117136  1
  H  H302  1  0.783755  0.160535  0.116893  1
  H  H303  1  0.215858  0.163906  0.117279  1
  H  H304  1  0.004772  0.255929  0.117102  1
  H  H305  1  0.777101  0.839201  0.649320  1
  H  H306  1  0.211226  0.835789  0.649030  1
  H  H307  1  0.006374  0.746498  0.649265  1
  H  H308  1  0.000000  0.600837  0.649203  1
  H  H309  1  0.000000  0.397590  0.649174  1
  H  H310  1  0.783755  0.160535  0.648931  1
  H  H311  1  0.215858  0.163906  0.649317  1
  H  H312  1  0.004772  0.255929  0.649139  1
