# generated using pymatgen
data_Si28H2O57
_symmetry_space_group_name_H-M   'P 1'
_cell_length_a   12.80769475
_cell_length_b   12.63554297
_cell_length_c   63.70192563
_cell_angle_alpha   90.00000000
_cell_angle_beta   90.00000000
_cell_angle_gamma   90.00000000
_symmetry_Int_Tables_number   1
_chemical_formula_structural   Si28H2O57
_chemical_formula_sum   'Si112 H8 O228'
_cell_volume   10309.021326
_cell_formula_units_Z   4
loop_
 _symmetry_equiv_pos_site_id
 _symmetry_equiv_pos_as_xyz
  1  'x, y, z'
loop_
 _atom_site_type_symbol
 _atom_site_label
 _atom_site_symmetry_multiplicity
 _atom_site_fract_x
 _atom_site_fract_y
 _atom_site_fract_z
 _atom_site_occupancy
  O  O1  1  0.858237  0.329283  0.092620  1
  O  O2  1  0.858235  0.670862  0.092619  1
  O  O3  1  0.299656  0.142415  0.154007  1
  O  O4  1  0.299656  0.857732  0.154008  1
  O  O5  1  0.421806  -0.000000  0.168125  1
  O  O6  1  0.344427  0.137877  0.192135  1
  O  O7  1  0.344429  0.862272  0.192136  1
  O  O8  1  0.487376  0.201899  0.167882  1
  O  O9  1  0.487377  0.798253  0.167883  1
  O  O10  1  0.176889  -0.000000  0.140330  1
  O  O11  1  0.111764  0.140589  0.165306  1
  O  O12  1  0.111765  0.859557  0.165307  1
  O  O13  1  0.151234  0.199471  0.127499  1
  O  O14  1  0.151234  0.800677  0.127499  1
  O  O15  1  0.037727  -0.000000  0.189396  1
  O  O16  1  0.971460  0.200826  0.191157  1
  O  O17  1  0.971462  0.799322  0.191159  1
  O  O18  1  0.300452  0.500082  0.153501  1
  O  O19  1  0.342001  0.500075  0.191852  1
  O  O20  1  0.462179  0.399498  0.167032  1
  O  O21  1  0.462184  0.600656  0.167033  1
  O  O22  1  0.109683  0.500072  0.163635  1
  O  O23  1  0.169479  0.398424  0.131194  1
  O  O24  1  0.169471  0.601725  0.131193  1
  O  O25  1  0.996694  0.398600  0.189401  1
  O  O26  1  0.996695  0.601550  0.189399  1
  O  O27  1  0.835699  0.325818  0.172808  1
  O  O28  1  0.835699  0.674336  0.172808  1
  O  O29  1  0.567650  0.326974  0.196163  1
  O  O30  1  0.567652  0.673182  0.196165  1
  O  O31  1  0.647664  0.332568  0.159713  1
  O  O32  1  0.647666  0.667587  0.159714  1
  O  O33  1  0.995717  0.329355  0.120786  1
  O  O34  1  0.995714  0.670800  0.120785  1
  O  O35  1  0.141695  0.329284  0.093959  1
  O  O36  1  0.141695  0.670865  0.093958  1
  O  O37  1  0.759246  0.500078  0.160476  1
  O  O38  1  0.806649  0.359952  0.133507  1
  O  O39  1  0.806648  0.640202  0.133507  1
  O  O40  1  0.900633  0.500077  0.112441  1
  O  O41  1  0.658608  0.142426  0.311201  1
  O  O42  1  0.158635  0.142452  0.203596  1
  O  O43  1  0.158637  0.857696  0.203596  1
  O  O44  1  0.658598  0.857669  0.311203  1
  O  O45  1  0.780496  -0.000000  0.297089  1
  O  O46  1  0.280528  0.000000  0.217709  1
  O  O47  1  0.811998  0.202824  0.285793  1
  O  O48  1  0.312017  0.202856  0.229003  1
  O  O49  1  0.312021  0.797295  0.229005  1
  O  O50  1  0.811986  0.797262  0.285794  1
  O  O51  1  0.790987  0.399315  0.289864  1
  O  O52  1  0.291010  0.399352  0.224934  1
  O  O53  1  0.291014  0.600803  0.224934  1
  O  O54  1  0.790991  0.600767  0.289863  1
  O  O55  1  0.354219  0.329294  0.302062  1
  O  O56  1  0.854242  0.329303  0.212736  1
  O  O57  1  0.854247  0.670830  0.212736  1
  O  O58  1  0.354217  0.670813  0.302063  1
  O  O59  1  0.835261  0.329889  0.253503  1
  O  O60  1  0.335265  0.329899  0.261295  1
  O  O61  1  0.335258  0.670232  0.261295  1
  O  O62  1  0.835272  0.670222  0.253504  1
  O  O63  1  0.971612  0.331749  0.283314  1
  O  O64  1  0.471632  0.331777  0.231484  1
  O  O65  1  0.471635  0.668371  0.231486  1
  O  O66  1  0.971613  0.668352  0.283317  1
  O  O67  1  0.316497  0.500058  0.282546  1
  O  O68  1  0.816518  0.500063  0.232252  1
  O  O69  1  0.176462  0.361093  0.285503  1
  O  O70  1  0.676480  0.361109  0.229293  1
  O  O71  1  0.676485  0.639030  0.229295  1
  O  O72  1  0.176459  0.639014  0.285505  1
  O  O73  1  0.054055  0.500047  0.298376  1
  O  O74  1  0.554074  0.500075  0.216423  1
  O  O75  1  0.154380  0.500079  0.202710  1
  O  O76  1  0.654352  0.500051  0.312087  1
  O  O77  1  0.799626  0.142382  0.360790  1
  O  O78  1  0.799617  0.857700  0.360791  1
  O  O79  1  0.921772  0.000000  0.346673  1
  O  O80  1  0.844399  0.137843  0.322662  1
  O  O81  1  0.844390  0.862238  0.322663  1
  O  O82  1  0.987351  0.201859  0.346914  1
  O  O83  1  0.987338  0.798214  0.346917  1
  O  O84  1  0.676855  -0.000000  0.374468  1
  O  O85  1  0.611736  0.140563  0.349491  1
  O  O86  1  0.611726  0.859532  0.349492  1
  O  O87  1  0.651206  0.199441  0.387299  1
  O  O88  1  0.651197  0.800644  0.387300  1
  O  O89  1  0.537693  -0.000000  0.325402  1
  O  O90  1  0.471435  0.200805  0.323640  1
  O  O91  1  0.471422  0.799299  0.323642  1
  O  O92  1  0.800423  0.500030  0.361297  1
  O  O93  1  0.841972  0.500041  0.322945  1
  O  O94  1  0.962154  0.399455  0.347764  1
  O  O95  1  0.962152  0.600614  0.347767  1
  O  O96  1  0.609658  0.500046  0.351164  1
  O  O97  1  0.669442  0.398390  0.383605  1
  O  O98  1  0.669454  0.601694  0.383604  1
  O  O99  1  0.496666  0.398577  0.325398  1
  O  O100  1  0.496667  0.601527  0.325400  1
  O  O101  1  0.335673  0.325788  0.341990  1
  O  O102  1  0.335663  0.674301  0.341991  1
  O  O103  1  0.067635  0.326937  0.318634  1
  O  O104  1  0.067633  0.673145  0.318638  1
  O  O105  1  0.147639  0.332528  0.355085  1
  O  O106  1  0.147633  0.667550  0.355088  1
  O  O107  1  0.495686  0.329314  0.394013  1
  O  O108  1  0.495690  0.670753  0.394013  1
  O  O109  1  0.641674  0.329245  0.420840  1
  O  O110  1  0.641674  0.670825  0.420840  1
  O  O111  1  0.259214  0.500041  0.354324  1
  O  O112  1  0.306620  0.359912  0.381292  1
  O  O113  1  0.306622  0.640163  0.381292  1
  O  O114  1  0.400604  0.500033  0.402357  1
  O  O115  1  0.200265  0.142373  0.482230  1
  O  O116  1  0.200271  0.857692  0.482229  1
  O  O117  1  0.078119  0.000000  0.496347  1
  O  O118  1  0.155496  0.137831  0.520358  1
  O  O119  1  0.155503  0.862226  0.520357  1
  O  O120  1  0.012544  0.201851  0.496105  1
  O  O121  1  0.012551  0.798207  0.496103  1
  O  O122  1  0.323034  0.000000  0.468551  1
  O  O123  1  0.388157  0.140553  0.493528  1
  O  O124  1  0.388165  0.859522  0.493527  1
  O  O125  1  0.348683  0.199433  0.455720  1
  O  O126  1  0.348689  0.800637  0.455720  1
  O  O127  1  0.462201  -0.000000  0.517617  1
  O  O128  1  0.528461  0.200792  0.519379  1
  O  O129  1  0.528472  0.799287  0.519377  1
  O  O130  1  0.199471  0.500028  0.481723  1
  O  O131  1  0.157922  0.500032  0.520074  1
  O  O132  1  0.037740  0.399448  0.495254  1
  O  O133  1  0.037741  0.600608  0.495253  1
  O  O134  1  0.390237  0.500041  0.491856  1
  O  O135  1  0.330446  0.398382  0.459415  1
  O  O136  1  0.330440  0.601685  0.459415  1
  O  O137  1  0.503230  0.398564  0.517620  1
  O  O138  1  0.503230  0.601514  0.517621  1
  O  O139  1  0.664225  0.325777  0.501028  1
  O  O140  1  0.664229  0.674288  0.501028  1
  O  O141  1  0.932262  0.326929  0.524385  1
  O  O142  1  0.932263  0.673135  0.524383  1
  O  O143  1  0.852256  0.332519  0.487934  1
  O  O144  1  0.852260  0.667541  0.487932  1
  O  O145  1  0.504201  0.329311  0.449006  1
  O  O146  1  0.504201  0.670751  0.449007  1
  O  O147  1  0.358212  0.329246  0.422180  1
  O  O148  1  0.358217  0.670824  0.422180  1
  O  O149  1  0.740680  0.500030  0.488695  1
  O  O150  1  0.693270  0.359905  0.461727  1
  O  O151  1  0.693271  0.640157  0.461727  1
  O  O152  1  0.599285  0.500031  0.440662  1
  O  O153  1  0.841295  0.142442  0.639423  1
  O  O154  1  0.341289  0.142412  0.531818  1
  O  O155  1  0.341298  0.857655  0.531816  1
  O  O156  1  0.841296  0.857686  0.639423  1
  O  O157  1  0.719403  0.000000  0.625310  1
  O  O158  1  0.219402  0.000000  0.545930  1
  O  O159  1  0.687911  0.202843  0.614015  1
  O  O160  1  0.187901  0.202808  0.557226  1
  O  O161  1  0.187915  0.797248  0.557224  1
  O  O162  1  0.687908  0.797281  0.614014  1
  O  O163  1  0.708916  0.399338  0.618084  1
  O  O164  1  0.208909  0.399298  0.553154  1
  O  O165  1  0.208909  0.600751  0.553157  1
  O  O166  1  0.708913  0.600789  0.618085  1
  O  O167  1  0.145688  0.329291  0.630283  1
  O  O168  1  0.645676  0.329280  0.540956  1
  O  O169  1  0.645683  0.670807  0.540956  1
  O  O170  1  0.145681  0.670815  0.630283  1
  O  O171  1  0.664644  0.329887  0.581725  1
  O  O172  1  0.164650  0.329876  0.589516  1
  O  O173  1  0.164642  0.670208  0.589516  1
  O  O174  1  0.664650  0.670219  0.581724  1
  O  O175  1  0.528292  0.331760  0.611536  1
  O  O176  1  0.028285  0.331734  0.559706  1
  O  O177  1  0.028289  0.668338  0.559704  1
  O  O178  1  0.528289  0.668359  0.611534  1
  O  O179  1  0.183406  0.500048  0.610767  1
  O  O180  1  0.683401  0.500046  0.560472  1
  O  O181  1  0.323446  0.361094  0.613725  1
  O  O182  1  0.823435  0.361082  0.557515  1
  O  O183  1  0.823440  0.639000  0.557515  1
  O  O184  1  0.323441  0.639015  0.613725  1
  O  O185  1  0.445850  0.500059  0.626596  1
  O  O186  1  0.945847  0.500035  0.544644  1
  O  O187  1  0.345545  0.500035  0.530932  1
  O  O188  1  0.845549  0.500066  0.640308  1
  O  O189  1  0.700275  0.142408  0.689012  1
  O  O190  1  0.700279  0.857725  0.689011  1
  O  O191  1  0.578127  -0.000000  0.674895  1
  O  O192  1  0.655503  0.137865  0.650884  1
  O  O193  1  0.655505  0.862261  0.650883  1
  O  O194  1  0.512554  0.201886  0.675137  1
  O  O195  1  0.512557  0.798241  0.675136  1
  O  O196  1  0.823044  0.000000  0.702689  1
  O  O197  1  0.888166  0.140584  0.677714  1
  O  O198  1  0.888169  0.859552  0.677712  1
  O  O199  1  0.848697  0.199466  0.715521  1
  O  O200  1  0.848699  0.800673  0.715520  1
  O  O201  1  0.962204  -0.000000  0.653623  1
  O  O202  1  0.028469  0.200818  0.651863  1
  O  O203  1  0.028471  0.799315  0.651860  1
  O  O204  1  0.699478  0.500067  0.689518  1
  O  O205  1  0.657929  0.500060  0.651166  1
  O  O206  1  0.537750  0.399484  0.675987  1
  O  O207  1  0.537749  0.600643  0.675986  1
  O  O208  1  0.890247  0.500060  0.679384  1
  O  O209  1  0.830454  0.398419  0.711826  1
  O  O210  1  0.830458  0.601721  0.711825  1
  O  O211  1  0.003239  0.398593  0.653618  1
  O  O212  1  0.003232  0.601544  0.653620  1
  O  O213  1  0.164231  0.325809  0.670211  1
  O  O214  1  0.164232  0.674327  0.670210  1
  O  O215  1  0.432272  0.326959  0.646857  1
  O  O216  1  0.432273  0.673166  0.646855  1
  O  O217  1  0.352267  0.332557  0.683307  1
  O  O218  1  0.352268  0.667577  0.683306  1
  O  O219  1  0.004214  0.329349  0.722234  1
  O  O220  1  0.004215  0.670794  0.722233  1
  O  O221  1  0.858237  0.329283  0.749062  1
  O  O222  1  0.858235  0.670862  0.749060  1
  O  O223  1  0.240686  0.500068  0.682544  1
  O  O224  1  0.193282  0.359946  0.709512  1
  O  O225  1  0.193284  0.640196  0.709512  1
  O  O226  1  0.099299  0.500073  0.730577  1
  O  O227  1  0.141695  0.329284  0.750400  1
  O  O228  1  0.141695  0.670865  0.750399  1
  Si  Si229  1  0.885960  0.622985  0.114903  1
  Si  Si230  1  0.393204  0.121579  0.169751  1
  Si  Si231  1  0.393202  0.878571  0.169752  1
  Si  Si232  1  0.184673  0.121840  0.145757  1
  Si  Si233  1  0.184673  0.878306  0.145758  1
  Si  Si234  1  0.065114  0.121782  0.187852  1
  Si  Si235  1  0.065116  0.878364  0.187853  1
  Si  Si236  1  0.392598  0.500077  0.169478  1
  Si  Si237  1  0.187038  0.500076  0.144576  1
  Si  Si238  1  0.063245  0.500075  0.186349  1
  Si  Si239  1  0.912837  0.310239  0.191589  1
  Si  Si240  1  0.912839  0.689909  0.191590  1
  Si  Si241  1  0.543758  0.311007  0.172183  1
  Si  Si242  1  0.543760  0.689146  0.172185  1
  Si  Si243  1  0.116361  0.309253  0.117964  1
  Si  Si244  1  0.116359  0.690898  0.117964  1
  Si  Si245  1  0.760974  0.377569  0.156235  1
  Si  Si246  1  0.760975  0.622585  0.156236  1
  Si  Si247  1  0.885963  0.377166  0.114903  1
  Si  Si248  1  0.773266  0.121568  0.302870  1
  Si  Si249  1  0.273292  0.121598  0.211928  1
  Si  Si250  1  0.273294  0.878549  0.211929  1
  Si  Si251  1  0.773256  0.878520  0.302871  1
  Si  Si252  1  0.768435  0.500044  0.303330  1
  Si  Si253  1  0.268463  0.500078  0.211468  1
  Si  Si254  1  0.853468  0.312677  0.277545  1
  Si  Si255  1  0.353485  0.312707  0.237253  1
  Si  Si256  1  0.353487  0.687442  0.237255  1
  Si  Si257  1  0.853469  0.687416  0.277546  1
  Si  Si258  1  0.297313  0.377652  0.282619  1
  Si  Si259  1  0.797330  0.377656  0.232179  1
  Si  Si260  1  0.797334  0.622472  0.232179  1
  Si  Si261  1  0.297311  0.622466  0.282619  1
  Si  Si262  1  0.066740  0.377145  0.296107  1
  Si  Si263  1  0.566755  0.377173  0.218691  1
  Si  Si264  1  0.566757  0.622977  0.218692  1
  Si  Si265  1  0.066740  0.622950  0.296109  1
  Si  Si266  1  0.385935  0.622946  0.399896  1
  Si  Si267  1  0.893174  0.121542  0.345046  1
  Si  Si268  1  0.893165  0.878534  0.345047  1
  Si  Si269  1  0.684646  0.121808  0.369039  1
  Si  Si270  1  0.684636  0.878276  0.369040  1
  Si  Si271  1  0.565088  0.121758  0.326945  1
  Si  Si272  1  0.565078  0.878341  0.326946  1
  Si  Si273  1  0.892571  0.500034  0.345319  1
  Si  Si274  1  0.687014  0.500042  0.370221  1
  Si  Si275  1  0.563218  0.500053  0.328448  1
  Si  Si276  1  0.412810  0.310219  0.323208  1
  Si  Si277  1  0.412804  0.689882  0.323210  1
  Si  Si278  1  0.043734  0.310966  0.342613  1
  Si  Si279  1  0.043726  0.689109  0.342617  1
  Si  Si280  1  0.616333  0.309216  0.396833  1
  Si  Si281  1  0.616336  0.690863  0.396833  1
  Si  Si282  1  0.260943  0.377532  0.358563  1
  Si  Si283  1  0.260941  0.622550  0.358564  1
  Si  Si284  1  0.385930  0.377125  0.399896  1
  Si  Si285  1  0.613957  0.622943  0.443124  1
  Si  Si286  1  0.106720  0.121535  0.497975  1
  Si  Si287  1  0.106724  0.878525  0.497973  1
  Si  Si288  1  0.315246  0.121802  0.473980  1
  Si  Si289  1  0.315252  0.878269  0.473978  1
  Si  Si290  1  0.434808  0.121747  0.516074  1
  Si  Si291  1  0.434817  0.878329  0.516073  1
  Si  Si292  1  0.107323  0.500029  0.497700  1
  Si  Si293  1  0.312880  0.500035  0.472798  1
  Si  Si294  1  0.436677  0.500040  0.514571  1
  Si  Si295  1  0.587085  0.310206  0.519811  1
  Si  Si296  1  0.587092  0.689870  0.519810  1
  Si  Si297  1  0.956162  0.310961  0.500406  1
  Si  Si298  1  0.956164  0.689100  0.500404  1
  Si  Si299  1  0.383554  0.309211  0.446186  1
  Si  Si300  1  0.383556  0.690856  0.446185  1
  Si  Si301  1  0.738950  0.377523  0.484456  1
  Si  Si302  1  0.738952  0.622540  0.484455  1
  Si  Si303  1  0.613957  0.377123  0.443124  1
  Si  Si304  1  0.726638  0.121586  0.631091  1
  Si  Si305  1  0.226632  0.121555  0.540150  1
  Si  Si306  1  0.226640  0.878505  0.540149  1
  Si  Si307  1  0.726637  0.878537  0.631090  1
  Si  Si308  1  0.731468  0.500064  0.631551  1
  Si  Si309  1  0.231460  0.500028  0.539690  1
  Si  Si310  1  0.646439  0.312693  0.605766  1
  Si  Si311  1  0.146430  0.312663  0.565475  1
  Si  Si312  1  0.146433  0.687400  0.565474  1
  Si  Si313  1  0.646437  0.687429  0.605765  1
  Si  Si314  1  0.202593  0.377641  0.610839  1
  Si  Si315  1  0.702586  0.377640  0.560400  1
  Si  Si316  1  0.702590  0.622454  0.560400  1
  Si  Si317  1  0.202589  0.622457  0.610840  1
  Si  Si318  1  0.433166  0.377157  0.624328  1
  Si  Si319  1  0.933162  0.377134  0.546913  1
  Si  Si320  1  0.933162  0.622937  0.546912  1
  Si  Si321  1  0.433165  0.622963  0.624327  1
  Si  Si322  1  0.113972  0.622981  0.728116  1
  Si  Si323  1  0.606728  0.121568  0.673267  1
  Si  Si324  1  0.606730  0.878559  0.673267  1
  Si  Si325  1  0.815258  0.121837  0.697262  1
  Si  Si326  1  0.815260  0.878302  0.697261  1
  Si  Si327  1  0.934816  0.121776  0.655167  1
  Si  Si328  1  0.934817  0.878356  0.655165  1
  Si  Si329  1  0.607333  0.500064  0.673541  1
  Si  Si330  1  0.812893  0.500067  0.698443  1
  Si  Si331  1  0.936684  0.500066  0.656669  1
  Si  Si332  1  0.087093  0.310232  0.651430  1
  Si  Si333  1  0.087092  0.689898  0.651430  1
  Si  Si334  1  0.456171  0.310994  0.670836  1
  Si  Si335  1  0.456172  0.689135  0.670835  1
  Si  Si336  1  0.883571  0.309248  0.725055  1
  Si  Si337  1  0.883572  0.690891  0.725054  1
  Si  Si338  1  0.238956  0.377561  0.686784  1
  Si  Si339  1  0.238957  0.622577  0.686784  1
  Si  Si340  1  0.113969  0.377163  0.728116  1
  H  H341  1  0.858237  0.329283  0.078492  1
  H  H342  1  0.858235  0.670862  0.078491  1
  H  H343  1  0.141695  0.329284  0.079830  1
  H  H344  1  0.141695  0.670865  0.079830  1
  H  H345  1  0.858237  0.329283  0.763190  1
  H  H346  1  0.858235  0.670862  0.763189  1
  H  H347  1  0.141695  0.329284  0.764528  1
  H  H348  1  0.141695  0.670865  0.764528  1
