# generated using pymatgen
data_Si40H2O81
_symmetry_space_group_name_H-M   'P 1'
_cell_length_a   20.61705954
_cell_length_b   9.77350595
_cell_length_c   70.47430699
_cell_angle_alpha   90.00000000
_cell_angle_beta   90.00000000
_cell_angle_gamma   90.00000000
_symmetry_Int_Tables_number   1
_chemical_formula_structural   Si40H2O81
_chemical_formula_sum   'Si160 H8 O324'
_cell_volume   14200.6400973
_cell_formula_units_Z   4
loop_
 _symmetry_equiv_pos_site_id
 _symmetry_equiv_pos_as_xyz
  1  'x, y, z'
loop_
 _atom_site_type_symbol
 _atom_site_label
 _atom_site_symmetry_multiplicity
 _atom_site_fract_x
 _atom_site_fract_y
 _atom_site_fract_z
 _atom_site_occupancy
  O  O1  1  0.271602  0.158494  0.194801  1
  O  O2  1  0.771602  0.658528  0.194791  1
  O  O3  1  0.728473  0.158547  0.194789  1
  O  O4  1  0.228471  0.658499  0.194805  1
  O  O5  1  0.728448  0.158602  0.248908  1
  O  O6  1  0.228440  0.658546  0.248923  1
  O  O7  1  0.271567  0.158543  0.248922  1
  O  O8  1  0.771600  0.658625  0.248909  1
  O  O9  1  0.728466  0.841123  0.110777  1
  O  O10  1  0.228470  0.341077  0.110793  1
  O  O11  1  0.271604  0.841076  0.110793  1
  O  O12  1  0.771602  0.341104  0.110782  1
  O  O13  1  0.336340  0.949605  0.083731  1
  O  O14  1  0.836322  0.449653  0.083721  1
  O  O15  1  0.663711  0.949641  0.083718  1
  O  O16  1  0.163719  0.449618  0.083733  1
  O  O17  1  0.336329  0.050036  0.221863  1
  O  O18  1  0.836343  0.550052  0.221852  1
  O  O19  1  0.663717  0.050070  0.221849  1
  O  O20  1  0.163713  0.550014  0.221862  1
  O  O21  1  0.289872  0.899137  0.195337  1
  O  O22  1  0.789870  0.399166  0.195324  1
  O  O23  1  0.710217  0.899175  0.195325  1
  O  O24  1  0.210208  0.399138  0.195337  1
  O  O25  1  0.710195  0.899247  0.248377  1
  O  O26  1  0.210177  0.399175  0.248393  1
  O  O27  1  0.289830  0.899187  0.248389  1
  O  O28  1  0.789844  0.399241  0.248379  1
  O  O29  1  0.710202  0.100477  0.110246  1
  O  O30  1  0.210210  0.600455  0.110261  1
  O  O31  1  0.289861  0.100450  0.110259  1
  O  O32  1  0.789861  0.600484  0.110249  1
  O  O33  1  0.382502  0.060100  0.187109  1
  O  O34  1  0.882494  0.560132  0.187098  1
  O  O35  1  0.617588  0.060119  0.187094  1
  O  O36  1  0.117579  0.560088  0.187107  1
  O  O37  1  0.617552  0.060187  0.256603  1
  O  O38  1  0.117555  0.560146  0.256616  1
  O  O39  1  0.382459  0.060147  0.256616  1
  O  O40  1  0.882479  0.560178  0.256608  1
  O  O41  1  0.617571  0.939515  0.118473  1
  O  O42  1  0.117583  0.439490  0.118486  1
  O  O43  1  0.382490  0.939494  0.118485  1
  O  O44  1  0.882495  0.439525  0.118474  1
  O  O45  1  0.087238  0.499797  0.152795  1
  O  O46  1  0.587239  -0.000000  0.152784  1
  O  O47  1  0.912834  0.499811  0.152787  1
  O  O48  1  0.412834  0.000000  0.152796  1
  O  O49  1  0.000000  0.604571  0.173803  1
  O  O50  1  0.500042  0.104584  0.173801  1
  O  O51  1  -0.000000  0.604619  0.269913  1
  O  O52  1  0.500006  0.104642  0.269909  1
  O  O53  1  0.000000  0.395039  0.131779  1
  O  O54  1  0.500032  0.895034  0.131780  1
  O  O55  1  0.100187  0.743946  0.162035  1
  O  O56  1  0.600184  0.243985  0.162023  1
  O  O57  1  0.899900  0.743966  0.162022  1
  O  O58  1  0.399888  0.243947  0.162035  1
  O  O59  1  0.899877  0.744041  0.281680  1
  O  O60  1  0.399859  0.243992  0.281690  1
  O  O61  1  0.100155  0.743985  0.281693  1
  O  O62  1  0.600156  0.244037  0.281676  1
  O  O63  1  0.899890  0.255666  0.143547  1
  O  O64  1  0.399894  0.755645  0.143560  1
  O  O65  1  0.100175  0.255640  0.143560  1
  O  O66  1  0.600185  0.755677  0.143549  1
  O  O67  1  0.316405  0.712381  0.170153  1
  O  O68  1  0.816404  0.212406  0.170139  1
  O  O69  1  0.683676  0.712419  0.170140  1
  O  O70  1  0.183667  0.212394  0.170152  1
  O  O71  1  0.683663  0.712477  0.273558  1
  O  O72  1  0.183634  0.212408  0.273576  1
  O  O73  1  0.316369  0.712426  0.273573  1
  O  O74  1  0.816381  0.212473  0.273562  1
  O  O75  1  0.683673  0.287228  0.135431  1
  O  O76  1  0.183676  0.787221  0.135445  1
  O  O77  1  0.316398  0.287208  0.135443  1
  O  O78  1  0.816405  0.787251  0.135430  1
  O  O79  1  0.211352  0.836397  0.169388  1
  O  O80  1  0.711355  0.336415  0.169374  1
  O  O81  1  0.788734  0.836417  0.169374  1
  O  O82  1  0.288722  0.336399  0.169386  1
  O  O83  1  0.788714  0.836484  0.274324  1
  O  O84  1  0.288687  0.336415  0.274342  1
  O  O85  1  0.211315  0.836439  0.274341  1
  O  O86  1  0.711327  0.336476  0.274327  1
  O  O87  1  0.788724  0.163219  0.136194  1
  O  O88  1  0.288726  0.663220  0.136209  1
  O  O89  1  0.211344  0.163215  0.136207  1
  O  O90  1  0.711352  0.663250  0.136197  1
  O  O91  1  0.635378  0.499891  0.290911  1
  O  O92  1  0.135397  0.000000  0.152800  1
  O  O93  1  0.635405  0.499829  0.152784  1
  O  O94  1  0.864684  0.000000  0.152785  1
  O  O95  1  0.364676  0.499796  0.152798  1
  O  O96  1  0.271589  0.841118  0.332934  1
  O  O97  1  0.771566  0.341170  0.332921  1
  O  O98  1  0.728446  0.841171  0.332916  1
  O  O99  1  0.228447  0.341115  0.332936  1
  O  O100  1  0.271602  0.158494  0.471063  1
  O  O101  1  0.771602  0.658528  0.471053  1
  O  O102  1  0.728473  0.158547  0.471050  1
  O  O103  1  0.228471  0.658499  0.471066  1
  O  O104  1  0.728448  0.158602  0.525170  1
  O  O105  1  0.228440  0.658546  0.525184  1
  O  O106  1  0.271567  0.158543  0.525183  1
  O  O107  1  0.771600  0.658625  0.525170  1
  O  O108  1  0.728466  0.841123  0.387038  1
  O  O109  1  0.228470  0.341077  0.387054  1
  O  O110  1  0.271604  0.841076  0.387054  1
  O  O111  1  0.771602  0.341104  0.387043  1
  O  O112  1  0.336340  0.949605  0.359992  1
  O  O113  1  0.836322  0.449653  0.359982  1
  O  O114  1  0.663711  0.949641  0.359980  1
  O  O115  1  0.163719  0.449618  0.359995  1
  O  O116  1  0.336329  0.050036  0.498124  1
  O  O117  1  0.836343  0.550052  0.498113  1
  O  O118  1  0.663717  0.050070  0.498110  1
  O  O119  1  0.163713  0.550014  0.498124  1
  O  O120  1  0.289845  0.100474  0.333467  1
  O  O121  1  0.789835  0.600545  0.333455  1
  O  O122  1  0.710175  0.100541  0.333453  1
  O  O123  1  0.210191  0.600482  0.333467  1
  O  O124  1  0.289872  0.899137  0.471599  1
  O  O125  1  0.789870  0.399166  0.471585  1
  O  O126  1  0.710217  0.899175  0.471586  1
  O  O127  1  0.210208  0.399138  0.471599  1
  O  O128  1  0.710195  0.899247  0.524638  1
  O  O129  1  0.210177  0.399175  0.524654  1
  O  O130  1  0.289830  0.899187  0.524651  1
  O  O131  1  0.789844  0.399241  0.524641  1
  O  O132  1  0.710202  0.100477  0.386507  1
  O  O133  1  0.210210  0.600455  0.386523  1
  O  O134  1  0.289861  0.100450  0.386521  1
  O  O135  1  0.789861  0.600484  0.386510  1
  O  O136  1  0.382480  0.939531  0.325236  1
  O  O137  1  0.882459  0.439576  0.325230  1
  O  O138  1  0.617555  0.939569  0.325225  1
  O  O139  1  0.117553  0.439539  0.325241  1
  O  O140  1  0.382502  0.060100  0.463370  1
  O  O141  1  0.882494  0.560132  0.463359  1
  O  O142  1  0.617588  0.060119  0.463355  1
  O  O143  1  0.117579  0.560088  0.463369  1
  O  O144  1  0.617552  0.060187  0.532864  1
  O  O145  1  0.117555  0.560146  0.532878  1
  O  O146  1  0.382459  0.060147  0.532878  1
  O  O147  1  0.882479  0.560178  0.532870  1
  O  O148  1  0.617571  0.939515  0.394734  1
  O  O149  1  0.117583  0.439490  0.394748  1
  O  O150  1  0.382490  0.939494  0.394747  1
  O  O151  1  0.882495  0.439525  0.394736  1
  O  O152  1  0.087217  0.499832  0.290928  1
  O  O153  1  0.587214  0.000000  0.290915  1
  O  O154  1  0.912809  0.499890  0.290922  1
  O  O155  1  0.412811  0.000000  0.290924  1
  O  O156  1  0.087238  0.499797  0.429057  1
  O  O157  1  0.587239  -0.000000  0.429045  1
  O  O158  1  0.912834  0.499811  0.429049  1
  O  O159  1  0.412834  0.000000  0.429057  1
  O  O160  1  0.000000  0.395103  0.311937  1
  O  O161  1  0.500018  0.895069  0.311929  1
  O  O162  1  0.000000  0.604571  0.450064  1
  O  O163  1  0.500042  0.104584  0.450063  1
  O  O164  1  -0.000000  0.604619  0.546175  1
  O  O165  1  0.500006  0.104642  0.546170  1
  O  O166  1  0.000000  0.395039  0.408041  1
  O  O167  1  0.500032  0.895034  0.408041  1
  O  O168  1  0.100149  0.255686  0.300170  1
  O  O169  1  0.600167  0.755732  0.300148  1
  O  O170  1  0.899866  0.255738  0.300156  1
  O  O171  1  0.399865  0.755682  0.300162  1
  O  O172  1  0.100187  0.743946  0.438297  1
  O  O173  1  0.600184  0.243985  0.438285  1
  O  O174  1  0.899900  0.743966  0.438283  1
  O  O175  1  0.399888  0.243947  0.438296  1
  O  O176  1  0.899877  0.744041  0.557942  1
  O  O177  1  0.399859  0.243992  0.557952  1
  O  O178  1  0.100155  0.743985  0.557955  1
  O  O179  1  0.600156  0.244037  0.557937  1
  O  O180  1  0.899890  0.255666  0.419808  1
  O  O181  1  0.399894  0.755645  0.419822  1
  O  O182  1  0.100175  0.255640  0.419821  1
  O  O183  1  0.600185  0.755677  0.419811  1
  O  O184  1  0.316372  0.287238  0.308284  1
  O  O185  1  0.816383  0.787300  0.308270  1
  O  O186  1  0.683641  0.287302  0.308269  1
  O  O187  1  0.183647  0.787249  0.308285  1
  O  O188  1  0.316405  0.712381  0.446415  1
  O  O189  1  0.816404  0.212406  0.446400  1
  O  O190  1  0.683676  0.712419  0.446401  1
  O  O191  1  0.183667  0.212394  0.446414  1
  O  O192  1  0.683663  0.712477  0.549819  1
  O  O193  1  0.183634  0.212408  0.549838  1
  O  O194  1  0.316369  0.712426  0.549834  1
  O  O195  1  0.816381  0.212473  0.549823  1
  O  O196  1  0.683673  0.287228  0.411692  1
  O  O197  1  0.183676  0.787221  0.411706  1
  O  O198  1  0.316398  0.287208  0.411705  1
  O  O199  1  0.816405  0.787251  0.411691  1
  O  O200  1  0.211317  0.163226  0.307520  1
  O  O201  1  0.711333  0.663299  0.307503  1
  O  O202  1  0.788695  0.163308  0.307507  1
  O  O203  1  0.288698  0.663238  0.307516  1
  O  O204  1  0.211352  0.836397  0.445650  1
  O  O205  1  0.711355  0.336415  0.445636  1
  O  O206  1  0.788734  0.836417  0.445636  1
  O  O207  1  0.288722  0.336399  0.445648  1
  O  O208  1  0.788714  0.836484  0.550586  1
  O  O209  1  0.288687  0.336415  0.550603  1
  O  O210  1  0.211315  0.836439  0.550602  1
  O  O211  1  0.711327  0.336476  0.550588  1
  O  O212  1  0.788724  0.163219  0.412455  1
  O  O213  1  0.288726  0.663220  0.412470  1
  O  O214  1  0.211344  0.163215  0.412469  1
  O  O215  1  0.711352  0.663250  0.412459  1
  O  O216  1  0.135362  0.000000  0.290932  1
  O  O217  1  0.635378  0.499891  0.567172  1
  O  O218  1  0.864658  0.000000  0.290918  1
  O  O219  1  0.364641  0.499831  0.290927  1
  O  O220  1  0.135397  0.000000  0.429061  1
  O  O221  1  0.635405  0.499829  0.429046  1
  O  O222  1  0.864684  -0.000000  0.429047  1
  O  O223  1  0.364676  0.499796  0.429059  1
  O  O224  1  0.271589  0.841118  0.609196  1
  O  O225  1  0.771566  0.341170  0.609182  1
  O  O226  1  0.728446  0.841171  0.609178  1
  O  O227  1  0.228447  0.341115  0.609197  1
  O  O228  1  0.271602  0.158494  0.747324  1
  O  O229  1  0.771602  0.658528  0.747314  1
  O  O230  1  0.728473  0.158547  0.747311  1
  O  O231  1  0.228471  0.658499  0.747328  1
  O  O232  1  0.728466  0.841123  0.663300  1
  O  O233  1  0.228470  0.341077  0.663316  1
  O  O234  1  0.271604  0.841076  0.663316  1
  O  O235  1  0.771602  0.341104  0.663305  1
  O  O236  1  0.336340  0.949605  0.636253  1
  O  O237  1  0.836322  0.449653  0.636244  1
  O  O238  1  0.663711  0.949641  0.636241  1
  O  O239  1  0.163719  0.449618  0.636256  1
  O  O240  1  0.336329  0.050036  0.774386  1
  O  O241  1  0.836343  0.550052  0.774375  1
  O  O242  1  0.663717  0.050070  0.774372  1
  O  O243  1  0.163713  0.550014  0.774385  1
  O  O244  1  0.289845  0.100474  0.609729  1
  O  O245  1  0.789835  0.600545  0.609717  1
  O  O246  1  0.710175  0.100541  0.609715  1
  O  O247  1  0.210191  0.600482  0.609729  1
  O  O248  1  0.289872  0.899137  0.747860  1
  O  O249  1  0.789870  0.399166  0.747847  1
  O  O250  1  0.710217  0.899175  0.747848  1
  O  O251  1  0.210208  0.399138  0.747860  1
  O  O252  1  0.710202  0.100477  0.662769  1
  O  O253  1  0.210210  0.600455  0.662784  1
  O  O254  1  0.289861  0.100450  0.662782  1
  O  O255  1  0.789861  0.600484  0.662772  1
  O  O256  1  0.382480  0.939531  0.601498  1
  O  O257  1  0.882459  0.439576  0.601492  1
  O  O258  1  0.617555  0.939569  0.601487  1
  O  O259  1  0.117553  0.439539  0.601503  1
  O  O260  1  0.382502  0.060100  0.739632  1
  O  O261  1  0.882494  0.560132  0.739621  1
  O  O262  1  0.617588  0.060119  0.739617  1
  O  O263  1  0.117579  0.560088  0.739630  1
  O  O264  1  0.617571  0.939515  0.670996  1
  O  O265  1  0.117583  0.439490  0.671009  1
  O  O266  1  0.382490  0.939494  0.671008  1
  O  O267  1  0.882495  0.439525  0.670997  1
  O  O268  1  0.087217  0.499832  0.567190  1
  O  O269  1  0.587214  0.000000  0.567177  1
  O  O270  1  0.912809  0.499890  0.567183  1
  O  O271  1  0.412811  0.000000  0.567186  1
  O  O272  1  0.087238  0.499797  0.705318  1
  O  O273  1  0.587239  0.000000  0.705307  1
  O  O274  1  0.912834  0.499811  0.705310  1
  O  O275  1  0.412834  -0.000000  0.705319  1
  O  O276  1  0.000000  0.395103  0.588199  1
  O  O277  1  0.500018  0.895069  0.588190  1
  O  O278  1  0.000000  0.604571  0.726325  1
  O  O279  1  0.500042  0.104584  0.726324  1
  O  O280  1  -0.000000  0.395039  0.684302  1
  O  O281  1  0.500032  0.895034  0.684303  1
  O  O282  1  0.100149  0.255686  0.576431  1
  O  O283  1  0.600167  0.755732  0.576410  1
  O  O284  1  0.899866  0.255738  0.576417  1
  O  O285  1  0.399865  0.755682  0.576424  1
  O  O286  1  0.100187  0.743946  0.714558  1
  O  O287  1  0.600184  0.243985  0.714546  1
  O  O288  1  0.899900  0.743966  0.714545  1
  O  O289  1  0.399888  0.243947  0.714558  1
  O  O290  1  0.899890  0.255666  0.696070  1
  O  O291  1  0.399894  0.755645  0.696083  1
  O  O292  1  0.100175  0.255640  0.696083  1
  O  O293  1  0.600185  0.755677  0.696072  1
  O  O294  1  0.316372  0.287238  0.584545  1
  O  O295  1  0.816383  0.787300  0.584531  1
  O  O296  1  0.683641  0.287302  0.584530  1
  O  O297  1  0.183647  0.787249  0.584546  1
  O  O298  1  0.316405  0.712381  0.722676  1
  O  O299  1  0.816404  0.212406  0.722661  1
  O  O300  1  0.683676  0.712419  0.722663  1
  O  O301  1  0.183667  0.212394  0.722675  1
  O  O302  1  0.683673  0.287228  0.687954  1
  O  O303  1  0.183676  0.787221  0.687968  1
  O  O304  1  0.316398  0.287208  0.687966  1
  O  O305  1  0.816405  0.787251  0.687953  1
  O  O306  1  0.211317  0.163226  0.583781  1
  O  O307  1  0.711333  0.663299  0.583764  1
  O  O308  1  0.788695  0.163308  0.583768  1
  O  O309  1  0.288698  0.663238  0.583777  1
  O  O310  1  0.211352  0.836397  0.721911  1
  O  O311  1  0.711355  0.336415  0.721897  1
  O  O312  1  0.788734  0.836417  0.721897  1
  O  O313  1  0.288722  0.336399  0.721909  1
  O  O314  1  0.788724  0.163219  0.688717  1
  O  O315  1  0.288726  0.663220  0.688732  1
  O  O316  1  0.211344  0.163215  0.688730  1
  O  O317  1  0.711352  0.663250  0.688720  1
  O  O318  1  0.135362  -0.000000  0.567194  1
  O  O319  1  0.864658  0.000000  0.567179  1
  O  O320  1  0.364641  0.499831  0.567188  1
  O  O321  1  0.135397  -0.000000  0.705323  1
  O  O322  1  0.635405  0.499829  0.705307  1
  O  O323  1  0.864684  0.000000  0.705308  1
  O  O324  1  0.364676  0.499796  0.705321  1
  Si  Si325  1  0.321006  0.041940  0.200017  1
  Si  Si326  1  0.821003  0.541966  0.200007  1
  Si  Si327  1  0.679075  0.041970  0.200005  1
  Si  Si328  1  0.179067  0.541935  0.200018  1
  Si  Si329  1  0.679048  0.042032  0.243695  1
  Si  Si330  1  0.179046  0.541971  0.243708  1
  Si  Si331  1  0.320969  0.041981  0.243707  1
  Si  Si332  1  0.820992  0.542024  0.243697  1
  Si  Si333  1  0.679062  0.957685  0.105564  1
  Si  Si334  1  0.179073  0.457663  0.105578  1
  Si  Si335  1  0.321000  0.957659  0.105576  1
  Si  Si336  1  0.820998  0.457690  0.105567  1
  Si  Si337  1  0.074830  0.601839  0.169568  1
  Si  Si338  1  0.574830  0.101875  0.169557  1
  Si  Si339  1  0.925248  0.601861  0.169559  1
  Si  Si340  1  0.425247  0.101843  0.169568  1
  Si  Si341  1  0.925225  0.601923  0.274148  1
  Si  Si342  1  0.425218  0.101897  0.274153  1
  Si  Si343  1  0.074806  0.601882  0.274156  1
  Si  Si344  1  0.574801  0.101928  0.274142  1
  Si  Si345  1  0.925244  0.397776  0.136014  1
  Si  Si346  1  0.425244  0.897750  0.136024  1
  Si  Si347  1  0.074825  0.397746  0.136023  1
  Si  Si348  1  0.574826  0.897775  0.136014  1
  Si  Si349  1  0.262789  0.776030  0.183408  1
  Si  Si350  1  0.762790  0.276064  0.183393  1
  Si  Si351  1  0.737294  0.776068  0.183394  1
  Si  Si352  1  0.237286  0.276035  0.183406  1
  Si  Si353  1  0.737280  0.776139  0.260305  1
  Si  Si354  1  0.237250  0.276060  0.260322  1
  Si  Si355  1  0.262752  0.776083  0.260320  1
  Si  Si356  1  0.762765  0.276124  0.260307  1
  Si  Si357  1  0.737287  0.223576  0.122176  1
  Si  Si358  1  0.237290  0.723564  0.122190  1
  Si  Si359  1  0.262782  0.223557  0.122189  1
  Si  Si360  1  0.762786  0.723606  0.122176  1
  Si  Si361  1  0.154490  0.843750  0.154623  1
  Si  Si362  1  0.654489  0.343776  0.154608  1
  Si  Si363  1  0.845596  0.843766  0.154608  1
  Si  Si364  1  0.345585  0.343746  0.154621  1
  Si  Si365  1  0.845573  0.843844  0.289093  1
  Si  Si366  1  0.345553  0.343778  0.289106  1
  Si  Si367  1  0.154457  0.843784  0.289108  1
  Si  Si368  1  0.654459  0.343834  0.289090  1
  Si  Si369  1  0.845589  0.155865  0.150961  1
  Si  Si370  1  0.345590  0.655850  0.150976  1
  Si  Si371  1  0.154481  0.155851  0.150975  1
  Si  Si372  1  0.654490  0.655882  0.150963  1
  Si  Si373  1  0.320992  0.957683  0.338147  1
  Si  Si374  1  0.820966  0.457743  0.338138  1
  Si  Si375  1  0.679045  0.957738  0.338135  1
  Si  Si376  1  0.179050  0.457690  0.338149  1
  Si  Si377  1  0.321006  0.041940  0.476278  1
  Si  Si378  1  0.821003  0.541966  0.476268  1
  Si  Si379  1  0.679075  0.041970  0.476266  1
  Si  Si380  1  0.179067  0.541935  0.476279  1
  Si  Si381  1  0.679048  0.042032  0.519956  1
  Si  Si382  1  0.179046  0.541971  0.519970  1
  Si  Si383  1  0.320969  0.041981  0.519969  1
  Si  Si384  1  0.820992  0.542024  0.519958  1
  Si  Si385  1  0.679062  0.957685  0.381825  1
  Si  Si386  1  0.179073  0.457663  0.381839  1
  Si  Si387  1  0.321000  0.957659  0.381838  1
  Si  Si388  1  0.820998  0.457690  0.381828  1
  Si  Si389  1  0.074801  0.397802  0.307702  1
  Si  Si390  1  0.574807  0.897825  0.307686  1
  Si  Si391  1  0.925219  0.397837  0.307693  1
  Si  Si392  1  0.425224  0.897787  0.307695  1
  Si  Si393  1  0.074830  0.601839  0.445829  1
  Si  Si394  1  0.574830  0.101875  0.445818  1
  Si  Si395  1  0.925248  0.601861  0.445821  1
  Si  Si396  1  0.425247  0.101843  0.445830  1
  Si  Si397  1  0.925225  0.601923  0.550410  1
  Si  Si398  1  0.425218  0.101897  0.550415  1
  Si  Si399  1  0.074806  0.601882  0.550418  1
  Si  Si400  1  0.574801  0.101928  0.550404  1
  Si  Si401  1  0.925244  0.397776  0.412275  1
  Si  Si402  1  0.425244  0.897750  0.412285  1
  Si  Si403  1  0.074825  0.397746  0.412285  1
  Si  Si404  1  0.574826  0.897775  0.412275  1
  Si  Si405  1  0.262759  0.223580  0.321539  1
  Si  Si406  1  0.762763  0.723647  0.321523  1
  Si  Si407  1  0.737255  0.223650  0.321524  1
  Si  Si408  1  0.237267  0.723594  0.321538  1
  Si  Si409  1  0.262789  0.776030  0.459669  1
  Si  Si410  1  0.762790  0.276064  0.459654  1
  Si  Si411  1  0.737294  0.776068  0.459656  1
  Si  Si412  1  0.237286  0.276035  0.459668  1
  Si  Si413  1  0.737280  0.776139  0.536566  1
  Si  Si414  1  0.237250  0.276060  0.536583  1
  Si  Si415  1  0.262752  0.776083  0.536581  1
  Si  Si416  1  0.762765  0.276124  0.536568  1
  Si  Si417  1  0.737287  0.223576  0.398437  1
  Si  Si418  1  0.237290  0.723564  0.398452  1
  Si  Si419  1  0.262782  0.223557  0.398451  1
  Si  Si420  1  0.762786  0.723606  0.398438  1
  Si  Si421  1  0.154450  0.155883  0.292755  1
  Si  Si422  1  0.654472  0.655939  0.292734  1
  Si  Si423  1  0.845563  0.155945  0.292740  1
  Si  Si424  1  0.345558  0.655884  0.292749  1
  Si  Si425  1  0.154490  0.843750  0.430884  1
  Si  Si426  1  0.654489  0.343776  0.430869  1
  Si  Si427  1  0.845596  0.843766  0.430870  1
  Si  Si428  1  0.345585  0.343746  0.430882  1
  Si  Si429  1  0.845573  0.843844  0.565355  1
  Si  Si430  1  0.345553  0.343778  0.565367  1
  Si  Si431  1  0.154457  0.843784  0.565369  1
  Si  Si432  1  0.654459  0.343834  0.565352  1
  Si  Si433  1  0.845589  0.155865  0.427222  1
  Si  Si434  1  0.345590  0.655850  0.427237  1
  Si  Si435  1  0.154481  0.155851  0.427237  1
  Si  Si436  1  0.654490  0.655882  0.427224  1
  Si  Si437  1  0.320992  0.957683  0.614409  1
  Si  Si438  1  0.820966  0.457743  0.614400  1
  Si  Si439  1  0.679045  0.957738  0.614396  1
  Si  Si440  1  0.179050  0.457690  0.614411  1
  Si  Si441  1  0.321006  0.041940  0.752540  1
  Si  Si442  1  0.821003  0.541966  0.752529  1
  Si  Si443  1  0.679075  0.041970  0.752528  1
  Si  Si444  1  0.179067  0.541935  0.752541  1
  Si  Si445  1  0.679062  0.957685  0.658086  1
  Si  Si446  1  0.179073  0.457663  0.658101  1
  Si  Si447  1  0.321000  0.957659  0.658099  1
  Si  Si448  1  0.820998  0.457690  0.658090  1
  Si  Si449  1  0.074801  0.397802  0.583964  1
  Si  Si450  1  0.574807  0.897825  0.583947  1
  Si  Si451  1  0.925219  0.397837  0.583955  1
  Si  Si452  1  0.425224  0.897787  0.583957  1
  Si  Si453  1  0.074830  0.601839  0.722091  1
  Si  Si454  1  0.574830  0.101875  0.722080  1
  Si  Si455  1  0.925248  0.601861  0.722082  1
  Si  Si456  1  0.425247  0.101843  0.722091  1
  Si  Si457  1  0.925244  0.397776  0.688537  1
  Si  Si458  1  0.425244  0.897750  0.688546  1
  Si  Si459  1  0.074825  0.397746  0.688546  1
  Si  Si460  1  0.574826  0.897775  0.688537  1
  Si  Si461  1  0.262759  0.223580  0.597800  1
  Si  Si462  1  0.762763  0.723647  0.597784  1
  Si  Si463  1  0.737255  0.223650  0.597785  1
  Si  Si464  1  0.237267  0.723594  0.597799  1
  Si  Si465  1  0.262789  0.776030  0.735931  1
  Si  Si466  1  0.762790  0.276064  0.735916  1
  Si  Si467  1  0.737294  0.776068  0.735917  1
  Si  Si468  1  0.237286  0.276035  0.735929  1
  Si  Si469  1  0.737287  0.223576  0.674699  1
  Si  Si470  1  0.237290  0.723564  0.674713  1
  Si  Si471  1  0.262782  0.223557  0.674712  1
  Si  Si472  1  0.762786  0.723606  0.674699  1
  Si  Si473  1  0.154450  0.155883  0.569016  1
  Si  Si474  1  0.654472  0.655939  0.568996  1
  Si  Si475  1  0.845563  0.155945  0.569002  1
  Si  Si476  1  0.345558  0.655884  0.569011  1
  Si  Si477  1  0.154490  0.843750  0.707145  1
  Si  Si478  1  0.654489  0.343776  0.707131  1
  Si  Si479  1  0.845596  0.843766  0.707131  1
  Si  Si480  1  0.345585  0.343746  0.707144  1
  Si  Si481  1  0.845589  0.155865  0.703484  1
  Si  Si482  1  0.345590  0.655850  0.703499  1
  Si  Si483  1  0.154481  0.155851  0.703498  1
  Si  Si484  1  0.654490  0.655882  0.703486  1
  H  H485  1  0.336340  0.949605  0.070960  1
  H  H486  1  0.836322  0.449653  0.070950  1
  H  H487  1  0.663711  0.949641  0.070948  1
  H  H488  1  0.163719  0.449618  0.070963  1
  H  H489  1  0.336329  0.050036  0.787156  1
  H  H490  1  0.836343  0.550052  0.787145  1
  H  H491  1  0.663717  0.050070  0.787142  1
  H  H492  1  0.163713  0.550014  0.787156  1
