# generated using pymatgen
data_Si22H2O45
_symmetry_space_group_name_H-M   'P 1'
_cell_length_a   11.39954126
_cell_length_b   25.27156065
_cell_length_c   57.72977026
_cell_angle_alpha   90.00000000
_cell_angle_beta   90.00000000
_cell_angle_gamma   90.00000000
_symmetry_Int_Tables_number   1
_chemical_formula_structural   Si22H2O45
_chemical_formula_sum   'Si176 H16 O360'
_cell_volume   16631.034585
_cell_formula_units_Z   8
loop_
 _symmetry_equiv_pos_site_id
 _symmetry_equiv_pos_as_xyz
  1  'x, y, z'
loop_
 _atom_site_type_symbol
 _atom_site_label
 _atom_site_symmetry_multiplicity
 _atom_site_fract_x
 _atom_site_fract_y
 _atom_site_fract_z
 _atom_site_occupancy
  O  O1  1  0.692572  0.800467  0.372973  1
  O  O2  1  0.307339  0.699481  0.372975  1
  O  O3  1  0.692561  0.699471  0.372973  1
  O  O4  1  0.307337  0.800478  0.372973  1
  O  O5  1  0.887944  0.836003  0.384623  1
  O  O6  1  0.111947  0.835998  0.384622  1
  O  O7  1  0.717458  0.899576  0.372967  1
  O  O8  1  0.282406  0.899584  0.372970  1
  O  O9  1  0.826249  0.838588  0.342361  1
  O  O10  1  0.173652  0.838591  0.342361  1
  O  O11  1  0.792129  0.898827  0.263727  1
  O  O12  1  0.207780  0.898829  0.263727  1
  O  O13  1  0.811307  0.800792  0.256906  1
  O  O14  1  0.188594  0.699167  0.256911  1
  O  O15  1  0.811302  0.699166  0.256906  1
  O  O16  1  0.188596  0.800793  0.256906  1
  O  O17  1  0.615368  0.834374  0.269305  1
  O  O18  1  0.384539  0.834376  0.269304  1
  O  O19  1  0.793426  0.832032  0.297890  1
  O  O20  1  0.206476  0.667907  0.297892  1
  O  O21  1  0.793440  0.667910  0.297888  1
  O  O22  1  0.206482  0.832033  0.297890  1
  O  O23  1  0.845512  0.749971  0.321458  1
  O  O24  1  0.154398  0.749973  0.321458  1
  O  O25  1  0.000000  0.819080  0.315575  1
  O  O26  1  0.000000  0.680863  0.315577  1
  O  O27  1  0.499933  0.928336  0.382463  1
  O  O28  1  0.657929  0.000000  0.382133  1
  O  O29  1  0.845567  0.929778  0.222337  1
  O  O30  1  0.000000  0.930209  0.253069  1
  O  O31  1  0.499953  0.749977  0.379454  1
  O  O32  1  0.656942  0.749969  0.410323  1
  O  O33  1  0.342964  0.749983  0.410323  1
  O  O34  1  0.000000  0.749978  0.250174  1
  O  O35  1  0.499960  0.819674  0.231660  1
  O  O36  1  0.499944  0.680266  0.231661  1
  O  O37  1  0.000000  0.749975  0.391306  1
  O  O38  1  0.499947  0.749973  0.262495  1
  O  O39  1  0.154343  0.929781  0.222338  1
  O  O40  1  0.341948  0.000000  0.382136  1
  O  O41  1  0.611942  0.336006  0.251049  1
  O  O42  1  0.111958  0.663952  0.384624  1
  O  O43  1  0.887953  0.663947  0.384619  1
  O  O44  1  0.387939  0.336003  0.251048  1
  O  O45  1  0.782420  0.399585  0.262700  1
  O  O46  1  0.282436  0.600373  0.372971  1
  O  O47  1  0.717482  0.600364  0.372969  1
  O  O48  1  0.217473  0.399587  0.262702  1
  O  O49  1  0.673665  0.338592  0.293309  1
  O  O50  1  0.173663  0.661359  0.342364  1
  O  O51  1  0.826235  0.661354  0.342359  1
  O  O52  1  0.326244  0.338594  0.293309  1
  O  O53  1  0.707769  0.398819  0.371947  1
  O  O54  1  0.207767  0.601129  0.263721  1
  O  O55  1  0.792120  0.601129  0.263718  1
  O  O56  1  0.292116  0.398827  0.371948  1
  O  O57  1  0.884534  0.334373  0.366367  1
  O  O58  1  0.384532  0.665573  0.269306  1
  O  O59  1  0.615367  0.665576  0.269305  1
  O  O60  1  0.115365  0.334372  0.366365  1
  O  O61  1  -0.000000  0.428342  0.253207  1
  O  O62  1  0.499960  0.571610  0.382464  1
  O  O63  1  0.154332  0.570172  0.222330  1
  O  O64  1  0.841954  0.499500  0.253534  1
  O  O65  1  0.341962  0.500455  0.382134  1
  O  O66  1  0.657943  0.500449  0.382133  1
  O  O67  1  0.157934  0.499502  0.253535  1
  O  O68  1  0.499946  0.430202  0.382606  1
  O  O69  1  0.000000  0.569751  0.253059  1
  O  O70  1  0.845557  0.570169  0.222328  1
  O  O71  1  0.654336  0.429773  0.413336  1
  O  O72  1  0.345561  0.429778  0.413337  1
  O  O73  1  0.807330  0.300478  0.262694  1
  O  O74  1  0.192563  0.199484  0.262700  1
  O  O75  1  0.807331  0.199481  0.262700  1
  O  O76  1  0.192554  0.300481  0.262698  1
  O  O77  1  0.387944  0.163955  0.251050  1
  O  O78  1  0.611949  0.163951  0.251052  1
  O  O79  1  0.217472  0.100376  0.262702  1
  O  O80  1  0.782428  0.100373  0.262702  1
  O  O81  1  0.326244  0.161363  0.293310  1
  O  O82  1  0.673659  0.161358  0.293311  1
  O  O83  1  0.292124  0.101127  0.371950  1
  O  O84  1  0.707767  0.101121  0.371948  1
  O  O85  1  0.688597  0.300783  0.378764  1
  O  O86  1  0.311297  0.199165  0.378764  1
  O  O87  1  0.688591  0.199157  0.378765  1
  O  O88  1  0.311309  0.300791  0.378762  1
  O  O89  1  0.115364  0.165574  0.366365  1
  O  O90  1  0.884531  0.165569  0.366368  1
  O  O91  1  0.706475  0.332033  0.337781  1
  O  O92  1  0.293431  0.167914  0.337782  1
  O  O93  1  0.706472  0.167915  0.337783  1
  O  O94  1  0.293429  0.332042  0.337780  1
  O  O95  1  0.654393  0.249976  0.314212  1
  O  O96  1  0.345506  0.249978  0.314214  1
  O  O97  1  0.499953  0.319086  0.320094  1
  O  O98  1  0.499950  0.180870  0.320096  1
  O  O99  1  -0.000000  0.071616  0.253208  1
  O  O100  1  0.841962  0.000000  0.253540  1
  O  O101  1  0.345564  0.070170  0.413341  1
  O  O102  1  0.499945  0.069744  0.382609  1
  O  O103  1  -0.000000  0.249978  0.256216  1
  O  O104  1  0.842959  0.249966  0.225347  1
  O  O105  1  0.156938  0.249977  0.225349  1
  O  O106  1  0.499948  0.249973  0.385497  1
  O  O107  1  0.000000  0.319674  0.404010  1
  O  O108  1  0.000000  0.180267  0.404011  1
  O  O109  1  0.499951  0.249978  0.244366  1
  O  O110  1  0.000000  0.249972  0.373176  1
  O  O111  1  0.157945  0.000000  0.253540  1
  O  O112  1  0.654340  0.070163  0.413338  1
  O  O113  1  0.192566  0.800470  0.181869  1
  O  O114  1  0.807337  0.699471  0.181865  1
  O  O115  1  0.192577  0.699472  0.181865  1
  O  O116  1  0.807348  0.800467  0.181863  1
  O  O117  1  0.387957  0.835995  0.193515  1
  O  O118  1  0.611962  0.835990  0.193514  1
  O  O119  1  0.217480  0.899577  0.181867  1
  O  O120  1  0.782433  0.899575  0.181865  1
  O  O121  1  0.326233  0.838590  0.151256  1
  O  O122  1  0.673667  0.838591  0.151254  1
  O  O123  1  0.293422  0.832037  0.106785  1
  O  O124  1  0.706473  0.667910  0.106783  1
  O  O125  1  0.293418  0.667917  0.106781  1
  O  O126  1  0.706462  0.832036  0.106782  1
  O  O127  1  0.345504  0.749975  0.130352  1
  O  O128  1  0.654389  0.749975  0.130350  1
  O  O129  1  0.499945  0.819085  0.124471  1
  O  O130  1  0.499945  0.680868  0.124466  1
  O  O131  1  0.000000  0.928333  0.191360  1
  O  O132  1  0.157943  0.000000  0.191029  1
  O  O133  1  0.841963  0.000000  0.191029  1
  O  O134  1  0.000000  0.749965  0.188347  1
  O  O135  1  0.156943  0.749966  0.219217  1
  O  O136  1  0.842966  0.749975  0.219214  1
  O  O137  1  0.499950  0.749967  0.200198  1
  O  O138  1  0.611957  0.663943  0.193516  1
  O  O139  1  0.387954  0.663939  0.193513  1
  O  O140  1  0.782421  0.600363  0.181857  1
  O  O141  1  0.217473  0.600364  0.181858  1
  O  O142  1  0.173654  0.338590  0.102202  1
  O  O143  1  0.673642  0.661360  0.151254  1
  O  O144  1  0.326247  0.661355  0.151252  1
  O  O145  1  0.826244  0.338583  0.102201  1
  O  O146  1  0.207781  0.398820  0.180841  1
  O  O147  1  0.792129  0.398815  0.180839  1
  O  O148  1  0.384536  0.334368  0.175258  1
  O  O149  1  0.615368  0.334368  0.175259  1
  O  O150  1  0.000000  0.571606  0.191351  1
  O  O151  1  0.841957  0.500446  0.191023  1
  O  O152  1  0.157940  0.500449  0.191024  1
  O  O153  1  0.000000  0.430199  0.191498  1
  O  O154  1  0.845562  0.429778  0.222228  1
  O  O155  1  0.154335  0.429780  0.222230  1
  O  O156  1  0.826257  0.161352  0.102200  1
  O  O157  1  0.173668  0.161356  0.102203  1
  O  O158  1  0.792126  0.101116  0.180839  1
  O  O159  1  0.207773  0.101121  0.180840  1
  O  O160  1  0.188595  0.300784  0.187655  1
  O  O161  1  0.811314  0.199152  0.187654  1
  O  O162  1  0.188607  0.199158  0.187658  1
  O  O163  1  0.811308  0.300778  0.187655  1
  O  O164  1  0.615370  0.165569  0.175259  1
  O  O165  1  0.384541  0.165567  0.175261  1
  O  O166  1  0.206471  0.332035  0.146674  1
  O  O167  1  0.793429  0.167903  0.146672  1
  O  O168  1  0.206484  0.167914  0.146675  1
  O  O169  1  0.793424  0.332028  0.146673  1
  O  O170  1  0.154396  0.249973  0.123106  1
  O  O171  1  0.845511  0.249966  0.123105  1
  O  O172  1  0.000000  0.319078  0.128987  1
  O  O173  1  -0.000000  0.180861  0.128988  1
  O  O174  1  0.000000  0.069741  0.191500  1
  O  O175  1  -0.000000  0.249967  0.194389  1
  O  O176  1  0.499948  0.319677  0.212903  1
  O  O177  1  0.499962  0.180269  0.212905  1
  O  O178  1  0.499952  0.249969  0.182069  1
  O  O179  1  0.154340  0.070172  0.222231  1
  O  O180  1  0.845560  0.070169  0.222230  1
  O  O181  1  0.826249  0.838588  0.724577  1
  O  O182  1  0.173652  0.838591  0.724577  1
  O  O183  1  0.792129  0.898827  0.645942  1
  O  O184  1  0.207780  0.898829  0.645942  1
  O  O185  1  0.811307  0.800792  0.639121  1
  O  O186  1  0.188594  0.699167  0.639127  1
  O  O187  1  0.811302  0.699166  0.639122  1
  O  O188  1  0.188596  0.800793  0.639121  1
  O  O189  1  0.615368  0.834374  0.651520  1
  O  O190  1  0.384539  0.834376  0.651519  1
  O  O191  1  0.793426  0.832032  0.680105  1
  O  O192  1  0.206476  0.667907  0.680107  1
  O  O193  1  0.793440  0.667910  0.680103  1
  O  O194  1  0.206482  0.832033  0.680105  1
  O  O195  1  0.845512  0.749971  0.703673  1
  O  O196  1  0.154398  0.749973  0.703674  1
  O  O197  1  -0.000000  0.819080  0.697790  1
  O  O198  1  0.000000  0.680863  0.697792  1
  O  O199  1  0.845567  0.929778  0.604553  1
  O  O200  1  0.000000  0.930209  0.635284  1
  O  O201  1  -0.000000  0.749978  0.632389  1
  O  O202  1  0.499960  0.819674  0.613875  1
  O  O203  1  0.499944  0.680266  0.613876  1
  O  O204  1  0.499947  0.749973  0.644710  1
  O  O205  1  0.154343  0.929781  0.604553  1
  O  O206  1  0.611942  0.336006  0.633264  1
  O  O207  1  0.387939  0.336003  0.633263  1
  O  O208  1  0.782420  0.399585  0.644916  1
  O  O209  1  0.217473  0.399587  0.644917  1
  O  O210  1  0.673665  0.338592  0.675524  1
  O  O211  1  0.173663  0.661359  0.724579  1
  O  O212  1  0.826235  0.661354  0.724575  1
  O  O213  1  0.326244  0.338594  0.675524  1
  O  O214  1  0.207767  0.601129  0.645936  1
  O  O215  1  0.792120  0.601129  0.645933  1
  O  O216  1  0.384532  0.665573  0.651521  1
  O  O217  1  0.615367  0.665576  0.651520  1
  O  O218  1  0.000000  0.428342  0.635423  1
  O  O219  1  0.154332  0.570172  0.604545  1
  O  O220  1  0.841954  0.499500  0.635749  1
  O  O221  1  0.157934  0.499502  0.635750  1
  O  O222  1  -0.000000  0.569751  0.635275  1
  O  O223  1  0.845557  0.570169  0.604543  1
  O  O224  1  0.807330  0.300478  0.644909  1
  O  O225  1  0.192563  0.199484  0.644915  1
  O  O226  1  0.807331  0.199481  0.644915  1
  O  O227  1  0.192554  0.300481  0.644913  1
  O  O228  1  0.387944  0.163955  0.633265  1
  O  O229  1  0.611949  0.163951  0.633267  1
  O  O230  1  0.217472  0.100376  0.644917  1
  O  O231  1  0.782428  0.100373  0.644917  1
  O  O232  1  0.326244  0.161363  0.675525  1
  O  O233  1  0.673659  0.161358  0.675526  1
  O  O234  1  0.706475  0.332033  0.719996  1
  O  O235  1  0.293431  0.167914  0.719997  1
  O  O236  1  0.706472  0.167915  0.719998  1
  O  O237  1  0.293429  0.332042  0.719995  1
  O  O238  1  0.654393  0.249976  0.696428  1
  O  O239  1  0.345506  0.249978  0.696429  1
  O  O240  1  0.499953  0.319086  0.702309  1
  O  O241  1  0.499950  0.180870  0.702311  1
  O  O242  1  -0.000000  0.071616  0.635423  1
  O  O243  1  0.841962  0.000000  0.635755  1
  O  O244  1  -0.000000  0.249978  0.638431  1
  O  O245  1  0.842959  0.249966  0.607562  1
  O  O246  1  0.156938  0.249977  0.607564  1
  O  O247  1  0.499951  0.249978  0.626581  1
  O  O248  1  0.157945  0.000000  0.635755  1
  O  O249  1  0.192566  0.800470  0.564084  1
  O  O250  1  0.807337  0.699471  0.564080  1
  O  O251  1  0.192577  0.699472  0.564080  1
  O  O252  1  0.807348  0.800467  0.564079  1
  O  O253  1  0.387957  0.835995  0.575730  1
  O  O254  1  0.611962  0.835990  0.575729  1
  O  O255  1  0.217480  0.899577  0.564082  1
  O  O256  1  0.782433  0.899575  0.564081  1
  O  O257  1  0.326233  0.838590  0.533471  1
  O  O258  1  0.673667  0.838591  0.533469  1
  O  O259  1  0.292123  0.898821  0.454832  1
  O  O260  1  0.707777  0.898815  0.454828  1
  O  O261  1  0.311312  0.800785  0.448018  1
  O  O262  1  0.688595  0.699152  0.448014  1
  O  O263  1  0.311299  0.699159  0.448013  1
  O  O264  1  0.688597  0.800778  0.448016  1
  O  O265  1  0.115366  0.834371  0.460413  1
  O  O266  1  0.884533  0.834366  0.460414  1
  O  O267  1  0.293422  0.832037  0.489000  1
  O  O268  1  0.706473  0.667910  0.488998  1
  O  O269  1  0.293418  0.667917  0.488996  1
  O  O270  1  0.706462  0.832036  0.488997  1
  O  O271  1  0.345504  0.749975  0.512567  1
  O  O272  1  0.654389  0.749975  0.512565  1
  O  O273  1  0.499945  0.819085  0.506686  1
  O  O274  1  0.499945  0.680868  0.506681  1
  O  O275  1  0.000000  0.928333  0.573575  1
  O  O276  1  0.157943  0.000000  0.573244  1
  O  O277  1  0.841963  0.000000  0.573244  1
  O  O278  1  0.499949  0.930197  0.444172  1
  O  O279  1  -0.000000  0.749965  0.570562  1
  O  O280  1  0.156943  0.749966  0.601432  1
  O  O281  1  0.842966  0.749975  0.601429  1
  O  O282  1  0.499952  0.749967  0.441281  1
  O  O283  1  0.000000  0.819676  0.422768  1
  O  O284  1  0.000000  0.680268  0.422767  1
  O  O285  1  0.499950  0.749967  0.582414  1
  O  O286  1  0.000000  0.749969  0.453602  1
  O  O287  1  0.654328  0.929772  0.413439  1
  O  O288  1  0.345553  0.929778  0.413442  1
  O  O289  1  0.111950  0.335998  0.442157  1
  O  O290  1  0.611957  0.663943  0.575731  1
  O  O291  1  0.387954  0.663939  0.575729  1
  O  O292  1  0.887945  0.335990  0.442156  1
  O  O293  1  0.282426  0.399579  0.453809  1
  O  O294  1  0.782421  0.600363  0.564072  1
  O  O295  1  0.217473  0.600364  0.564073  1
  O  O296  1  0.717475  0.399572  0.453808  1
  O  O297  1  0.173654  0.338590  0.484417  1
  O  O298  1  0.673642  0.661360  0.533469  1
  O  O299  1  0.326247  0.661355  0.533467  1
  O  O300  1  0.826244  0.338583  0.484417  1
  O  O301  1  0.207781  0.398820  0.563056  1
  O  O302  1  0.707787  0.601117  0.454832  1
  O  O303  1  0.292143  0.601122  0.454832  1
  O  O304  1  0.792129  0.398815  0.563054  1
  O  O305  1  0.384536  0.334368  0.557473  1
  O  O306  1  0.884536  0.665571  0.460414  1
  O  O307  1  0.115366  0.665565  0.460409  1
  O  O308  1  0.615368  0.334368  0.557474  1
  O  O309  1  0.499953  0.428332  0.444315  1
  O  O310  1  0.000000  0.571606  0.573566  1
  O  O311  1  0.341968  0.499493  0.444645  1
  O  O312  1  0.841957  0.500446  0.573238  1
  O  O313  1  0.157940  0.500449  0.573240  1
  O  O314  1  0.657950  0.499488  0.444644  1
  O  O315  1  0.000000  0.430199  0.573714  1
  O  O316  1  0.499966  0.569739  0.444172  1
  O  O317  1  0.654353  0.570164  0.413441  1
  O  O318  1  0.345575  0.570169  0.413442  1
  O  O319  1  0.845562  0.429778  0.604444  1
  O  O320  1  0.154335  0.429780  0.604445  1
  O  O321  1  0.307333  0.300471  0.453807  1
  O  O322  1  0.692559  0.199467  0.453806  1
  O  O323  1  0.307329  0.199475  0.453804  1
  O  O324  1  0.692562  0.300464  0.453807  1
  O  O325  1  0.887945  0.163947  0.442155  1
  O  O326  1  0.111950  0.163940  0.442159  1
  O  O327  1  0.717488  0.100360  0.453808  1
  O  O328  1  0.282437  0.100366  0.453812  1
  O  O329  1  0.826257  0.161352  0.484415  1
  O  O330  1  0.173668  0.161356  0.484419  1
  O  O331  1  0.792126  0.101116  0.563054  1
  O  O332  1  0.207773  0.101121  0.563055  1
  O  O333  1  0.188595  0.300784  0.569870  1
  O  O334  1  0.811314  0.199152  0.569869  1
  O  O335  1  0.188607  0.199158  0.569873  1
  O  O336  1  0.811308  0.300778  0.569870  1
  O  O337  1  0.615370  0.165569  0.557474  1
  O  O338  1  0.384541  0.165567  0.557476  1
  O  O339  1  0.206471  0.332035  0.528889  1
  O  O340  1  0.793429  0.167903  0.528887  1
  O  O341  1  0.206484  0.167914  0.528890  1
  O  O342  1  0.793424  0.332028  0.528888  1
  O  O343  1  0.154396  0.249973  0.505321  1
  O  O344  1  0.845511  0.249966  0.505320  1
  O  O345  1  0.000000  0.319078  0.511203  1
  O  O346  1  0.000000  0.180861  0.511203  1
  O  O347  1  0.499960  0.071606  0.444317  1
  O  O348  1  0.657945  0.000000  0.444644  1
  O  O349  1  0.341964  0.000000  0.444647  1
  O  O350  1  -0.000000  0.069741  0.573715  1
  O  O351  1  0.499944  0.249969  0.447325  1
  O  O352  1  0.342957  0.249979  0.416455  1
  O  O353  1  0.656934  0.249970  0.416456  1
  O  O354  1  -0.000000  0.249967  0.576605  1
  O  O355  1  0.499948  0.319677  0.595118  1
  O  O356  1  0.499962  0.180269  0.595120  1
  O  O357  1  -0.000000  0.249969  0.435472  1
  O  O358  1  0.499952  0.249969  0.564284  1
  O  O359  1  0.154340  0.070172  0.604446  1
  O  O360  1  0.845560  0.070169  0.604446  1
  Si  Si361  1  0.499947  0.688803  0.258513  1
  Si  Si362  1  0.499953  0.811144  0.258512  1
  Si  Si363  1  0.782160  0.845800  0.367843  1
  Si  Si364  1  0.217729  0.845804  0.367844  1
  Si  Si365  1  0.750753  0.843023  0.272586  1
  Si  Si366  1  0.249153  0.843024  0.272586  1
  Si  Si367  1  0.864505  0.811169  0.319209  1
  Si  Si368  1  0.135403  0.688775  0.319211  1
  Si  Si369  1  0.864506  0.688774  0.319208  1
  Si  Si370  1  0.135402  0.811170  0.319209  1
  Si  Si371  1  0.635223  0.938661  0.386688  1
  Si  Si372  1  0.364648  0.938667  0.386691  1
  Si  Si373  1  0.864798  0.939639  0.249012  1
  Si  Si374  1  0.135111  0.939641  0.249012  1
  Si  Si375  1  0.635315  0.749971  0.383550  1
  Si  Si376  1  0.364592  0.749980  0.383550  1
  Si  Si377  1  0.864646  0.749978  0.245954  1
  Si  Si378  1  0.135258  0.749977  0.245956  1
  Si  Si379  1  0.000000  0.811241  0.395938  1
  Si  Si380  1  0.000000  0.688708  0.395936  1
  Si  Si381  1  0.364790  0.439637  0.386662  1
  Si  Si382  1  0.864787  0.560317  0.249003  1
  Si  Si383  1  0.135100  0.560319  0.249005  1
  Si  Si384  1  0.635103  0.439631  0.386662  1
  Si  Si385  1  0.717735  0.345806  0.267826  1
  Si  Si386  1  0.217745  0.654150  0.367846  1
  Si  Si387  1  0.782162  0.654143  0.367842  1
  Si  Si388  1  0.282158  0.345808  0.267827  1
  Si  Si389  1  0.749147  0.343018  0.363085  1
  Si  Si390  1  0.249145  0.656927  0.272586  1
  Si  Si391  1  0.750755  0.656929  0.272583  1
  Si  Si392  1  0.250750  0.343024  0.363085  1
  Si  Si393  1  0.864659  0.438669  0.248979  1
  Si  Si394  1  0.364672  0.561285  0.386691  1
  Si  Si395  1  0.635246  0.561280  0.386690  1
  Si  Si396  1  0.135233  0.438670  0.248980  1
  Si  Si397  1  0.000000  0.188801  0.377158  1
  Si  Si398  1  0.000000  0.311142  0.377158  1
  Si  Si399  1  0.282159  0.154154  0.267828  1
  Si  Si400  1  0.717738  0.154150  0.267829  1
  Si  Si401  1  0.250753  0.156928  0.363086  1
  Si  Si402  1  0.749144  0.156924  0.363087  1
  Si  Si403  1  0.635401  0.311173  0.316460  1
  Si  Si404  1  0.364502  0.188781  0.316462  1
  Si  Si405  1  0.635398  0.188779  0.316463  1
  Si  Si406  1  0.364503  0.311176  0.316461  1
  Si  Si407  1  0.135239  0.061289  0.248982  1
  Si  Si408  1  0.864664  0.061287  0.248982  1
  Si  Si409  1  0.364788  0.060315  0.386665  1
  Si  Si410  1  0.635102  0.060309  0.386663  1
  Si  Si411  1  0.864583  0.249976  0.252120  1
  Si  Si412  1  0.135306  0.249980  0.252122  1
  Si  Si413  1  0.635253  0.249971  0.389717  1
  Si  Si414  1  0.364641  0.249978  0.389716  1
  Si  Si415  1  0.499944  0.311244  0.239734  1
  Si  Si416  1  0.499952  0.188711  0.239735  1
  Si  Si417  1  0.282163  0.845799  0.176739  1
  Si  Si418  1  0.717748  0.845797  0.176736  1
  Si  Si419  1  0.364497  0.811172  0.128104  1
  Si  Si420  1  0.635393  0.688778  0.128101  1
  Si  Si421  1  0.364497  0.688778  0.128101  1
  Si  Si422  1  0.635394  0.811173  0.128103  1
  Si  Si423  1  0.135242  0.938663  0.195587  1
  Si  Si424  1  0.864668  0.938660  0.195586  1
  Si  Si425  1  0.135318  0.749968  0.192444  1
  Si  Si426  1  0.864596  0.749969  0.192441  1
  Si  Si427  1  0.499958  0.811234  0.204829  1
  Si  Si428  1  0.499950  0.688700  0.204830  1
  Si  Si429  1  0.864794  0.439630  0.195554  1
  Si  Si430  1  0.717734  0.654144  0.176735  1
  Si  Si431  1  0.282168  0.654142  0.176735  1
  Si  Si432  1  0.249149  0.343018  0.171978  1
  Si  Si433  1  0.750755  0.343014  0.171978  1
  Si  Si434  1  0.864659  0.561278  0.195577  1
  Si  Si435  1  0.135233  0.561281  0.195579  1
  Si  Si436  1  0.135108  0.439632  0.195555  1
  Si  Si437  1  0.499958  0.188799  0.186052  1
  Si  Si438  1  0.499951  0.311140  0.186051  1
  Si  Si439  1  0.750755  0.156919  0.171976  1
  Si  Si440  1  0.249154  0.156923  0.171979  1
  Si  Si441  1  0.135397  0.311170  0.125354  1
  Si  Si442  1  0.864510  0.188769  0.125353  1
  Si  Si443  1  0.135406  0.188775  0.125355  1
  Si  Si444  1  0.864501  0.311164  0.125353  1
  Si  Si445  1  0.864794  0.060308  0.195556  1
  Si  Si446  1  0.135107  0.060311  0.195556  1
  Si  Si447  1  0.135260  0.249971  0.198609  1
  Si  Si448  1  0.864648  0.249965  0.198607  1
  Si  Si449  1  0.499947  0.688803  0.640728  1
  Si  Si450  1  0.499953  0.811144  0.640727  1
  Si  Si451  1  0.750753  0.843023  0.654801  1
  Si  Si452  1  0.249153  0.843024  0.654801  1
  Si  Si453  1  0.864505  0.811169  0.701425  1
  Si  Si454  1  0.135403  0.688775  0.701427  1
  Si  Si455  1  0.864506  0.688774  0.701423  1
  Si  Si456  1  0.135402  0.811170  0.701425  1
  Si  Si457  1  0.864798  0.939639  0.631227  1
  Si  Si458  1  0.135111  0.939641  0.631227  1
  Si  Si459  1  0.864646  0.749978  0.628169  1
  Si  Si460  1  0.135258  0.749977  0.628171  1
  Si  Si461  1  0.864787  0.560317  0.631219  1
  Si  Si462  1  0.135100  0.560319  0.631220  1
  Si  Si463  1  0.717735  0.345806  0.650041  1
  Si  Si464  1  0.282158  0.345808  0.650042  1
  Si  Si465  1  0.249145  0.656927  0.654802  1
  Si  Si466  1  0.750755  0.656929  0.654799  1
  Si  Si467  1  0.864659  0.438669  0.631195  1
  Si  Si468  1  0.135233  0.438670  0.631196  1
  Si  Si469  1  0.282159  0.154154  0.650043  1
  Si  Si470  1  0.717738  0.154150  0.650044  1
  Si  Si471  1  0.635401  0.311173  0.698675  1
  Si  Si472  1  0.364502  0.188781  0.698678  1
  Si  Si473  1  0.635398  0.188779  0.698678  1
  Si  Si474  1  0.364503  0.311176  0.698676  1
  Si  Si475  1  0.135239  0.061289  0.631197  1
  Si  Si476  1  0.864664  0.061287  0.631197  1
  Si  Si477  1  0.864583  0.249976  0.634335  1
  Si  Si478  1  0.135306  0.249980  0.634337  1
  Si  Si479  1  0.499944  0.311244  0.621949  1
  Si  Si480  1  0.499952  0.188711  0.621950  1
  Si  Si481  1  0.000000  0.688799  0.449619  1
  Si  Si482  1  0.000000  0.811140  0.449621  1
  Si  Si483  1  0.282163  0.845799  0.558954  1
  Si  Si484  1  0.717748  0.845797  0.558952  1
  Si  Si485  1  0.250751  0.843019  0.463695  1
  Si  Si486  1  0.749146  0.843015  0.463693  1
  Si  Si487  1  0.364497  0.811172  0.510319  1
  Si  Si488  1  0.635393  0.688778  0.510316  1
  Si  Si489  1  0.364497  0.688778  0.510316  1
  Si  Si490  1  0.635394  0.811173  0.510318  1
  Si  Si491  1  0.135242  0.938663  0.577802  1
  Si  Si492  1  0.864668  0.938660  0.577801  1
  Si  Si493  1  0.364792  0.939632  0.440117  1
  Si  Si494  1  0.635105  0.939628  0.440114  1
  Si  Si495  1  0.135318  0.749968  0.574659  1
  Si  Si496  1  0.864596  0.749969  0.574656  1
  Si  Si497  1  0.364645  0.749974  0.437063  1
  Si  Si498  1  0.635257  0.749966  0.437062  1
  Si  Si499  1  0.499958  0.811234  0.587044  1
  Si  Si500  1  0.499950  0.688700  0.587046  1
  Si  Si501  1  0.864794  0.439630  0.577769  1
  Si  Si502  1  0.364808  0.560310  0.440117  1
  Si  Si503  1  0.635122  0.560306  0.440116  1
  Si  Si504  1  0.217736  0.345801  0.458935  1
  Si  Si505  1  0.717734  0.654144  0.558950  1
  Si  Si506  1  0.282168  0.654142  0.558950  1
  Si  Si507  1  0.782161  0.345793  0.458934  1
  Si  Si508  1  0.249149  0.343018  0.554193  1
  Si  Si509  1  0.749151  0.656921  0.463694  1
  Si  Si510  1  0.250754  0.656924  0.463691  1
  Si  Si511  1  0.750755  0.343014  0.554193  1
  Si  Si512  1  0.364666  0.438662  0.440088  1
  Si  Si513  1  0.864659  0.561278  0.577793  1
  Si  Si514  1  0.135233  0.561281  0.577794  1
  Si  Si515  1  0.635240  0.438658  0.440088  1
  Si  Si516  1  0.135108  0.439632  0.577770  1
  Si  Si517  1  0.499958  0.188799  0.568267  1
  Si  Si518  1  0.499951  0.311140  0.568266  1
  Si  Si519  1  0.782167  0.154141  0.458934  1
  Si  Si520  1  0.217741  0.154144  0.458936  1
  Si  Si521  1  0.750755  0.156919  0.554192  1
  Si  Si522  1  0.249154  0.156923  0.554195  1
  Si  Si523  1  0.135397  0.311170  0.507569  1
  Si  Si524  1  0.864510  0.188769  0.507568  1
  Si  Si525  1  0.135406  0.188775  0.507570  1
  Si  Si526  1  0.864501  0.311164  0.507569  1
  Si  Si527  1  0.635245  0.061276  0.440089  1
  Si  Si528  1  0.364671  0.061281  0.440092  1
  Si  Si529  1  0.864794  0.060308  0.577772  1
  Si  Si530  1  0.135107  0.060311  0.577772  1
  Si  Si531  1  0.364584  0.249973  0.443229  1
  Si  Si532  1  0.635306  0.249966  0.443229  1
  Si  Si533  1  0.135260  0.249971  0.580824  1
  Si  Si534  1  0.864648  0.249965  0.580822  1
  Si  Si535  1  0.000000  0.311236  0.430841  1
  Si  Si536  1  0.000000  0.188702  0.430841  1
  H  H537  1  0.293422  0.832037  0.091195  1
  H  H538  1  0.706473  0.667910  0.091193  1
  H  H539  1  0.293418  0.667917  0.091191  1
  H  H540  1  0.706462  0.832036  0.091192  1
  H  H541  1  0.173654  0.338590  0.086612  1
  H  H542  1  0.826244  0.338583  0.086612  1
  H  H543  1  0.826257  0.161352  0.086610  1
  H  H544  1  0.173668  0.161356  0.086613  1
  H  H545  1  0.826249  0.838588  0.740166  1
  H  H546  1  0.173652  0.838591  0.740166  1
  H  H547  1  0.173663  0.661359  0.740169  1
  H  H548  1  0.826235  0.661354  0.740165  1
  H  H549  1  0.706475  0.332033  0.735586  1
  H  H550  1  0.293431  0.167914  0.735587  1
  H  H551  1  0.706472  0.167915  0.735588  1
  H  H552  1  0.293429  0.332042  0.735585  1
