# generated using pymatgen
data_Si15H2O31
_symmetry_space_group_name_H-M   'P 1'
_cell_length_a   12.27583869
_cell_length_b   28.16119110
_cell_length_c   64.41506976
_cell_angle_alpha   50.13120226
_cell_angle_beta   90.00000000
_cell_angle_gamma   64.06390339
_symmetry_Int_Tables_number   1
_chemical_formula_structural   Si15H2O31
_chemical_formula_sum   'Si120 H16 O248'
_cell_volume   14044.7835347
_cell_formula_units_Z   8
loop_
 _symmetry_equiv_pos_site_id
 _symmetry_equiv_pos_as_xyz
  1  'x, y, z'
loop_
 _atom_site_type_symbol
 _atom_site_label
 _atom_site_symmetry_multiplicity
 _atom_site_fract_x
 _atom_site_fract_y
 _atom_site_fract_z
 _atom_site_occupancy
  O  O1  1  0.499971  -0.000000  0.325141  1
  O  O2  1  0.446550  0.400144  0.190143  1
  O  O3  1  0.553356  0.099908  0.308267  1
  O  O4  1  0.691051  0.496571  0.192089  1
  O  O5  1  0.308871  0.003476  0.306322  1
  O  O6  1  0.548677  0.393912  0.226151  1
  O  O7  1  0.451240  0.106136  0.272259  1
  O  O8  1  0.934092  0.409358  0.229815  1
  O  O9  1  0.738001  0.471585  0.237272  1
  O  O10  1  0.771581  0.367058  0.242306  1
  O  O11  1  0.112106  0.392675  0.258884  1
  O  O12  1  0.165538  0.362637  0.228596  1
  O  O13  1  0.834351  0.137410  0.269815  1
  O  O14  1  0.663279  0.321472  0.278896  1
  O  O15  1  0.738851  0.258937  0.259783  1
  O  O16  1  0.261060  0.241116  0.238628  1
  O  O17  1  0.355151  0.320009  0.213754  1
  O  O18  1  0.644737  0.180049  0.284655  1
  O  O19  1  0.517977  0.186466  0.316485  1
  O  O20  1  0.397743  0.243193  0.266887  1
  O  O21  1  0.602126  0.256866  0.231516  1
  O  O22  1  0.065809  0.090696  0.268600  1
  O  O23  1  0.065771  0.090738  0.178980  1
  O  O24  1  0.261865  0.028482  0.261135  1
  O  O25  1  0.261858  0.028501  0.221319  1
  O  O26  1  0.228330  0.132992  0.256105  1
  O  O27  1  0.228294  0.133028  0.167767  1
  O  O28  1  0.887796  0.107404  0.239519  1
  O  O29  1  0.887742  0.107432  0.198694  1
  O  O30  1  0.336633  0.178586  0.219512  1
  O  O31  1  0.336614  0.178599  0.178813  1
  O  O32  1  0.481900  0.313605  0.181919  1
  O  O33  1  0.481930  0.313611  0.140732  1
  O  O34  1  0.547600  0.085096  0.225363  1
  O  O35  1  0.770794  0.062320  0.231748  1
  O  O36  1  0.456220  0.223414  0.186599  1
  O  O37  1  0.677143  0.201659  0.192701  1
  O  O38  1  -0.000000  0.000000  0.202859  1
  O  O39  1  -0.000000  0.000000  0.295539  1
  O  O40  1  0.446561  0.400164  0.364249  1
  O  O41  1  0.553297  0.099954  0.134143  1
  O  O42  1  0.691036  0.496598  0.308252  1
  O  O43  1  0.308821  0.003516  0.190140  1
  O  O44  1  0.548649  0.393948  0.331726  1
  O  O45  1  0.451199  0.106173  0.166664  1
  O  O46  1  0.934088  0.409380  0.319413  1
  O  O47  1  0.738012  0.471598  0.277079  1
  O  O48  1  0.771563  0.367085  0.330626  1
  O  O49  1  0.112124  0.392670  0.299702  1
  O  O50  1  0.165517  0.362684  0.346813  1
  O  O51  1  0.834339  0.137433  0.151579  1
  O  O52  1  0.663255  0.321495  0.319586  1
  O  O53  1  0.738817  0.258965  0.373749  1
  O  O54  1  0.261026  0.241151  0.124648  1
  O  O55  1  0.355153  0.320036  0.385551  1
  O  O56  1  0.517931  0.186489  0.357666  1
  O  O57  1  0.397726  0.243232  0.375463  1
  O  O58  1  0.322736  0.298433  0.305698  1
  O  O59  1  0.452300  0.414978  0.273038  1
  O  O60  1  0.229093  0.437771  0.266654  1
  O  O61  1  0.543676  0.276666  0.311799  1
  O  O62  1  0.499908  -0.000000  0.173255  1
  O  O63  1  0.397754  0.743198  0.375473  1
  O  O64  1  -0.000000  0.500026  0.202867  1
  O  O65  1  0.553346  0.599913  0.134155  1
  O  O66  1  0.446589  0.900130  0.364254  1
  O  O67  1  0.308867  0.503486  0.190153  1
  O  O68  1  0.691054  0.996567  0.308255  1
  O  O69  1  0.451246  0.606141  0.166674  1
  O  O70  1  0.548684  0.893908  0.331734  1
  O  O71  1  0.065819  0.590704  0.178990  1
  O  O72  1  0.261890  0.528488  0.221325  1
  O  O73  1  0.228339  0.633002  0.167776  1
  O  O74  1  0.887795  0.607400  0.198703  1
  O  O75  1  0.834385  0.637403  0.151588  1
  O  O76  1  0.165551  0.862644  0.346818  1
  O  O77  1  0.336649  0.678593  0.178814  1
  O  O78  1  0.261074  0.741122  0.124649  1
  O  O79  1  0.738863  0.758931  0.373752  1
  O  O80  1  0.355180  0.820003  0.385555  1
  O  O81  1  0.481946  0.813591  0.140733  1
  O  O82  1  0.499958  0.500027  0.173268  1
  O  O83  1  0.934077  0.909386  0.229796  1
  O  O84  1  0.934102  0.909348  0.319417  1
  O  O85  1  0.738009  0.971610  0.237258  1
  O  O86  1  0.738023  0.971579  0.277077  1
  O  O87  1  0.771549  0.867095  0.242293  1
  O  O88  1  0.771585  0.867053  0.330629  1
  O  O89  1  0.112098  0.892671  0.258878  1
  O  O90  1  0.112105  0.892667  0.299698  1
  O  O91  1  0.663237  0.821504  0.278885  1
  O  O92  1  0.663257  0.821479  0.319587  1
  O  O93  1  0.517954  0.686486  0.316480  1
  O  O94  1  0.517968  0.686470  0.357669  1
  O  O95  1  0.452269  0.914990  0.273035  1
  O  O96  1  0.229073  0.937769  0.266648  1
  O  O97  1  0.543642  0.776674  0.311797  1
  O  O98  1  0.322722  0.798427  0.305701  1
  O  O99  1  0.553327  0.599949  0.308256  1
  O  O100  1  0.446547  0.900169  0.190132  1
  O  O101  1  0.308841  0.503515  0.306315  1
  O  O102  1  0.691015  0.996605  0.192074  1
  O  O103  1  0.451222  0.606168  0.272252  1
  O  O104  1  0.548638  0.893952  0.226138  1
  O  O105  1  0.065802  0.590728  0.268586  1
  O  O106  1  0.261910  0.528485  0.261136  1
  O  O107  1  0.228318  0.633022  0.256096  1
  O  O108  1  0.887779  0.607416  0.239516  1
  O  O109  1  0.834362  0.637439  0.269809  1
  O  O110  1  0.165534  0.862683  0.228576  1
  O  O111  1  0.336627  0.678603  0.219507  1
  O  O112  1  0.261052  0.741151  0.238617  1
  O  O113  1  0.738825  0.758970  0.259771  1
  O  O114  1  0.644734  0.680081  0.284647  1
  O  O115  1  0.355167  0.820028  0.213742  1
  O  O116  1  0.481951  0.813609  0.181914  1
  O  O117  1  0.602163  0.756881  0.231515  1
  O  O118  1  0.397733  0.743238  0.266873  1
  O  O119  1  0.677171  0.701647  0.192698  1
  O  O120  1  0.000000  0.500056  0.295532  1
  O  O121  1  0.770812  0.562307  0.231749  1
  O  O122  1  0.547606  0.585099  0.225365  1
  O  O123  1  0.499940  0.500057  0.325136  1
  O  O124  1  0.456239  0.723414  0.186603  1
  O  O125  1  0.499971  -0.000000  0.605390  1
  O  O126  1  0.446550  0.400144  0.470391  1
  O  O127  1  0.553356  0.099908  0.588515  1
  O  O128  1  0.691051  0.496571  0.472337  1
  O  O129  1  0.308871  0.003476  0.586570  1
  O  O130  1  0.548677  0.393912  0.506399  1
  O  O131  1  0.451240  0.106136  0.552507  1
  O  O132  1  0.934092  0.409358  0.510063  1
  O  O133  1  0.738001  0.471585  0.517520  1
  O  O134  1  0.771581  0.367058  0.522554  1
  O  O135  1  0.112106  0.392675  0.539132  1
  O  O136  1  0.165538  0.362637  0.508845  1
  O  O137  1  0.834351  0.137410  0.550064  1
  O  O138  1  0.663279  0.321472  0.559144  1
  O  O139  1  0.738851  0.258937  0.540032  1
  O  O140  1  0.261060  0.241116  0.518877  1
  O  O141  1  0.355151  0.320009  0.494003  1
  O  O142  1  0.644737  0.180049  0.564903  1
  O  O143  1  0.517977  0.186466  0.596733  1
  O  O144  1  0.397743  0.243193  0.547136  1
  O  O145  1  0.602126  0.256866  0.511765  1
  O  O146  1  0.065809  0.090696  0.548849  1
  O  O147  1  0.065771  0.090738  0.459229  1
  O  O148  1  0.261865  0.028482  0.541383  1
  O  O149  1  0.261858  0.028501  0.501567  1
  O  O150  1  0.228330  0.132992  0.536353  1
  O  O151  1  0.228294  0.133028  0.448015  1
  O  O152  1  0.887796  0.107404  0.519767  1
  O  O153  1  0.887742  0.107432  0.478942  1
  O  O154  1  0.336633  0.178586  0.499760  1
  O  O155  1  0.336614  0.178599  0.459061  1
  O  O156  1  0.481900  0.313605  0.462167  1
  O  O157  1  0.481930  0.313611  0.420980  1
  O  O158  1  0.547600  0.085096  0.505612  1
  O  O159  1  0.770794  0.062320  0.511996  1
  O  O160  1  0.456220  0.223414  0.466847  1
  O  O161  1  0.677143  0.201659  0.472950  1
  O  O162  1  0.000000  0.000000  0.483108  1
  O  O163  1  0.000000  -0.000000  0.575787  1
  O  O164  1  0.446561  0.400164  0.644497  1
  O  O165  1  0.553297  0.099954  0.414392  1
  O  O166  1  0.691036  0.496598  0.588501  1
  O  O167  1  0.308821  0.003516  0.470389  1
  O  O168  1  0.548649  0.393948  0.611974  1
  O  O169  1  0.451199  0.106173  0.446913  1
  O  O170  1  0.934088  0.409380  0.599662  1
  O  O171  1  0.738012  0.471598  0.557327  1
  O  O172  1  0.771563  0.367085  0.610875  1
  O  O173  1  0.112124  0.392670  0.579951  1
  O  O174  1  0.165517  0.362684  0.627062  1
  O  O175  1  0.834339  0.137433  0.431827  1
  O  O176  1  0.663255  0.321495  0.599834  1
  O  O177  1  0.738817  0.258965  0.653997  1
  O  O178  1  0.261026  0.241151  0.404896  1
  O  O179  1  0.644700  0.180087  0.393087  1
  O  O180  1  0.517931  0.186489  0.637914  1
  O  O181  1  0.602147  0.256879  0.403176  1
  O  O182  1  0.322736  0.298433  0.585946  1
  O  O183  1  0.452300  0.414978  0.553286  1
  O  O184  1  0.229093  0.437771  0.546902  1
  O  O185  1  0.543676  0.276666  0.592047  1
  O  O186  1  0.499908  0.000000  0.453503  1
  O  O187  1  0.000000  0.500026  0.483115  1
  O  O188  1  0.553346  0.599913  0.414403  1
  O  O189  1  0.446589  0.900130  0.644502  1
  O  O190  1  0.308867  0.503486  0.470401  1
  O  O191  1  0.691054  0.996567  0.588503  1
  O  O192  1  0.451246  0.606141  0.446923  1
  O  O193  1  0.548684  0.893908  0.611982  1
  O  O194  1  0.065819  0.590704  0.459238  1
  O  O195  1  0.261890  0.528488  0.501574  1
  O  O196  1  0.228339  0.633002  0.448024  1
  O  O197  1  0.887795  0.607400  0.478952  1
  O  O198  1  0.834385  0.637403  0.431836  1
  O  O199  1  0.165551  0.862644  0.627066  1
  O  O200  1  0.336649  0.678593  0.459062  1
  O  O201  1  0.261074  0.741122  0.404898  1
  O  O202  1  0.738863  0.758931  0.654000  1
  O  O203  1  0.644755  0.680039  0.393100  1
  O  O204  1  0.481946  0.813591  0.420981  1
  O  O205  1  0.602161  0.756851  0.403184  1
  O  O206  1  0.499958  0.500027  0.453516  1
  O  O207  1  0.934077  0.909386  0.510044  1
  O  O208  1  0.934102  0.909348  0.599665  1
  O  O209  1  0.738009  0.971610  0.517507  1
  O  O210  1  0.738023  0.971579  0.557326  1
  O  O211  1  0.771549  0.867095  0.522541  1
  O  O212  1  0.771585  0.867053  0.610877  1
  O  O213  1  0.112098  0.892671  0.539127  1
  O  O214  1  0.112105  0.892667  0.579946  1
  O  O215  1  0.663237  0.821504  0.559134  1
  O  O216  1  0.663257  0.821479  0.599835  1
  O  O217  1  0.517954  0.686486  0.596728  1
  O  O218  1  0.517968  0.686470  0.637918  1
  O  O219  1  0.452269  0.914990  0.553283  1
  O  O220  1  0.229073  0.937769  0.546896  1
  O  O221  1  0.543642  0.776674  0.592046  1
  O  O222  1  0.322722  0.798427  0.585950  1
  O  O223  1  0.553327  0.599949  0.588505  1
  O  O224  1  0.446547  0.900169  0.470380  1
  O  O225  1  0.308841  0.503515  0.586564  1
  O  O226  1  0.691015  0.996605  0.472323  1
  O  O227  1  0.451222  0.606168  0.552500  1
  O  O228  1  0.548638  0.893952  0.506387  1
  O  O229  1  0.065802  0.590728  0.548834  1
  O  O230  1  0.261910  0.528485  0.541385  1
  O  O231  1  0.228318  0.633022  0.536345  1
  O  O232  1  0.887779  0.607416  0.519765  1
  O  O233  1  0.834362  0.637439  0.550058  1
  O  O234  1  0.165534  0.862683  0.508825  1
  O  O235  1  0.336627  0.678603  0.499755  1
  O  O236  1  0.261052  0.741151  0.518865  1
  O  O237  1  0.738825  0.758970  0.540020  1
  O  O238  1  0.644734  0.680081  0.564895  1
  O  O239  1  0.355167  0.820028  0.493991  1
  O  O240  1  0.481951  0.813609  0.462162  1
  O  O241  1  0.602163  0.756881  0.511763  1
  O  O242  1  0.397733  0.743238  0.547121  1
  O  O243  1  0.677171  0.701647  0.472947  1
  O  O244  1  0.000000  0.500056  0.575781  1
  O  O245  1  0.770812  0.562307  0.511997  1
  O  O246  1  0.547606  0.585099  0.505614  1
  O  O247  1  0.499940  0.500057  0.605384  1
  O  O248  1  0.456239  0.723414  0.466852  1
  Si  Si249  1  0.531242  0.175217  0.295363  1
  Si  Si250  1  0.446643  0.451030  0.193479  1
  Si  Si251  1  0.553280  0.049020  0.304929  1
  Si  Si252  1  0.287790  0.294377  0.236179  1
  Si  Si253  1  0.712107  0.205671  0.262232  1
  Si  Si254  1  0.787476  0.434287  0.225802  1
  Si  Si255  1  0.055155  0.415338  0.229965  1
  Si  Si256  1  0.688770  0.332004  0.252735  1
  Si  Si257  1  0.468654  0.324837  0.203049  1
  Si  Si258  1  0.212424  0.065767  0.272610  1
  Si  Si259  1  0.212392  0.065801  0.188943  1
  Si  Si260  1  0.944746  0.084718  0.268444  1
  Si  Si261  1  0.944715  0.084751  0.182484  1
  Si  Si262  1  0.311145  0.168042  0.245674  1
  Si  Si263  1  0.311110  0.168079  0.158552  1
  Si  Si264  1  0.416304  0.166786  0.202471  1
  Si  Si265  1  0.808278  0.120245  0.215514  1
  Si  Si266  1  0.524613  0.265884  0.174700  1
  Si  Si267  1  0.699865  0.021188  0.243272  1
  Si  Si268  1  0.531187  0.175263  0.385088  1
  Si  Si269  1  0.446627  0.451059  0.332388  1
  Si  Si270  1  0.553225  0.049061  0.166004  1
  Si  Si271  1  0.287767  0.294421  0.377489  1
  Si  Si272  1  0.787472  0.434308  0.309453  1
  Si  Si273  1  0.055145  0.415364  0.315908  1
  Si  Si274  1  0.688738  0.332041  0.339838  1
  Si  Si275  1  0.191606  0.379847  0.282886  1
  Si  Si276  1  0.475258  0.234200  0.323700  1
  Si  Si277  1  0.300039  0.478893  0.255129  1
  Si  Si278  1  0.583590  0.333285  0.295933  1
  Si  Si279  1  0.553272  0.549025  0.166015  1
  Si  Si280  1  0.446657  0.951023  0.332393  1
  Si  Si281  1  0.287806  0.794380  0.377494  1
  Si  Si282  1  0.212433  0.565777  0.188951  1
  Si  Si283  1  0.944763  0.584717  0.182494  1
  Si  Si284  1  0.311158  0.668049  0.158561  1
  Si  Si285  1  0.531226  0.675255  0.295350  1
  Si  Si286  1  0.531245  0.675218  0.385099  1
  Si  Si287  1  0.787460  0.934318  0.225786  1
  Si  Si288  1  0.787484  0.934281  0.309453  1
  Si  Si289  1  0.055141  0.915364  0.229952  1
  Si  Si290  1  0.055158  0.915335  0.315912  1
  Si  Si291  1  0.688730  0.832048  0.252723  1
  Si  Si292  1  0.688771  0.832001  0.339847  1
  Si  Si293  1  0.583564  0.833300  0.295927  1
  Si  Si294  1  0.191590  0.879843  0.282883  1
  Si  Si295  1  0.475253  0.734202  0.323702  1
  Si  Si296  1  0.300005  0.978899  0.255123  1
  Si  Si297  1  0.468671  0.824858  0.203038  1
  Si  Si298  1  0.553253  0.549053  0.304923  1
  Si  Si299  1  0.446602  0.951064  0.193467  1
  Si  Si300  1  0.712104  0.705704  0.262223  1
  Si  Si301  1  0.287791  0.794413  0.236165  1
  Si  Si302  1  0.212422  0.565793  0.272602  1
  Si  Si303  1  0.944740  0.584747  0.268436  1
  Si  Si304  1  0.311132  0.668073  0.245666  1
  Si  Si305  1  0.524646  0.765878  0.174699  1
  Si  Si306  1  0.699867  0.521184  0.243276  1
  Si  Si307  1  0.416316  0.666791  0.202470  1
  Si  Si308  1  0.808301  0.620231  0.215516  1
  Si  Si309  1  0.531242  0.175217  0.575611  1
  Si  Si310  1  0.446643  0.451030  0.473728  1
  Si  Si311  1  0.553280  0.049020  0.585177  1
  Si  Si312  1  0.287790  0.294377  0.516427  1
  Si  Si313  1  0.712107  0.205671  0.542480  1
  Si  Si314  1  0.787476  0.434287  0.506050  1
  Si  Si315  1  0.055155  0.415338  0.510214  1
  Si  Si316  1  0.688770  0.332004  0.532983  1
  Si  Si317  1  0.468654  0.324837  0.483297  1
  Si  Si318  1  0.468661  0.324859  0.393552  1
  Si  Si319  1  0.212424  0.065767  0.552858  1
  Si  Si320  1  0.212392  0.065801  0.469191  1
  Si  Si321  1  0.944746  0.084718  0.548692  1
  Si  Si322  1  0.944715  0.084751  0.462733  1
  Si  Si323  1  0.311145  0.168042  0.525923  1
  Si  Si324  1  0.311110  0.168079  0.438800  1
  Si  Si325  1  0.416304  0.166786  0.482719  1
  Si  Si326  1  0.808278  0.120245  0.495762  1
  Si  Si327  1  0.524613  0.265884  0.454948  1
  Si  Si328  1  0.699865  0.021188  0.523521  1
  Si  Si329  1  0.446627  0.451059  0.612636  1
  Si  Si330  1  0.553225  0.049061  0.446252  1
  Si  Si331  1  0.712081  0.205703  0.401151  1
  Si  Si332  1  0.787472  0.434308  0.589701  1
  Si  Si333  1  0.055145  0.415364  0.596156  1
  Si  Si334  1  0.688738  0.332041  0.620087  1
  Si  Si335  1  0.191606  0.379847  0.563135  1
  Si  Si336  1  0.475258  0.234200  0.603948  1
  Si  Si337  1  0.300039  0.478893  0.535377  1
  Si  Si338  1  0.583590  0.333285  0.576181  1
  Si  Si339  1  0.468695  0.824822  0.393557  1
  Si  Si340  1  0.553272  0.549025  0.446264  1
  Si  Si341  1  0.446657  0.951023  0.612642  1
  Si  Si342  1  0.712132  0.705660  0.401161  1
  Si  Si343  1  0.212433  0.565777  0.469200  1
  Si  Si344  1  0.944763  0.584717  0.462742  1
  Si  Si345  1  0.311158  0.668049  0.438809  1
  Si  Si346  1  0.531226  0.675255  0.575599  1
  Si  Si347  1  0.787460  0.934318  0.506034  1
  Si  Si348  1  0.787484  0.934281  0.589701  1
  Si  Si349  1  0.055141  0.915364  0.510201  1
  Si  Si350  1  0.055158  0.915335  0.596161  1
  Si  Si351  1  0.688730  0.832048  0.532971  1
  Si  Si352  1  0.688771  0.832001  0.620095  1
  Si  Si353  1  0.583564  0.833300  0.576175  1
  Si  Si354  1  0.191590  0.879843  0.563131  1
  Si  Si355  1  0.475253  0.734202  0.603950  1
  Si  Si356  1  0.300005  0.978899  0.535372  1
  Si  Si357  1  0.468671  0.824858  0.483286  1
  Si  Si358  1  0.553253  0.549053  0.585172  1
  Si  Si359  1  0.446602  0.951064  0.473716  1
  Si  Si360  1  0.712104  0.705704  0.542472  1
  Si  Si361  1  0.287791  0.794413  0.516413  1
  Si  Si362  1  0.212422  0.565793  0.552851  1
  Si  Si363  1  0.944740  0.584747  0.548684  1
  Si  Si364  1  0.311132  0.668073  0.525914  1
  Si  Si365  1  0.524646  0.765878  0.454947  1
  Si  Si366  1  0.699867  0.521184  0.523524  1
  Si  Si367  1  0.416316  0.666791  0.482718  1
  Si  Si368  1  0.808301  0.620231  0.495764  1
  H  H369  1  0.481930  0.313611  0.126760  1
  H  H370  1  0.553297  0.099954  0.120172  1
  H  H371  1  0.834339  0.137433  0.137607  1
  H  H372  1  0.261026  0.241151  0.110676  1
  H  H373  1  0.553346  0.599913  0.120183  1
  H  H374  1  0.834385  0.637403  0.137616  1
  H  H375  1  0.261074  0.741122  0.110677  1
  H  H376  1  0.481946  0.813591  0.126761  1
  H  H377  1  0.446561  0.400164  0.658469  1
  H  H378  1  0.165517  0.362684  0.641034  1
  H  H379  1  0.738817  0.258965  0.667969  1
  H  H380  1  0.517931  0.186489  0.651886  1
  H  H381  1  0.446589  0.900130  0.658474  1
  H  H382  1  0.165551  0.862644  0.641038  1
  H  H383  1  0.738863  0.758931  0.667972  1
  H  H384  1  0.517968  0.686470  0.651890  1
