# generated using pymatgen
data_Si26H2O53
_symmetry_space_group_name_H-M   'P 1'
_cell_length_a   12.87085738
_cell_length_b   12.87068762
_cell_length_c   65.04135313
_cell_angle_alpha   90.00000000
_cell_angle_beta   90.00000000
_cell_angle_gamma   90.00000000
_symmetry_Int_Tables_number   1
_chemical_formula_structural   Si26H2O53
_chemical_formula_sum   'Si104 H8 O212'
_cell_volume   10774.5414349
_cell_formula_units_Z   4
loop_
 _symmetry_equiv_pos_site_id
 _symmetry_equiv_pos_as_xyz
  1  'x, y, z'
loop_
 _atom_site_type_symbol
 _atom_site_label
 _atom_site_symmetry_multiplicity
 _atom_site_fract_x
 _atom_site_fract_y
 _atom_site_fract_z
 _atom_site_occupancy
  O  O1  1  0.323752  0.306467  0.090712  1
  O  O2  1  0.676361  0.306466  0.090719  1
  O  O3  1  0.641461  0.499880  0.102566  1
  O  O4  1  0.359367  0.359237  0.130124  1
  O  O5  1  0.640661  0.359235  0.130130  1
  O  O6  1  0.500043  0.366949  0.103198  1
  O  O7  1  0.499987  0.358469  0.157693  1
  O  O8  1  0.358635  0.499888  0.102560  1
  O  O9  1  0.632915  0.499888  0.157058  1
  O  O10  1  0.367059  0.499886  0.157053  1
  O  O11  1  0.866979  0.135367  0.227794  1
  O  O12  1  0.133066  0.135323  0.227790  1
  O  O13  1  0.000000  0.139122  0.255638  1
  O  O14  1  0.000000  0.139135  0.199945  1
  O  O15  1  0.808013  0.201919  0.262315  1
  O  O16  1  0.192060  0.201875  0.262312  1
  O  O17  1  0.807986  0.201939  0.193274  1
  O  O18  1  0.192034  0.201887  0.193270  1
  O  O19  1  0.831745  0.399336  0.194387  1
  O  O20  1  0.168220  0.399276  0.194389  1
  O  O21  1  0.831758  0.399315  0.261200  1
  O  O22  1  0.168240  0.399266  0.261203  1
  O  O23  1  0.669435  0.329674  0.208149  1
  O  O24  1  0.330559  0.329650  0.208144  1
  O  O25  1  0.669443  0.329643  0.247439  1
  O  O26  1  0.330559  0.329650  0.247437  1
  O  O27  1  0.693407  0.323603  0.169542  1
  O  O28  1  0.306559  0.323598  0.169536  1
  O  O29  1  0.693441  0.323587  0.286046  1
  O  O30  1  0.306614  0.323565  0.286045  1
  O  O31  1  0.000000  0.499889  0.255981  1
  O  O32  1  0.000000  0.499905  0.199612  1
  O  O33  1  0.499993  0.357751  0.227793  1
  O  O34  1  0.367423  0.499895  0.227790  1
  O  O35  1  0.868138  0.499921  0.227796  1
  O  O36  1  0.632553  0.499904  0.227800  1
  O  O37  1  0.131856  0.499868  0.227797  1
  O  O38  1  0.358648  0.499832  0.353027  1
  O  O39  1  0.000000  0.140502  0.395145  1
  O  O40  1  0.202055  0.191922  0.388604  1
  O  O41  1  0.798025  0.191824  0.388601  1
  O  O42  1  0.399440  0.168066  0.389727  1
  O  O43  1  0.600630  0.168115  0.389718  1
  O  O44  1  0.329847  0.330434  0.403477  1
  O  O45  1  0.670342  0.330402  0.403481  1
  O  O46  1  0.323791  0.306405  0.364870  1
  O  O47  1  0.676366  0.306434  0.364872  1
  O  O48  1  0.641485  0.499849  0.353025  1
  O  O49  1  0.640704  0.359214  0.325458  1
  O  O50  1  0.359401  0.359196  0.325459  1
  O  O51  1  0.367088  0.499859  0.298533  1
  O  O52  1  0.500071  0.366912  0.352385  1
  O  O53  1  0.500032  0.358455  0.297893  1
  O  O54  1  0.632952  0.499881  0.298532  1
  O  O55  1  0.676377  0.693285  0.090721  1
  O  O56  1  0.323771  0.693308  0.090715  1
  O  O57  1  0.640671  0.640535  0.130132  1
  O  O58  1  0.359370  0.640538  0.130128  1
  O  O59  1  0.500052  0.632819  0.103203  1
  O  O60  1  0.499989  0.641305  0.157695  1
  O  O61  1  0.133029  0.864409  0.227792  1
  O  O62  1  0.866934  0.864462  0.227795  1
  O  O63  1  -0.000000  0.860647  0.255639  1
  O  O64  1  0.000000  0.860660  0.199947  1
  O  O65  1  0.140638  0.000000  0.199813  1
  O  O66  1  0.192011  0.797852  0.262316  1
  O  O67  1  0.807967  0.797901  0.262317  1
  O  O68  1  0.191982  0.797858  0.193269  1
  O  O69  1  0.807930  0.797913  0.193275  1
  O  O70  1  0.168242  0.600466  0.194390  1
  O  O71  1  0.831756  0.600528  0.194392  1
  O  O72  1  0.168243  0.600459  0.261205  1
  O  O73  1  0.831763  0.600511  0.261202  1
  O  O74  1  0.330541  0.670155  0.208151  1
  O  O75  1  0.669417  0.670143  0.208151  1
  O  O76  1  0.330549  0.670116  0.247444  1
  O  O77  1  0.669430  0.670152  0.247444  1
  O  O78  1  0.306570  0.676176  0.169541  1
  O  O79  1  0.693398  0.676191  0.169544  1
  O  O80  1  0.306583  0.676162  0.286052  1
  O  O81  1  0.693419  0.676193  0.286050  1
  O  O82  1  0.499982  0.642049  0.227798  1
  O  O83  1  0.859365  0.000000  0.255772  1
  O  O84  1  0.140667  0.000000  0.255768  1
  O  O85  1  0.859334  0.000000  0.199817  1
  O  O86  1  0.860846  0.000000  0.395278  1
  O  O87  1  0.139318  0.000000  0.395275  1
  O  O88  1  0.000000  0.859195  0.395146  1
  O  O89  1  0.798119  0.807774  0.388604  1
  O  O90  1  0.202150  0.807873  0.388604  1
  O  O91  1  0.600739  0.831620  0.389724  1
  O  O92  1  0.399550  0.831603  0.389719  1
  O  O93  1  0.670347  0.669275  0.403482  1
  O  O94  1  0.329865  0.669312  0.403483  1
  O  O95  1  0.676369  0.693259  0.364874  1
  O  O96  1  0.323789  0.693259  0.364876  1
  O  O97  1  0.359387  0.640492  0.325463  1
  O  O98  1  0.640684  0.640516  0.325461  1
  O  O99  1  0.500061  0.632767  0.352390  1
  O  O100  1  0.500009  0.641285  0.297897  1
  O  O101  1  0.500106  0.000000  0.394945  1
  O  O102  1  0.500081  0.131718  0.423130  1
  O  O103  1  0.000000  0.140520  0.451100  1
  O  O104  1  0.202048  0.191936  0.457641  1
  O  O105  1  0.798028  0.191845  0.457649  1
  O  O106  1  0.399439  0.168088  0.456532  1
  O  O107  1  0.600632  0.168126  0.456541  1
  O  O108  1  0.329844  0.330426  0.442768  1
  O  O109  1  0.670324  0.330407  0.442774  1
  O  O110  1  0.323752  0.306467  0.481375  1
  O  O111  1  0.676361  0.306466  0.481382  1
  O  O112  1  0.641461  0.499880  0.493230  1
  O  O113  1  0.500092  0.367290  0.423124  1
  O  O114  1  0.359367  0.359237  0.520787  1
  O  O115  1  0.640661  0.359235  0.520794  1
  O  O116  1  0.500043  0.366949  0.493862  1
  O  O117  1  0.499987  0.358469  0.548357  1
  O  O118  1  0.642249  0.499844  0.423129  1
  O  O119  1  0.358635  0.499888  0.493224  1
  O  O120  1  0.357951  0.499868  0.423127  1
  O  O121  1  0.632915  0.499888  0.547722  1
  O  O122  1  0.367059  0.499886  0.547717  1
  O  O123  1  0.135485  0.132941  0.423122  1
  O  O124  1  0.864576  0.132870  0.423123  1
  O  O125  1  0.866979  0.135367  0.618458  1
  O  O126  1  0.133066  0.135323  0.618454  1
  O  O127  1  0.000000  0.139122  0.646302  1
  O  O128  1  0.000000  0.139135  0.590609  1
  O  O129  1  0.808013  0.201919  0.652978  1
  O  O130  1  0.192060  0.201875  0.652976  1
  O  O131  1  0.807986  0.201939  0.583938  1
  O  O132  1  0.192034  0.201887  0.583934  1
  O  O133  1  0.831745  0.399336  0.585051  1
  O  O134  1  0.168220  0.399276  0.585052  1
  O  O135  1  0.831758  0.399315  0.651863  1
  O  O136  1  0.168240  0.399266  0.651867  1
  O  O137  1  0.669435  0.329674  0.598812  1
  O  O138  1  0.330559  0.329650  0.598807  1
  O  O139  1  0.669443  0.329643  0.638103  1
  O  O140  1  0.330559  0.329650  0.638101  1
  O  O141  1  0.693407  0.323603  0.560206  1
  O  O142  1  0.306559  0.323598  0.560200  1
  O  O143  1  0.693441  0.323587  0.676710  1
  O  O144  1  0.306614  0.323565  0.676709  1
  O  O145  1  0.000000  0.499889  0.646645  1
  O  O146  1  0.000000  0.499905  0.590276  1
  O  O147  1  0.499993  0.357751  0.618457  1
  O  O148  1  0.367423  0.499895  0.618454  1
  O  O149  1  0.868138  0.499921  0.618460  1
  O  O150  1  0.632553  0.499904  0.618464  1
  O  O151  1  0.131856  0.499868  0.618461  1
  O  O152  1  0.358648  0.499832  0.743691  1
  O  O153  1  0.323791  0.306405  0.755534  1
  O  O154  1  0.676366  0.306434  0.755535  1
  O  O155  1  0.641485  0.499849  0.743689  1
  O  O156  1  0.640704  0.359214  0.716122  1
  O  O157  1  0.359401  0.359196  0.716123  1
  O  O158  1  0.367088  0.499859  0.689196  1
  O  O159  1  0.500071  0.366912  0.743049  1
  O  O160  1  0.500032  0.358455  0.688557  1
  O  O161  1  0.632952  0.499881  0.689196  1
  O  O162  1  0.860840  0.000000  0.450970  1
  O  O163  1  -0.000000  0.859218  0.451101  1
  O  O164  1  0.798122  0.807794  0.457648  1
  O  O165  1  0.202140  0.807899  0.457644  1
  O  O166  1  0.600741  0.831630  0.456533  1
  O  O167  1  0.399544  0.831621  0.456536  1
  O  O168  1  0.670349  0.669279  0.442777  1
  O  O169  1  0.329859  0.669319  0.442773  1
  O  O170  1  0.676377  0.693285  0.481384  1
  O  O171  1  0.323771  0.693308  0.481379  1
  O  O172  1  0.139315  0.000000  0.450968  1
  O  O173  1  0.500107  0.632421  0.423130  1
  O  O174  1  0.640671  0.640535  0.520796  1
  O  O175  1  0.359370  0.640538  0.520791  1
  O  O176  1  0.500052  0.632819  0.493866  1
  O  O177  1  0.500126  0.868000  0.423129  1
  O  O178  1  0.499989  0.641305  0.548359  1
  O  O179  1  0.500106  0.000000  0.451314  1
  O  O180  1  0.135579  0.866856  0.423123  1
  O  O181  1  0.864672  0.866769  0.423125  1
  O  O182  1  0.133029  0.864409  0.618455  1
  O  O183  1  0.866934  0.864462  0.618459  1
  O  O184  1  0.000000  0.860647  0.646303  1
  O  O185  1  -0.000000  0.860660  0.590611  1
  O  O186  1  0.140638  0.000000  0.590477  1
  O  O187  1  0.192011  0.797852  0.652980  1
  O  O188  1  0.807967  0.797901  0.652981  1
  O  O189  1  0.191982  0.797858  0.583933  1
  O  O190  1  0.807930  0.797913  0.583939  1
  O  O191  1  0.168242  0.600466  0.585054  1
  O  O192  1  0.831756  0.600528  0.585056  1
  O  O193  1  0.168243  0.600459  0.651869  1
  O  O194  1  0.831763  0.600511  0.651866  1
  O  O195  1  0.330541  0.670155  0.598814  1
  O  O196  1  0.669417  0.670143  0.598815  1
  O  O197  1  0.330549  0.670116  0.638108  1
  O  O198  1  0.669430  0.670152  0.638107  1
  O  O199  1  0.306570  0.676176  0.560205  1
  O  O200  1  0.693398  0.676191  0.560208  1
  O  O201  1  0.306583  0.676162  0.676716  1
  O  O202  1  0.693419  0.676193  0.676714  1
  O  O203  1  0.499982  0.642049  0.618462  1
  O  O204  1  0.859365  0.000000  0.646436  1
  O  O205  1  0.140667  0.000000  0.646432  1
  O  O206  1  0.859334  0.000000  0.590480  1
  O  O207  1  0.676369  0.693259  0.755537  1
  O  O208  1  0.323789  0.693259  0.755540  1
  O  O209  1  0.359387  0.640492  0.716127  1
  O  O210  1  0.640684  0.640516  0.716125  1
  O  O211  1  0.500061  0.632767  0.743054  1
  O  O212  1  0.500009  0.641285  0.688560  1
  Si  Si213  1  0.379841  0.380319  0.106509  1
  Si  Si214  1  0.620242  0.380313  0.106513  1
  Si  Si215  1  0.619554  0.379687  0.153745  1
  Si  Si216  1  0.380423  0.379685  0.153740  1
  Si  Si217  1  0.380775  0.378462  0.227790  1
  Si  Si218  1  0.619209  0.378470  0.227795  1
  Si  Si219  1  0.119119  0.499876  0.203803  1
  Si  Si220  1  0.119126  0.499867  0.251791  1
  Si  Si221  1  0.880869  0.499924  0.203802  1
  Si  Si222  1  0.751167  0.309710  0.190722  1
  Si  Si223  1  0.248823  0.309676  0.190717  1
  Si  Si224  1  0.751185  0.309685  0.264866  1
  Si  Si225  1  0.248848  0.309662  0.264867  1
  Si  Si226  1  0.880396  0.119450  0.251535  1
  Si  Si227  1  0.119667  0.119412  0.251531  1
  Si  Si228  1  0.880371  0.119464  0.204052  1
  Si  Si229  1  0.119643  0.119422  0.204050  1
  Si  Si230  1  0.880876  0.499914  0.251790  1
  Si  Si231  1  0.620272  0.380283  0.349075  1
  Si  Si232  1  0.500060  0.118979  0.399136  1
  Si  Si233  1  0.309857  0.248686  0.386053  1
  Si  Si234  1  0.690270  0.248674  0.386051  1
  Si  Si235  1  0.119588  0.119522  0.399381  1
  Si  Si236  1  0.880498  0.119453  0.399383  1
  Si  Si237  1  0.619596  0.379677  0.301844  1
  Si  Si238  1  0.380464  0.379657  0.301843  1
  Si  Si239  1  0.379868  0.380268  0.349074  1
  Si  Si240  1  0.380425  0.620089  0.153744  1
  Si  Si241  1  0.379849  0.619452  0.106513  1
  Si  Si242  1  0.619557  0.620091  0.153747  1
  Si  Si243  1  0.620252  0.619448  0.106516  1
  Si  Si244  1  0.619200  0.621338  0.227799  1
  Si  Si245  1  0.380766  0.621329  0.227795  1
  Si  Si246  1  0.248815  0.690091  0.190721  1
  Si  Si247  1  0.751143  0.690123  0.190724  1
  Si  Si248  1  0.248825  0.690079  0.264873  1
  Si  Si249  1  0.751165  0.690120  0.264870  1
  Si  Si250  1  0.119634  0.880318  0.251533  1
  Si  Si251  1  0.880361  0.880359  0.251535  1
  Si  Si252  1  0.119607  0.880329  0.204051  1
  Si  Si253  1  0.880334  0.880372  0.204054  1
  Si  Si254  1  0.379860  0.619401  0.349078  1
  Si  Si255  1  0.620263  0.619416  0.349077  1
  Si  Si256  1  0.500133  0.880727  0.399134  1
  Si  Si257  1  0.690322  0.750997  0.386054  1
  Si  Si258  1  0.309912  0.751037  0.386054  1
  Si  Si259  1  0.880576  0.880178  0.399384  1
  Si  Si260  1  0.119667  0.880248  0.399382  1
  Si  Si261  1  0.380445  0.620061  0.301847  1
  Si  Si262  1  0.619578  0.620081  0.301846  1
  Si  Si263  1  0.621527  0.380627  0.423127  1
  Si  Si264  1  0.500059  0.118991  0.447124  1
  Si  Si265  1  0.378660  0.380649  0.423123  1
  Si  Si266  1  0.309844  0.248707  0.460196  1
  Si  Si267  1  0.690272  0.248690  0.460205  1
  Si  Si268  1  0.119584  0.119539  0.446863  1
  Si  Si269  1  0.880493  0.119471  0.446865  1
  Si  Si270  1  0.379841  0.380319  0.497173  1
  Si  Si271  1  0.620242  0.380313  0.497177  1
  Si  Si272  1  0.619554  0.379687  0.544409  1
  Si  Si273  1  0.380423  0.379685  0.544404  1
  Si  Si274  1  0.380775  0.378462  0.618454  1
  Si  Si275  1  0.619209  0.378470  0.618459  1
  Si  Si276  1  0.119119  0.499876  0.594467  1
  Si  Si277  1  0.119126  0.499867  0.642455  1
  Si  Si278  1  0.880869  0.499924  0.594466  1
  Si  Si279  1  0.751167  0.309710  0.581386  1
  Si  Si280  1  0.248823  0.309676  0.581381  1
  Si  Si281  1  0.751185  0.309685  0.655529  1
  Si  Si282  1  0.248848  0.309662  0.655531  1
  Si  Si283  1  0.880396  0.119450  0.642198  1
  Si  Si284  1  0.119667  0.119412  0.642195  1
  Si  Si285  1  0.880371  0.119464  0.594716  1
  Si  Si286  1  0.119643  0.119422  0.594714  1
  Si  Si287  1  0.880876  0.499914  0.642454  1
  Si  Si288  1  0.620272  0.380283  0.739739  1
  Si  Si289  1  0.619596  0.379677  0.692508  1
  Si  Si290  1  0.380464  0.379657  0.692507  1
  Si  Si291  1  0.379868  0.380268  0.739738  1
  Si  Si292  1  0.380425  0.620089  0.544408  1
  Si  Si293  1  0.379849  0.619452  0.497177  1
  Si  Si294  1  0.500136  0.880739  0.447123  1
  Si  Si295  1  0.619557  0.620091  0.544411  1
  Si  Si296  1  0.690330  0.751014  0.460203  1
  Si  Si297  1  0.309899  0.751063  0.460199  1
  Si  Si298  1  0.880572  0.880195  0.446866  1
  Si  Si299  1  0.119662  0.880266  0.446863  1
  Si  Si300  1  0.620252  0.619448  0.497180  1
  Si  Si301  1  0.378673  0.619084  0.423129  1
  Si  Si302  1  0.621539  0.619063  0.423130  1
  Si  Si303  1  0.619200  0.621338  0.618462  1
  Si  Si304  1  0.380766  0.621329  0.618459  1
  Si  Si305  1  0.248815  0.690091  0.581385  1
  Si  Si306  1  0.751143  0.690123  0.581388  1
  Si  Si307  1  0.248825  0.690079  0.655536  1
  Si  Si308  1  0.751165  0.690120  0.655534  1
  Si  Si309  1  0.119634  0.880318  0.642196  1
  Si  Si310  1  0.880361  0.880359  0.642199  1
  Si  Si311  1  0.119607  0.880329  0.594715  1
  Si  Si312  1  0.880334  0.880372  0.594718  1
  Si  Si313  1  0.379860  0.619401  0.739742  1
  Si  Si314  1  0.620263  0.619416  0.739741  1
  Si  Si315  1  0.380445  0.620061  0.692510  1
  Si  Si316  1  0.619578  0.620081  0.692510  1
  H  H317  1  0.323752  0.306467  0.076874  1
  H  H318  1  0.676361  0.306466  0.076881  1
  H  H319  1  0.676377  0.693285  0.076883  1
  H  H320  1  0.323771  0.693308  0.076878  1
  H  H321  1  0.323791  0.306405  0.769372  1
  H  H322  1  0.676366  0.306434  0.769373  1
  H  H323  1  0.676369  0.693259  0.769375  1
  H  H324  1  0.323789  0.693259  0.769377  1
