# generated using pymatgen
data_Si55(HO28)4
_symmetry_space_group_name_H-M   'P 1'
_cell_length_a   26.79739289
_cell_length_b   12.91472158
_cell_length_c   67.78731878
_cell_angle_alpha   90.00000000
_cell_angle_beta   90.00000000
_cell_angle_gamma   90.00000000
_symmetry_Int_Tables_number   1
_chemical_formula_structural   Si55(HO28)4
_chemical_formula_sum   'Si220 H16 O448'
_cell_volume   23459.8941388
_cell_formula_units_Z   4
loop_
 _symmetry_equiv_pos_site_id
 _symmetry_equiv_pos_as_xyz
  1  'x, y, z'
loop_
 _atom_site_type_symbol
 _atom_site_label
 _atom_site_symmetry_multiplicity
 _atom_site_fract_x
 _atom_site_fract_y
 _atom_site_fract_z
 _atom_site_occupancy
  O  O1  1  0.171724  0.500053  0.201571  1
  O  O2  1  0.068335  -0.000000  0.160700  1
  O  O3  1  0.238131  0.641926  0.201716  1
  O  O4  1  0.067961  0.858162  0.134444  1
  O  O5  1  0.238139  0.358148  0.201715  1
  O  O6  1  0.067960  0.141927  0.134446  1
  O  O7  1  0.141931  0.692338  0.195289  1
  O  O8  1  0.084214  0.807742  0.172478  1
  O  O9  1  0.141925  0.307726  0.195293  1
  O  O10  1  0.084223  0.192347  0.172478  1
  O  O11  1  0.091915  0.826879  0.095645  1
  O  O12  1  0.091914  0.173221  0.095647  1
  O  O13  1  0.301754  0.500060  0.203156  1
  O  O14  1  0.064335  0.000000  0.109294  1
  O  O15  1  0.047822  0.669080  0.196410  1
  O  O16  1  0.081400  0.831009  0.209677  1
  O  O17  1  0.047819  0.331024  0.196407  1
  O  O18  1  0.081397  0.169065  0.209678  1
  O  O19  1  0.568327  0.500055  0.098818  1
  O  O20  1  0.431628  0.500048  0.098813  1
  O  O21  1  0.663692  0.326880  0.192250  1
  O  O22  1  0.499984  0.631494  0.099371  1
  O  O23  1  0.499986  0.368613  0.099373  1
  O  O24  1  0.567960  0.641936  0.125072  1
  O  O25  1  0.432048  0.358153  0.125072  1
  O  O26  1  0.567966  0.358163  0.125074  1
  O  O27  1  0.432050  0.641936  0.125071  1
  O  O28  1  0.584209  0.692352  0.087038  1
  O  O29  1  0.415755  0.307740  0.087039  1
  O  O30  1  0.584209  0.307755  0.087039  1
  O  O31  1  0.415754  0.692352  0.087037  1
  O  O32  1  0.591908  0.673224  0.163869  1
  O  O33  1  0.408055  0.326877  0.163869  1
  O  O34  1  0.591910  0.326887  0.163871  1
  O  O35  1  0.408058  0.673220  0.163870  1
  O  O36  1  0.564329  0.500057  0.150220  1
  O  O37  1  0.435634  0.500051  0.150223  1
  O  O38  1  0.499990  0.640966  0.151285  1
  O  O39  1  0.499991  0.359128  0.151287  1
  O  O40  1  0.432226  -0.000000  0.201798  1
  O  O41  1  0.567754  -0.000000  0.201798  1
  O  O42  1  0.336288  0.673212  0.192253  1
  O  O43  1  0.499993  0.863371  0.202403  1
  O  O44  1  0.663690  0.673210  0.192247  1
  O  O45  1  0.499989  0.136730  0.202402  1
  O  O46  1  0.411607  0.799751  0.193650  1
  O  O47  1  0.588377  0.799770  0.193648  1
  O  O48  1  0.588370  0.200333  0.193646  1
  O  O49  1  0.411603  0.200322  0.193650  1
  O  O50  1  0.421072  0.602930  0.197394  1
  O  O51  1  0.578903  0.602942  0.197390  1
  O  O52  1  0.578906  0.397163  0.197392  1
  O  O53  1  0.421074  0.397158  0.197394  1
  O  O54  1  0.336294  0.326848  0.192247  1
  O  O55  1  0.499991  0.500037  0.202336  1
  O  O56  1  0.931643  -0.000000  0.160697  1
  O  O57  1  0.828252  0.500038  0.201567  1
  O  O58  1  0.932018  0.141939  0.134444  1
  O  O59  1  0.761848  0.358167  0.201720  1
  O  O60  1  0.932013  0.858160  0.134442  1
  O  O61  1  0.761839  0.641923  0.201716  1
  O  O62  1  0.915759  0.192357  0.172477  1
  O  O63  1  0.858053  0.307741  0.195288  1
  O  O64  1  0.915757  0.807740  0.172477  1
  O  O65  1  0.858055  0.692353  0.195289  1
  O  O66  1  0.908062  0.173225  0.095644  1
  O  O67  1  0.908056  0.826886  0.095646  1
  O  O68  1  0.935641  -0.000000  0.109292  1
  O  O69  1  0.698226  0.500043  0.203152  1
  O  O70  1  -0.000000  0.859133  0.108231  1
  O  O71  1  0.918587  0.169079  0.209677  1
  O  O72  1  0.952158  0.331013  0.196406  1
  O  O73  1  0.918581  0.831010  0.209678  1
  O  O74  1  0.952155  0.669080  0.196407  1
  O  O75  1  -0.000000  0.140969  0.108233  1
  O  O76  1  -0.000000  0.500045  0.201463  1
  O  O77  1  0.000000  0.131485  0.160159  1
  O  O78  1  -0.000000  0.868606  0.160160  1
  O  O79  1  0.068343  0.000000  0.296469  1
  O  O80  1  0.328267  0.000000  0.399218  1
  O  O81  1  0.171713  0.499984  0.255610  1
  O  O82  1  0.173029  0.368628  0.228580  1
  O  O83  1  0.067966  0.141940  0.322729  1
  O  O84  1  0.261829  0.858169  0.399363  1
  O  O85  1  0.238143  0.358171  0.255482  1
  O  O86  1  0.067925  0.858152  0.322724  1
  O  O87  1  0.238108  0.641940  0.255409  1
  O  O88  1  0.261829  0.141963  0.399364  1
  O  O89  1  0.084219  0.192368  0.284692  1
  O  O90  1  0.141933  0.307788  0.261883  1
  O  O91  1  0.084226  0.807739  0.284697  1
  O  O92  1  0.141918  0.692390  0.261890  1
  O  O93  1  0.091917  0.173239  0.361528  1
  O  O94  1  0.163692  0.826889  0.389904  1
  O  O95  1  0.091913  0.826879  0.361527  1
  O  O96  1  0.163697  0.173236  0.389903  1
  O  O97  1  0.064339  -0.000000  0.347877  1
  O  O98  1  0.198218  -0.000000  0.400804  1
  O  O99  1  0.301754  0.500063  0.254027  1
  O  O100  1  0.068605  0.000000  0.228588  1
  O  O101  1  0.067747  0.500055  0.399458  1
  O  O102  1  0.088372  0.299784  0.391301  1
  O  O103  1  0.088375  0.700331  0.391302  1
  O  O104  1  0.078900  0.102941  0.395047  1
  O  O105  1  0.078896  0.897165  0.395047  1
  O  O106  1  0.081395  0.169088  0.247497  1
  O  O107  1  0.047822  0.331010  0.260767  1
  O  O108  1  0.081394  0.831021  0.247492  1
  O  O109  1  0.047812  0.669063  0.260766  1
  O  O110  1  0.304450  0.359133  0.228586  1
  O  O111  1  0.304430  0.640966  0.228588  1
  O  O112  1  0.173185  0.631516  0.228596  1
  O  O113  1  0.431634  0.500056  0.358356  1
  O  O114  1  0.568340  0.500067  0.358356  1
  O  O115  1  0.499986  0.631518  0.357814  1
  O  O116  1  0.566223  0.136738  0.228583  1
  O  O117  1  0.499990  0.368612  0.357819  1
  O  O118  1  0.432011  0.641955  0.332099  1
  O  O119  1  0.567967  0.358174  0.332099  1
  O  O120  1  0.432014  0.358170  0.332099  1
  O  O121  1  0.567960  0.641967  0.332098  1
  O  O122  1  0.641920  0.192393  0.392935  1
  O  O123  1  0.415747  0.692369  0.370130  1
  O  O124  1  0.358048  0.807763  0.392940  1
  O  O125  1  0.584225  0.307765  0.370127  1
  O  O126  1  0.641931  0.807797  0.392943  1
  O  O127  1  0.415756  0.307759  0.370131  1
  O  O128  1  0.358047  0.192363  0.392940  1
  O  O129  1  0.584219  0.692391  0.370133  1
  O  O130  1  0.408066  0.673231  0.293299  1
  O  O131  1  0.591910  0.326892  0.293299  1
  O  O132  1  0.408066  0.326877  0.293302  1
  O  O133  1  0.591915  0.673241  0.293296  1
  O  O134  1  0.435644  0.500051  0.306951  1
  O  O135  1  0.564335  0.500059  0.306947  1
  O  O136  1  0.499988  0.640983  0.305888  1
  O  O137  1  0.499993  0.359150  0.305890  1
  O  O138  1  0.567753  -0.000000  0.255374  1
  O  O139  1  0.432227  -0.000000  0.255374  1
  O  O140  1  0.499994  0.863387  0.254772  1
  O  O141  1  0.499989  0.136732  0.254769  1
  O  O142  1  0.588375  0.799796  0.263526  1
  O  O143  1  0.411613  0.799793  0.263527  1
  O  O144  1  0.411604  0.200320  0.263525  1
  O  O145  1  0.588363  0.200342  0.263525  1
  O  O146  1  0.578899  0.602949  0.259781  1
  O  O147  1  0.421080  0.602934  0.259781  1
  O  O148  1  0.421078  0.397175  0.259782  1
  O  O149  1  0.578899  0.397189  0.259783  1
  O  O150  1  0.547817  0.169074  0.394057  1
  O  O151  1  0.418580  0.669079  0.407334  1
  O  O152  1  0.452155  0.831045  0.394057  1
  O  O153  1  0.581398  0.331027  0.407336  1
  O  O154  1  0.547821  0.831034  0.394059  1
  O  O155  1  0.418582  0.331034  0.407335  1
  O  O156  1  0.452155  0.169079  0.394059  1
  O  O157  1  0.581395  0.669090  0.407330  1
  O  O158  1  0.433588  0.500039  0.228585  1
  O  O159  1  0.499992  0.500067  0.254836  1
  O  O160  1  0.336266  0.673233  0.264927  1
  O  O161  1  0.499983  0.000000  0.399114  1
  O  O162  1  0.663701  0.673229  0.264924  1
  O  O163  1  0.663693  0.326895  0.264925  1
  O  O164  1  0.336284  0.326881  0.264929  1
  O  O165  1  0.566393  0.500058  0.228584  1
  O  O166  1  0.566230  0.863384  0.228584  1
  O  O167  1  0.433759  0.863377  0.228584  1
  O  O168  1  0.433752  0.136725  0.228584  1
  O  O169  1  0.828264  0.500060  0.255608  1
  O  O170  1  0.671711  -0.000000  0.399215  1
  O  O171  1  0.931642  0.000000  0.296471  1
  O  O172  1  0.826843  0.368602  0.228588  1
  O  O173  1  0.761830  0.641949  0.255462  1
  O  O174  1  0.738104  0.141943  0.399421  1
  O  O175  1  0.932014  0.858168  0.322729  1
  O  O176  1  0.738148  0.858174  0.399345  1
  O  O177  1  0.761862  0.358177  0.255431  1
  O  O178  1  0.932014  0.141936  0.322727  1
  O  O179  1  0.858050  0.692350  0.261884  1
  O  O180  1  0.915763  0.807759  0.284696  1
  O  O181  1  0.858052  0.307737  0.261889  1
  O  O182  1  0.915752  0.192360  0.284697  1
  O  O183  1  0.826918  0.631481  0.228578  1
  O  O184  1  0.836272  0.173236  0.389898  1
  O  O185  1  0.908071  0.826882  0.361525  1
  O  O186  1  0.836287  0.826883  0.389899  1
  O  O187  1  0.908070  0.173235  0.361526  1
  O  O188  1  0.698211  0.500050  0.254024  1
  O  O189  1  0.801757  -0.000000  0.400798  1
  O  O190  1  0.935644  -0.000000  0.347876  1
  O  O191  1  -0.000000  -0.000000  0.399992  1
  O  O192  1  0.932232  0.500067  0.399458  1
  O  O193  1  -0.000000  0.868590  0.297024  1
  O  O194  1  -0.000000  0.859137  0.348939  1
  O  O195  1  0.911610  0.299780  0.391303  1
  O  O196  1  0.911609  0.700341  0.391305  1
  O  O197  1  0.921079  0.102943  0.395046  1
  O  O198  1  0.921074  0.897176  0.395046  1
  O  O199  1  0.952153  0.669075  0.260768  1
  O  O200  1  0.918587  0.831018  0.247493  1
  O  O201  1  0.952156  0.331030  0.260766  1
  O  O202  1  0.918580  0.169085  0.247493  1
  O  O203  1  -0.000000  0.500046  0.255711  1
  O  O204  1  0.000000  0.368545  0.228587  1
  O  O205  1  0.695543  0.640968  0.228580  1
  O  O206  1  -0.000000  0.631554  0.228586  1
  O  O207  1  -0.000000  0.131489  0.297010  1
  O  O208  1  0.695550  0.359136  0.228586  1
  O  O209  1  0.931380  -0.000000  0.228588  1
  O  O210  1  -0.000000  0.363392  0.400063  1
  O  O211  1  -0.000000  0.868546  0.228586  1
  O  O212  1  0.000000  0.636725  0.400059  1
  O  O213  1  -0.000000  0.131546  0.228589  1
  O  O214  1  0.000000  0.140964  0.348938  1
  O  O215  1  0.328255  -0.000000  0.453260  1
  O  O216  1  0.171724  0.500053  0.596881  1
  O  O217  1  0.068335  -0.000000  0.556010  1
  O  O218  1  0.261844  0.141945  0.453112  1
  O  O219  1  0.238131  0.641926  0.597026  1
  O  O220  1  0.067961  0.858162  0.529754  1
  O  O221  1  0.238139  0.358148  0.597025  1
  O  O222  1  0.261841  0.858172  0.453112  1
  O  O223  1  0.067960  0.141927  0.529756  1
  O  O224  1  0.141931  0.692338  0.590599  1
  O  O225  1  0.084214  0.807742  0.567788  1
  O  O226  1  0.141925  0.307726  0.590603  1
  O  O227  1  0.084223  0.192347  0.567788  1
  O  O228  1  0.163696  0.173228  0.462579  1
  O  O229  1  0.091915  0.826879  0.490955  1
  O  O230  1  0.163696  0.826890  0.462579  1
  O  O231  1  0.091914  0.173221  0.490957  1
  O  O232  1  0.198223  -0.000000  0.451678  1
  O  O233  1  0.301754  0.500060  0.598466  1
  O  O234  1  0.064335  0.000000  0.504604  1
  O  O235  1  0.067745  0.500055  0.453028  1
  O  O236  1  0.088370  0.299772  0.461181  1
  O  O237  1  0.088375  0.700334  0.461180  1
  O  O238  1  0.078903  0.102942  0.457436  1
  O  O239  1  0.078902  0.897164  0.457437  1
  O  O240  1  0.047822  0.669080  0.591720  1
  O  O241  1  0.081400  0.831009  0.604987  1
  O  O242  1  0.047819  0.331024  0.591716  1
  O  O243  1  0.081397  0.169065  0.604988  1
  O  O244  1  0.066390  -0.000000  0.426242  1
  O  O245  1  0.326920  0.868624  0.426248  1
  O  O246  1  0.326917  0.131500  0.426248  1
  O  O247  1  0.066219  0.363383  0.426243  1
  O  O248  1  0.195542  0.140984  0.426244  1
  O  O249  1  0.195541  0.859147  0.426244  1
  O  O250  1  0.066223  0.636718  0.426244  1
  O  O251  1  0.568327  0.500055  0.494127  1
  O  O252  1  0.431628  0.500048  0.494123  1
  O  O253  1  0.663692  0.326880  0.587560  1
  O  O254  1  0.499990  0.368561  0.426237  1
  O  O255  1  0.499984  0.631494  0.494680  1
  O  O256  1  0.499986  0.368613  0.494683  1
  O  O257  1  0.567960  0.641936  0.520382  1
  O  O258  1  0.432048  0.358153  0.520382  1
  O  O259  1  0.567966  0.358163  0.520384  1
  O  O260  1  0.432050  0.641936  0.520381  1
  O  O261  1  0.358052  0.192367  0.459538  1
  O  O262  1  0.584209  0.692352  0.482348  1
  O  O263  1  0.641919  0.807734  0.459533  1
  O  O264  1  0.415755  0.307740  0.482349  1
  O  O265  1  0.358049  0.807748  0.459537  1
  O  O266  1  0.584209  0.307755  0.482349  1
  O  O267  1  0.641923  0.192364  0.459535  1
  O  O268  1  0.415754  0.692352  0.482347  1
  O  O269  1  0.591908  0.673224  0.559179  1
  O  O270  1  0.408055  0.326877  0.559178  1
  O  O271  1  0.591910  0.326887  0.559180  1
  O  O272  1  0.408058  0.673220  0.559180  1
  O  O273  1  0.564329  0.500057  0.545530  1
  O  O274  1  0.435634  0.500051  0.545533  1
  O  O275  1  0.499990  0.640966  0.546595  1
  O  O276  1  0.499991  0.359128  0.546597  1
  O  O277  1  0.432226  0.000000  0.597108  1
  O  O278  1  0.567754  0.000000  0.597108  1
  O  O279  1  0.336288  0.673212  0.587562  1
  O  O280  1  0.499993  0.863371  0.597713  1
  O  O281  1  0.663690  0.673210  0.587557  1
  O  O282  1  0.499989  0.136730  0.597712  1
  O  O283  1  0.411607  0.799751  0.588960  1
  O  O284  1  0.588377  0.799770  0.588958  1
  O  O285  1  0.588370  0.200333  0.588956  1
  O  O286  1  0.411603  0.200322  0.588960  1
  O  O287  1  0.421072  0.602930  0.592704  1
  O  O288  1  0.578903  0.602942  0.592700  1
  O  O289  1  0.578906  0.397163  0.592702  1
  O  O290  1  0.421074  0.397158  0.592704  1
  O  O291  1  0.452159  0.169071  0.458419  1
  O  O292  1  0.581397  0.669077  0.445149  1
  O  O293  1  0.547820  0.831023  0.458420  1
  O  O294  1  0.418581  0.331039  0.445150  1
  O  O295  1  0.452160  0.831021  0.458421  1
  O  O296  1  0.581401  0.331028  0.445151  1
  O  O297  1  0.547826  0.169081  0.458419  1
  O  O298  1  0.418584  0.669079  0.445150  1
  O  O299  1  0.336294  0.326848  0.587557  1
  O  O300  1  0.499991  0.500037  0.597646  1
  O  O301  1  0.499988  0.631560  0.426240  1
  O  O302  1  0.431374  0.500055  0.426239  1
  O  O303  1  0.568608  0.500055  0.426239  1
  O  O304  1  0.499988  0.000000  0.453363  1
  O  O305  1  0.499990  0.131558  0.426241  1
  O  O306  1  0.499982  0.868551  0.426241  1
  O  O307  1  0.931643  -0.000000  0.556007  1
  O  O308  1  0.828252  0.500038  0.596876  1
  O  O309  1  0.671728  -0.000000  0.453253  1
  O  O310  1  0.673206  0.131526  0.426231  1
  O  O311  1  0.932018  0.141939  0.529754  1
  O  O312  1  0.761848  0.358167  0.597030  1
  O  O313  1  0.738134  0.858163  0.453112  1
  O  O314  1  0.932013  0.858160  0.529752  1
  O  O315  1  0.738128  0.141942  0.453108  1
  O  O316  1  0.761839  0.641923  0.597026  1
  O  O317  1  0.915759  0.192357  0.567787  1
  O  O318  1  0.858053  0.307741  0.590598  1
  O  O319  1  0.915757  0.807740  0.567787  1
  O  O320  1  0.858055  0.692353  0.590598  1
  O  O321  1  0.908062  0.173225  0.490954  1
  O  O322  1  0.933585  -0.000000  0.426241  1
  O  O323  1  0.836289  0.826869  0.462579  1
  O  O324  1  0.908056  0.826886  0.490955  1
  O  O325  1  0.836278  0.173222  0.462573  1
  O  O326  1  0.933756  0.636730  0.426242  1
  O  O327  1  0.935641  0.000000  0.504602  1
  O  O328  1  0.698226  0.500043  0.598462  1
  O  O329  1  0.801752  -0.000000  0.451670  1
  O  O330  1  0.804437  0.140975  0.426238  1
  O  O331  1  -0.000000  0.859133  0.503541  1
  O  O332  1  0.932227  0.500060  0.453030  1
  O  O333  1  0.933759  0.363390  0.426242  1
  O  O334  1  -0.000000  0.636728  0.452426  1
  O  O335  1  0.911602  0.299783  0.461181  1
  O  O336  1  0.911602  0.700322  0.461178  1
  O  O337  1  0.921075  0.102945  0.457435  1
  O  O338  1  0.921072  0.897177  0.457434  1
  O  O339  1  0.918587  0.169079  0.604987  1
  O  O340  1  0.952158  0.331013  0.591716  1
  O  O341  1  0.918581  0.831010  0.604988  1
  O  O342  1  0.952155  0.669080  0.591717  1
  O  O343  1  -0.000000  0.140969  0.503543  1
  O  O344  1  -0.000000  0.500045  0.596773  1
  O  O345  1  -0.000000  0.363383  0.452425  1
  O  O346  1  0.000000  0.000000  0.452492  1
  O  O347  1  -0.000000  0.131485  0.555469  1
  O  O348  1  0.000000  0.868606  0.555470  1
  O  O349  1  0.673031  0.868645  0.426249  1
  O  O350  1  0.804451  0.859143  0.426242  1
  O  O351  1  0.068343  0.000000  0.691778  1
  O  O352  1  0.171713  0.499984  0.650920  1
  O  O353  1  0.173029  0.368628  0.623889  1
  O  O354  1  0.067966  0.141940  0.718038  1
  O  O355  1  0.238143  0.358171  0.650792  1
  O  O356  1  0.067925  0.858152  0.718034  1
  O  O357  1  0.238108  0.641940  0.650719  1
  O  O358  1  0.084219  0.192368  0.680002  1
  O  O359  1  0.141933  0.307788  0.657193  1
  O  O360  1  0.084226  0.807739  0.680007  1
  O  O361  1  0.141918  0.692390  0.657200  1
  O  O362  1  0.091917  0.173239  0.756838  1
  O  O363  1  0.091913  0.826879  0.756837  1
  O  O364  1  0.064339  -0.000000  0.743187  1
  O  O365  1  0.301754  0.500063  0.649337  1
  O  O366  1  0.068605  0.000000  0.623898  1
  O  O367  1  0.081395  0.169088  0.642807  1
  O  O368  1  0.047822  0.331010  0.656077  1
  O  O369  1  0.081394  0.831021  0.642802  1
  O  O370  1  0.047812  0.669063  0.656076  1
  O  O371  1  0.304450  0.359133  0.623895  1
  O  O372  1  0.304430  0.640966  0.623898  1
  O  O373  1  0.173185  0.631516  0.623906  1
  O  O374  1  0.431634  0.500056  0.753666  1
  O  O375  1  0.568340  0.500067  0.753666  1
  O  O376  1  0.499986  0.631518  0.753124  1
  O  O377  1  0.566223  0.136738  0.623893  1
  O  O378  1  0.499990  0.368612  0.753129  1
  O  O379  1  0.432011  0.641955  0.727409  1
  O  O380  1  0.567967  0.358174  0.727409  1
  O  O381  1  0.432014  0.358170  0.727409  1
  O  O382  1  0.567960  0.641967  0.727408  1
  O  O383  1  0.415747  0.692369  0.765440  1
  O  O384  1  0.584225  0.307765  0.765437  1
  O  O385  1  0.415756  0.307759  0.765441  1
  O  O386  1  0.584219  0.692391  0.765443  1
  O  O387  1  0.408066  0.673231  0.688609  1
  O  O388  1  0.591910  0.326892  0.688609  1
  O  O389  1  0.408066  0.326877  0.688612  1
  O  O390  1  0.591915  0.673241  0.688606  1
  O  O391  1  0.435644  0.500051  0.702261  1
  O  O392  1  0.564335  0.500059  0.702257  1
  O  O393  1  0.499988  0.640983  0.701197  1
  O  O394  1  0.499993  0.359150  0.701200  1
  O  O395  1  0.567753  -0.000000  0.650684  1
  O  O396  1  0.432227  -0.000000  0.650684  1
  O  O397  1  0.499994  0.863387  0.650082  1
  O  O398  1  0.499989  0.136732  0.650079  1
  O  O399  1  0.588375  0.799796  0.658836  1
  O  O400  1  0.411613  0.799793  0.658837  1
  O  O401  1  0.411604  0.200320  0.658834  1
  O  O402  1  0.588363  0.200342  0.658834  1
  O  O403  1  0.578899  0.602949  0.655091  1
  O  O404  1  0.421080  0.602934  0.655091  1
  O  O405  1  0.421078  0.397175  0.655092  1
  O  O406  1  0.578899  0.397189  0.655093  1
  O  O407  1  0.433588  0.500039  0.623895  1
  O  O408  1  0.499992  0.500067  0.650146  1
  O  O409  1  0.336266  0.673233  0.660237  1
  O  O410  1  0.663701  0.673229  0.660234  1
  O  O411  1  0.663693  0.326895  0.660235  1
  O  O412  1  0.336284  0.326881  0.660239  1
  O  O413  1  0.566393  0.500058  0.623893  1
  O  O414  1  0.566230  0.863384  0.623893  1
  O  O415  1  0.433759  0.863377  0.623894  1
  O  O416  1  0.433752  0.136725  0.623894  1
  O  O417  1  0.828264  0.500060  0.650918  1
  O  O418  1  0.931642  -0.000000  0.691781  1
  O  O419  1  0.826843  0.368602  0.623898  1
  O  O420  1  0.761830  0.641949  0.650772  1
  O  O421  1  0.932014  0.858168  0.718038  1
  O  O422  1  0.761862  0.358177  0.650741  1
  O  O423  1  0.932014  0.141936  0.718037  1
  O  O424  1  0.858050  0.692350  0.657194  1
  O  O425  1  0.915763  0.807759  0.680006  1
  O  O426  1  0.858052  0.307737  0.657199  1
  O  O427  1  0.915752  0.192360  0.680007  1
  O  O428  1  0.826918  0.631481  0.623888  1
  O  O429  1  0.908071  0.826882  0.756835  1
  O  O430  1  0.908070  0.173235  0.756836  1
  O  O431  1  0.698211  0.500050  0.649334  1
  O  O432  1  0.935644  -0.000000  0.743186  1
  O  O433  1  -0.000000  0.868590  0.692334  1
  O  O434  1  -0.000000  0.859137  0.744249  1
  O  O435  1  0.952153  0.669075  0.656078  1
  O  O436  1  0.918587  0.831018  0.642803  1
  O  O437  1  0.952156  0.331030  0.656076  1
  O  O438  1  0.918580  0.169085  0.642803  1
  O  O439  1  0.000000  0.500046  0.651021  1
  O  O440  1  -0.000000  0.368545  0.623897  1
  O  O441  1  0.695543  0.640968  0.623890  1
  O  O442  1  -0.000000  0.631554  0.623896  1
  O  O443  1  -0.000000  0.131489  0.692320  1
  O  O444  1  0.695550  0.359136  0.623895  1
  O  O445  1  0.931380  -0.000000  0.623897  1
  O  O446  1  -0.000000  0.868546  0.623896  1
  O  O447  1  -0.000000  0.131546  0.623899  1
  O  O448  1  0.000000  0.140964  0.744248  1
  Si  Si449  1  0.057496  0.119809  0.111807  1
  Si  Si450  1  0.090469  0.250049  0.192818  1
  Si  Si451  1  0.090475  0.750039  0.192816  1
  Si  Si452  1  0.295410  0.380286  0.205850  1
  Si  Si453  1  0.057495  0.880280  0.111805  1
  Si  Si454  1  0.180844  0.619193  0.205752  1
  Si  Si455  1  0.057761  0.880895  0.157093  1
  Si  Si456  1  0.180842  0.380901  0.205742  1
  Si  Si457  1  0.057764  0.119191  0.157095  1
  Si  Si458  1  0.295397  0.619824  0.205854  1
  Si  Si459  1  0.442536  0.500044  0.205873  1
  Si  Si460  1  0.557446  0.500048  0.205871  1
  Si  Si461  1  0.557761  0.619202  0.102424  1
  Si  Si462  1  0.442204  0.380895  0.102424  1
  Si  Si463  1  0.557765  0.380908  0.102426  1
  Si  Si464  1  0.442204  0.619203  0.102422  1
  Si  Si465  1  0.557495  0.619826  0.147710  1
  Si  Si466  1  0.442486  0.380286  0.147711  1
  Si  Si467  1  0.557496  0.380285  0.147711  1
  Si  Si468  1  0.442485  0.619812  0.147711  1
  Si  Si469  1  0.442485  0.880904  0.205850  1
  Si  Si470  1  0.557500  0.880917  0.205850  1
  Si  Si471  1  0.557496  0.119189  0.205850  1
  Si  Si472  1  0.442482  0.119180  0.205852  1
  Si  Si473  1  0.392829  0.691155  0.186226  1
  Si  Si474  1  0.607148  0.691169  0.186223  1
  Si  Si475  1  0.607149  0.308933  0.186224  1
  Si  Si476  1  0.392839  0.308922  0.186225  1
  Si  Si477  1  0.942209  0.119192  0.157093  1
  Si  Si478  1  0.819140  0.380896  0.205748  1
  Si  Si479  1  0.942208  0.880896  0.157092  1
  Si  Si480  1  0.819134  0.619187  0.205736  1
  Si  Si481  1  0.942481  0.119813  0.111804  1
  Si  Si482  1  0.704580  0.380275  0.205852  1
  Si  Si483  1  0.942479  0.880285  0.111805  1
  Si  Si484  1  0.704574  0.619811  0.205848  1
  Si  Si485  1  0.909507  0.250047  0.192817  1
  Si  Si486  1  0.909505  0.750047  0.192817  1
  Si  Si487  1  -0.000000  0.381265  0.205537  1
  Si  Si488  1  -0.000000  0.618831  0.205535  1
  Si  Si489  1  0.090488  0.250071  0.264354  1
  Si  Si490  1  0.057494  0.380915  0.403510  1
  Si  Si491  1  0.058296  0.881267  0.228584  1
  Si  Si492  1  0.057446  -0.000000  0.403530  1
  Si  Si493  1  0.090456  0.750055  0.264355  1
  Si  Si494  1  0.107149  0.191175  0.383882  1
  Si  Si495  1  0.057496  0.619199  0.403510  1
  Si  Si496  1  0.107147  0.808942  0.383880  1
  Si  Si497  1  0.057764  0.119217  0.300077  1
  Si  Si498  1  0.319128  0.880904  0.403407  1
  Si  Si499  1  0.180855  0.380863  0.251421  1
  Si  Si500  1  0.057775  0.880910  0.300077  1
  Si  Si501  1  0.180813  0.619138  0.251436  1
  Si  Si502  1  0.319129  0.119215  0.403407  1
  Si  Si503  1  0.057499  0.119817  0.345369  1
  Si  Si504  1  0.204566  0.880302  0.403510  1
  Si  Si505  1  0.295408  0.380297  0.251322  1
  Si  Si506  1  0.057498  0.880283  0.345365  1
  Si  Si507  1  0.295381  0.619820  0.251319  1
  Si  Si508  1  0.204567  0.119817  0.403511  1
  Si  Si509  1  0.058297  0.118836  0.228589  1
  Si  Si510  1  0.442536  0.500054  0.251298  1
  Si  Si511  1  0.557447  0.500067  0.251297  1
  Si  Si512  1  0.442208  0.619205  0.354749  1
  Si  Si513  1  0.557766  0.380923  0.354747  1
  Si  Si514  1  0.442212  0.380913  0.354748  1
  Si  Si515  1  0.557763  0.619217  0.354749  1
  Si  Si516  1  0.442480  0.619815  0.309461  1
  Si  Si517  1  0.557502  0.380296  0.309461  1
  Si  Si518  1  0.442484  0.380290  0.309461  1
  Si  Si519  1  0.557498  0.619826  0.309458  1
  Si  Si520  1  0.499989  0.881275  0.403190  1
  Si  Si521  1  0.499984  0.118838  0.403190  1
  Si  Si522  1  0.557501  0.880927  0.251317  1
  Si  Si523  1  0.442487  0.880926  0.251317  1
  Si  Si524  1  0.442483  0.119198  0.251317  1
  Si  Si525  1  0.557495  0.119203  0.251317  1
  Si  Si526  1  0.607151  0.691183  0.270944  1
  Si  Si527  1  0.392830  0.691168  0.270943  1
  Si  Si528  1  0.392835  0.308931  0.270947  1
  Si  Si529  1  0.607145  0.308946  0.270946  1
  Si  Si530  1  0.590459  0.250076  0.390469  1
  Si  Si531  1  0.409504  0.750059  0.390474  1
  Si  Si532  1  0.590483  0.750082  0.390473  1
  Si  Si533  1  0.409506  0.250061  0.390473  1
  Si  Si534  1  0.942481  0.380929  0.403509  1
  Si  Si535  1  0.892836  0.808937  0.383878  1
  Si  Si536  1  0.941683  0.118830  0.228586  1
  Si  Si537  1  0.942536  -0.000000  0.403528  1
  Si  Si538  1  0.892832  0.191172  0.383881  1
  Si  Si539  1  0.909508  0.250049  0.264356  1
  Si  Si540  1  0.909505  0.750054  0.264356  1
  Si  Si541  1  0.942484  0.619202  0.403509  1
  Si  Si542  1  0.819130  0.619209  0.251418  1
  Si  Si543  1  0.680814  0.119151  0.403386  1
  Si  Si544  1  0.942216  0.880903  0.300080  1
  Si  Si545  1  0.680857  0.880869  0.403408  1
  Si  Si546  1  0.819150  0.380911  0.251430  1
  Si  Si547  1  0.942208  0.119194  0.300078  1
  Si  Si548  1  0.704566  0.619809  0.251314  1
  Si  Si549  1  0.795381  0.119822  0.403509  1
  Si  Si550  1  0.942484  0.880282  0.345367  1
  Si  Si551  1  0.795410  0.880296  0.403506  1
  Si  Si552  1  0.704585  0.380294  0.251319  1
  Si  Si553  1  0.942481  0.119820  0.345366  1
  Si  Si554  1  0.941681  0.881262  0.228584  1
  Si  Si555  1  0.000000  0.381264  0.251637  1
  Si  Si556  1  -0.000000  0.618825  0.251636  1
  Si  Si557  1  0.057445  -0.000000  0.448955  1
  Si  Si558  1  0.057497  0.619191  0.448977  1
  Si  Si559  1  0.057496  0.119809  0.507117  1
  Si  Si560  1  0.057496  0.380919  0.448977  1
  Si  Si561  1  0.090469  0.250049  0.588128  1
  Si  Si562  1  0.204577  0.880286  0.448976  1
  Si  Si563  1  0.090475  0.750039  0.588126  1
  Si  Si564  1  0.295410  0.380286  0.601160  1
  Si  Si565  1  0.057495  0.880280  0.507115  1
  Si  Si566  1  0.107152  0.808935  0.468602  1
  Si  Si567  1  0.107149  0.191168  0.468603  1
  Si  Si568  1  0.319137  0.119199  0.449090  1
  Si  Si569  1  0.180844  0.619193  0.601062  1
  Si  Si570  1  0.057761  0.880895  0.552403  1
  Si  Si571  1  0.180842  0.380901  0.601052  1
  Si  Si572  1  0.319134  0.880915  0.449089  1
  Si  Si573  1  0.057764  0.119191  0.552404  1
  Si  Si574  1  0.204579  0.119830  0.448977  1
  Si  Si575  1  0.295397  0.619824  0.601164  1
  Si  Si576  1  0.442536  0.500044  0.601183  1
  Si  Si577  1  0.590472  0.250055  0.462011  1
  Si  Si578  1  0.557446  0.500048  0.601181  1
  Si  Si579  1  0.557761  0.619202  0.497734  1
  Si  Si580  1  0.442204  0.380895  0.497733  1
  Si  Si581  1  0.557765  0.380908  0.497735  1
  Si  Si582  1  0.442204  0.619203  0.497732  1
  Si  Si583  1  0.557495  0.619826  0.543020  1
  Si  Si584  1  0.442486  0.380286  0.543021  1
  Si  Si585  1  0.557496  0.380285  0.543021  1
  Si  Si586  1  0.442485  0.619812  0.543021  1
  Si  Si587  1  0.409503  0.750061  0.462008  1
  Si  Si588  1  0.590469  0.750055  0.462009  1
  Si  Si589  1  0.499988  0.881276  0.449292  1
  Si  Si590  1  0.409507  0.250045  0.462008  1
  Si  Si591  1  0.558297  0.618842  0.426239  1
  Si  Si592  1  0.499994  0.118836  0.449291  1
  Si  Si593  1  0.442485  0.880904  0.601160  1
  Si  Si594  1  0.557500  0.880917  0.601160  1
  Si  Si595  1  0.557496  0.119189  0.601160  1
  Si  Si596  1  0.442482  0.119180  0.601162  1
  Si  Si597  1  0.392829  0.691155  0.581536  1
  Si  Si598  1  0.607148  0.691169  0.581533  1
  Si  Si599  1  0.607149  0.308933  0.581534  1
  Si  Si600  1  0.392839  0.308922  0.581534  1
  Si  Si601  1  0.441682  0.381277  0.426242  1
  Si  Si602  1  0.441680  0.618837  0.426242  1
  Si  Si603  1  0.558298  0.381273  0.426243  1
  Si  Si604  1  0.942535  -0.000000  0.448954  1
  Si  Si605  1  0.942209  0.119192  0.552403  1
  Si  Si606  1  0.819140  0.380896  0.601058  1
  Si  Si607  1  0.680840  0.880914  0.449087  1
  Si  Si608  1  0.942208  0.880896  0.552402  1
  Si  Si609  1  0.680841  0.119211  0.449071  1
  Si  Si610  1  0.819134  0.619187  0.601046  1
  Si  Si611  1  0.942481  0.119813  0.507114  1
  Si  Si612  1  0.704580  0.380275  0.601162  1
  Si  Si613  1  0.795405  0.880304  0.448976  1
  Si  Si614  1  0.942479  0.880285  0.507115  1
  Si  Si615  1  0.795394  0.119834  0.448970  1
  Si  Si616  1  0.704574  0.619811  0.601158  1
  Si  Si617  1  0.942482  0.380922  0.448976  1
  Si  Si618  1  0.942485  0.619194  0.448974  1
  Si  Si619  1  0.892823  0.191168  0.468600  1
  Si  Si620  1  0.892835  0.808935  0.468600  1
  Si  Si621  1  0.909507  0.250047  0.588127  1
  Si  Si622  1  0.909505  0.750047  0.588127  1
  Si  Si623  1  -0.000000  0.381265  0.600847  1
  Si  Si624  1  -0.000000  0.618831  0.600845  1
  Si  Si625  1  0.090488  0.250071  0.659663  1
  Si  Si626  1  0.058296  0.881267  0.623894  1
  Si  Si627  1  0.090456  0.750055  0.659665  1
  Si  Si628  1  0.057764  0.119217  0.695387  1
  Si  Si629  1  0.180855  0.380863  0.646731  1
  Si  Si630  1  0.057775  0.880910  0.695387  1
  Si  Si631  1  0.180813  0.619138  0.646746  1
  Si  Si632  1  0.057499  0.119817  0.740679  1
  Si  Si633  1  0.295408  0.380297  0.646632  1
  Si  Si634  1  0.057498  0.880283  0.740675  1
  Si  Si635  1  0.295381  0.619820  0.646629  1
  Si  Si636  1  0.058297  0.118836  0.623899  1
  Si  Si637  1  0.442536  0.500054  0.646608  1
  Si  Si638  1  0.557447  0.500067  0.646607  1
  Si  Si639  1  0.442208  0.619205  0.750059  1
  Si  Si640  1  0.557766  0.380923  0.750057  1
  Si  Si641  1  0.442212  0.380913  0.750058  1
  Si  Si642  1  0.557763  0.619217  0.750059  1
  Si  Si643  1  0.442480  0.619815  0.704771  1
  Si  Si644  1  0.557502  0.380296  0.704771  1
  Si  Si645  1  0.442484  0.380290  0.704771  1
  Si  Si646  1  0.557498  0.619826  0.704768  1
  Si  Si647  1  0.557501  0.880927  0.646627  1
  Si  Si648  1  0.442487  0.880926  0.646627  1
  Si  Si649  1  0.442483  0.119198  0.646627  1
  Si  Si650  1  0.557495  0.119203  0.646627  1
  Si  Si651  1  0.607151  0.691183  0.666254  1
  Si  Si652  1  0.392830  0.691168  0.666253  1
  Si  Si653  1  0.392835  0.308931  0.666257  1
  Si  Si654  1  0.607145  0.308946  0.666256  1
  Si  Si655  1  0.941683  0.118830  0.623896  1
  Si  Si656  1  0.909508  0.250049  0.659665  1
  Si  Si657  1  0.909505  0.750054  0.659665  1
  Si  Si658  1  0.819130  0.619209  0.646728  1
  Si  Si659  1  0.942216  0.880903  0.695390  1
  Si  Si660  1  0.819150  0.380911  0.646740  1
  Si  Si661  1  0.942208  0.119194  0.695388  1
  Si  Si662  1  0.704566  0.619809  0.646624  1
  Si  Si663  1  0.942484  0.880282  0.740677  1
  Si  Si664  1  0.704585  0.380294  0.646629  1
  Si  Si665  1  0.942481  0.119820  0.740676  1
  Si  Si666  1  0.941681  0.881262  0.623894  1
  Si  Si667  1  -0.000000  0.381264  0.646947  1
  Si  Si668  1  -0.000000  0.618825  0.646946  1
  H  H669  1  0.091915  0.826879  0.082368  1
  H  H670  1  0.091914  0.173221  0.082370  1
  H  H671  1  0.584209  0.692352  0.073761  1
  H  H672  1  0.415755  0.307740  0.073762  1
  H  H673  1  0.584209  0.307755  0.073762  1
  H  H674  1  0.415754  0.692352  0.073760  1
  H  H675  1  0.908062  0.173225  0.082368  1
  H  H676  1  0.908056  0.826886  0.082369  1
  H  H677  1  0.091917  0.173239  0.770115  1
  H  H678  1  0.091913  0.826879  0.770113  1
  H  H679  1  0.415747  0.692369  0.778717  1
  H  H680  1  0.584225  0.307765  0.778714  1
  H  H681  1  0.415756  0.307759  0.778718  1
  H  H682  1  0.584219  0.692391  0.778720  1
  H  H683  1  0.908071  0.826882  0.770112  1
  H  H684  1  0.908070  0.173235  0.770113  1
