# generated using pymatgen
data_Si23(HO12)4
_symmetry_space_group_name_H-M   'P 1'
_cell_length_a   19.41225325
_cell_length_b   11.34454198
_cell_length_c   44.31576831
_cell_angle_alpha   90.00000000
_cell_angle_beta   120.00000000
_cell_angle_gamma   90.00000000
_symmetry_Int_Tables_number   1
_chemical_formula_structural   Si23(HO12)4
_chemical_formula_sum   'Si46 H8 O96'
_cell_volume   8451.85095546
_cell_formula_units_Z   2
loop_
 _symmetry_equiv_pos_site_id
 _symmetry_equiv_pos_as_xyz
  1  'x, y, z'
loop_
 _atom_site_type_symbol
 _atom_site_label
 _atom_site_symmetry_multiplicity
 _atom_site_fract_x
 _atom_site_fract_y
 _atom_site_fract_z
 _atom_site_occupancy
  O  O1  1  0.402983  0.661861  0.150590  1
  O  O2  1  0.403036  0.338497  0.150681  1
  O  O3  1  0.595493  0.338438  0.150685  1
  O  O4  1  0.595528  0.661596  0.150621  1
  O  O5  1  0.460513  0.500276  0.195894  1
  O  O6  1  0.458346  0.702740  0.281948  1
  O  O7  1  0.458399  0.297034  0.282032  1
  O  O8  1  0.457542  0.297342  0.220339  1
  O  O9  1  0.457518  0.703216  0.220257  1
  O  O10  1  0.700080  0.297075  0.220247  1
  O  O11  1  0.840813  0.296645  0.281579  1
  O  O12  1  0.840805  0.702937  0.281507  1
  O  O13  1  0.700057  0.703212  0.220189  1
  O  O14  1  0.641343  0.500143  0.195936  1
  O  O15  1  0.511945  0.882558  0.262974  1
  O  O16  1  0.550037  0.342289  0.195142  1
  O  O17  1  0.549981  0.658149  0.195049  1
  O  O18  1  0.580211  0.314263  0.277692  1
  O  O19  1  0.709984  0.316425  0.277843  1
  O  O20  1  0.709947  0.683524  0.277774  1
  O  O21  1  0.580164  0.685841  0.277598  1
  O  O22  1  0.743233  0.882140  0.262966  1
  O  O23  1  0.624749  0.000000  0.260394  1
  O  O24  1  0.743034  0.117826  0.262900  1
  O  O25  1  0.511950  0.117572  0.262885  1
  O  O26  1  0.664839  0.500082  0.296804  1
  O  O27  1  0.256604  0.882134  0.375482  1
  O  O28  1  0.256803  0.117832  0.375502  1
  O  O29  1  0.299780  0.297032  0.351649  1
  O  O30  1  0.159046  0.296644  0.351315  1
  O  O31  1  0.159055  0.702937  0.351247  1
  O  O32  1  0.299803  0.703256  0.351601  1
  O  O33  1  0.461904  0.499901  0.307812  1
  O  O34  1  0.358490  0.500143  0.353068  1
  O  O35  1  0.103322  0.500326  0.431630  1
  O  O36  1  0.103244  0.499723  0.352432  1
  O  O37  1  0.404345  0.338448  0.327898  1
  O  O38  1  0.375037  -0.000000  0.424813  1
  O  O39  1  0.404311  0.661586  0.327819  1
  O  O40  1  0.449803  0.342304  0.392271  1
  O  O41  1  0.101364  0.342089  0.391717  1
  O  O42  1  0.449859  0.658133  0.392204  1
  O  O43  1  0.101465  0.657979  0.391567  1
  O  O44  1  0.289874  0.316507  0.404898  1
  O  O45  1  0.289912  0.683443  0.404845  1
  O  O46  1  0.250666  -0.000000  0.424721  1
  O  O47  1  0.743589  0.882558  0.364215  1
  O  O48  1  0.841139  0.297302  0.387908  1
  O  O49  1  0.701072  0.297103  0.388189  1
  O  O50  1  0.701274  0.702938  0.388186  1
  O  O51  1  0.841177  0.703406  0.387759  1
  O  O52  1  0.896476  0.500326  0.386306  1
  O  O53  1  0.539321  0.500276  0.432249  1
  O  O54  1  0.642558  0.500103  0.386968  1
  O  O55  1  0.896595  0.499724  0.307147  1
  O  O56  1  0.000000  0.338852  0.411645  1
  O  O57  1  0.596792  0.338498  0.412207  1
  O  O58  1  0.596844  0.661859  0.412139  1
  O  O59  1  0.000000  0.338023  0.327313  1
  O  O60  1  0.743751  0.117821  0.364238  1
  O  O61  1  0.551333  0.341949  0.347807  1
  O  O62  1  0.898462  0.342097  0.347254  1
  O  O63  1  0.551267  0.658023  0.347730  1
  O  O64  1  0.898361  0.657972  0.347060  1
  O  O65  1  0.709705  0.315248  0.334548  1
  O  O66  1  0.709614  0.685172  0.334472  1
  O  O67  1  0.749106  -0.000000  0.314791  1
  O  O68  1  0.624913  0.000000  0.314898  1
  O  O69  1  0.000000  0.661865  0.411452  1
  O  O70  1  0.000000  0.661429  0.327168  1
  O  O71  1  0.158653  0.297338  0.457491  1
  O  O72  1  0.298727  0.297143  0.519147  1
  O  O73  1  0.298526  0.702899  0.519055  1
  O  O74  1  0.158616  0.703369  0.457326  1
  O  O75  1  0.357271  0.500103  0.543558  1
  O  O76  1  0.487795  0.882523  0.476787  1
  O  O77  1  0.448493  0.341943  0.544362  1
  O  O78  1  0.448558  0.658030  0.544313  1
  O  O79  1  0.290129  0.314943  0.461719  1
  O  O80  1  0.419636  0.314484  0.461601  1
  O  O81  1  0.419684  0.685618  0.461529  1
  O  O82  1  0.290222  0.685475  0.461684  1
  O  O83  1  0.374860  -0.000000  0.479239  1
  O  O84  1  0.255985  0.117781  0.476524  1
  O  O85  1  0.487790  0.117606  0.476695  1
  O  O86  1  0.256146  0.882598  0.476572  1
  O  O87  1  0.334623  0.500081  0.443696  1
  O  O88  1  0.402983  0.661861  0.588753  1
  O  O89  1  0.403036  0.338497  0.588845  1
  O  O90  1  0.537935  0.499901  0.543552  1
  O  O91  1  0.541476  0.702734  0.519241  1
  O  O92  1  0.541422  0.297041  0.519301  1
  O  O93  1  0.542273  0.297303  0.457984  1
  O  O94  1  0.542297  0.703254  0.457913  1
  O  O95  1  0.595493  0.338438  0.588848  1
  O  O96  1  0.595528  0.661596  0.588784  1
  Si  Si97  1  0.465069  0.364220  0.190579  1
  Si  Si98  1  0.465022  0.636289  0.190498  1
  Si  Si99  1  0.496784  0.746000  0.259571  1
  Si  Si100  1  0.496813  0.254134  0.259611  1
  Si  Si101  1  0.624592  0.364115  0.190579  1
  Si  Si102  1  0.624566  0.636160  0.190523  1
  Si  Si103  1  0.750955  0.254284  0.259529  1
  Si  Si104  1  0.751014  0.745686  0.259504  1
  Si  Si105  1  0.718490  0.000000  0.273706  1
  Si  Si106  1  0.561560  -0.000000  0.273811  1
  Si  Si107  1  0.666355  0.362459  0.296705  1
  Si  Si108  1  0.666315  0.637701  0.296657  1
  Si  Si109  1  0.466347  0.363881  0.315149  1
  Si  Si110  1  0.375249  0.364116  0.355048  1
  Si  Si111  1  0.090998  0.364265  0.424374  1
  Si  Si112  1  0.091006  0.363727  0.354493  1
  Si  Si113  1  0.091006  0.635791  0.354359  1
  Si  Si114  1  0.466313  0.635964  0.315079  1
  Si  Si115  1  0.375275  0.636159  0.355002  1
  Si  Si116  1  0.091006  0.636318  0.424229  1
  Si  Si117  1  0.248904  0.254280  0.368647  1
  Si  Si118  1  0.248846  0.745689  0.368597  1
  Si  Si119  1  0.281303  0.000000  0.397057  1
  Si  Si120  1  0.333475  0.637700  0.442851  1
  Si  Si121  1  0.333435  0.362459  0.442882  1
  Si  Si122  1  0.908814  0.364268  0.384450  1
  Si  Si123  1  0.534765  0.364219  0.424936  1
  Si  Si124  1  0.625819  0.364068  0.385016  1
  Si  Si125  1  0.908831  0.363727  0.314571  1
  Si  Si126  1  0.534812  0.636288  0.424876  1
  Si  Si127  1  0.625850  0.636150  0.384950  1
  Si  Si128  1  0.908831  0.635792  0.314437  1
  Si  Si129  1  0.908806  0.636317  0.384301  1
  Si  Si130  1  0.751513  0.254335  0.370973  1
  Si  Si131  1  0.751511  0.746029  0.370907  1
  Si  Si132  1  0.718743  -0.000000  0.342555  1
  Si  Si133  1  0.374005  0.364069  0.548939  1
  Si  Si134  1  0.373975  0.636150  0.548859  1
  Si  Si135  1  0.248260  0.254312  0.479841  1
  Si  Si136  1  0.248263  0.746051  0.479775  1
  Si  Si137  1  0.281023  0.000000  0.465789  1
  Si  Si138  1  0.438218  -0.000000  0.465911  1
  Si  Si139  1  0.533487  0.363882  0.548942  1
  Si  Si140  1  0.533520  0.635963  0.548888  1
  Si  Si141  1  0.503004  0.745974  0.480020  1
  Si  Si142  1  0.502974  0.254159  0.480047  1
  H  H143  1  0.402983  0.661861  0.130281  1
  H  H144  1  0.403036  0.338497  0.130373  1
  H  H145  1  0.595493  0.338438  0.130376  1
  H  H146  1  0.595528  0.661596  0.130312  1
  H  H147  1  0.402983  0.661861  0.609062  1
  H  H148  1  0.403036  0.338497  0.609153  1
  H  H149  1  0.595493  0.338438  0.609157  1
  H  H150  1  0.595528  0.661596  0.609093  1
