# generated using pymatgen
data_Si12H2O25
_symmetry_space_group_name_H-M   'P 1'
_cell_length_a   14.22215015
_cell_length_b   20.03147368
_cell_length_c   40.37664829
_cell_angle_alpha   90.00000000
_cell_angle_beta   90.00000000
_cell_angle_gamma   90.00000000
_symmetry_Int_Tables_number   1
_chemical_formula_structural   Si12H2O25
_chemical_formula_sum   'Si96 H16 O200'
_cell_volume   11502.9286239
_cell_formula_units_Z   8
loop_
 _symmetry_equiv_pos_site_id
 _symmetry_equiv_pos_as_xyz
  1  'x, y, z'
loop_
 _atom_site_type_symbol
 _atom_site_label
 _atom_site_symmetry_multiplicity
 _atom_site_fract_x
 _atom_site_fract_y
 _atom_site_fract_z
 _atom_site_occupancy
  O  O1  1  0.407454  0.955436  0.282994  1
  O  O2  1  0.592412  0.955411  0.282986  1
  O  O3  1  0.592417  0.544527  0.282982  1
  O  O4  1  0.407457  0.544550  0.282983  1
  O  O5  1  0.499926  0.500913  0.516793  1
  O  O6  1  0.499898  0.000000  0.516789  1
  O  O7  1  0.499867  0.876010  0.244114  1
  O  O8  1  0.499978  0.623943  0.244104  1
  O  O9  1  0.592690  0.838319  0.193419  1
  O  O10  1  0.407115  0.838293  0.193389  1
  O  O11  1  0.407166  0.661642  0.193407  1
  O  O12  1  0.592740  0.661664  0.193384  1
  O  O13  1  0.499925  0.749976  0.223967  1
  O  O14  1  0.000000  0.858044  0.472338  1
  O  O15  1  0.000000  0.641935  0.472335  1
  O  O16  1  0.094001  0.842861  0.525199  1
  O  O17  1  0.905878  0.842830  0.525160  1
  O  O18  1  0.905901  0.657130  0.525166  1
  O  O19  1  0.094021  0.657107  0.525196  1
  O  O20  1  0.000000  0.948252  0.515491  1
  O  O21  1  0.000000  0.551718  0.515484  1
  O  O22  1  0.000000  0.948230  0.429762  1
  O  O23  1  -0.000000  0.551745  0.429760  1
  O  O24  1  0.910048  0.841501  0.417808  1
  O  O25  1  0.089726  0.841501  0.417779  1
  O  O26  1  0.089745  0.658461  0.417779  1
  O  O27  1  0.910066  0.658479  0.417800  1
  O  O28  1  0.260798  0.948803  0.321955  1
  O  O29  1  0.739038  0.948845  0.321964  1
  O  O30  1  0.739086  0.551169  0.321935  1
  O  O31  1  0.260838  0.551137  0.321966  1
  O  O32  1  0.294639  0.553082  0.464173  1
  O  O33  1  0.705146  0.553046  0.464158  1
  O  O34  1  0.705155  0.946922  0.464172  1
  O  O35  1  0.294653  0.946891  0.464173  1
  O  O36  1  0.245250  0.949364  0.257865  1
  O  O37  1  0.754667  0.949399  0.257890  1
  O  O38  1  0.754610  0.550595  0.257847  1
  O  O39  1  0.245201  0.550568  0.257889  1
  O  O40  1  0.286644  0.845379  0.146873  1
  O  O41  1  0.713094  0.845545  0.146926  1
  O  O42  1  0.713182  0.654599  0.146860  1
  O  O43  1  0.286738  0.654438  0.146915  1
  O  O44  1  0.239620  0.874574  0.206578  1
  O  O45  1  0.760212  0.874588  0.206622  1
  O  O46  1  0.760246  0.625381  0.206559  1
  O  O47  1  0.239652  0.625365  0.206614  1
  O  O48  1  0.279888  0.749958  0.189331  1
  O  O49  1  0.719963  0.749999  0.189328  1
  O  O50  1  0.784245  0.749971  0.533955  1
  O  O51  1  0.215606  0.749988  0.534014  1
  O  O52  1  0.747807  0.873669  0.552570  1
  O  O53  1  0.252027  0.873685  0.552655  1
  O  O54  1  0.252051  0.626290  0.552654  1
  O  O55  1  0.747842  0.626271  0.552584  1
  O  O56  1  0.755251  0.841577  0.492241  1
  O  O57  1  0.244637  0.841596  0.492308  1
  O  O58  1  0.244659  0.658386  0.492307  1
  O  O59  1  0.755265  0.658354  0.492249  1
  O  O60  1  0.738734  0.844671  0.428980  1
  O  O61  1  0.261003  0.844620  0.429028  1
  O  O62  1  0.261023  0.655354  0.429025  1
  O  O63  1  0.738760  0.655309  0.428986  1
  O  O64  1  0.802004  0.874130  0.371029  1
  O  O65  1  0.197909  0.874131  0.371047  1
  O  O66  1  0.197917  0.625836  0.371045  1
  O  O67  1  0.801993  0.625848  0.371026  1
  O  O68  1  0.807318  0.749988  0.393729  1
  O  O69  1  0.192503  0.749984  0.393734  1
  O  O70  1  0.089398  0.946963  0.335167  1
  O  O71  1  0.910469  0.946968  0.335144  1
  O  O72  1  0.910486  0.553007  0.335154  1
  O  O73  1  0.089415  0.553021  0.335147  1
  O  O74  1  0.201004  -0.000000  0.376168  1
  O  O75  1  0.094877  0.948955  0.224841  1
  O  O76  1  0.905044  0.948926  0.224859  1
  O  O77  1  0.904995  0.551011  0.224834  1
  O  O78  1  0.094829  0.551031  0.224854  1
  O  O79  1  0.714769  0.944818  0.606111  1
  O  O80  1  0.285432  0.944820  0.606208  1
  O  O81  1  0.285434  0.555136  0.606204  1
  O  O82  1  0.714803  0.555102  0.606123  1
  O  O83  1  0.594463  0.939744  0.559658  1
  O  O84  1  0.405381  0.939736  0.559679  1
  O  O85  1  0.405393  0.560220  0.559678  1
  O  O86  1  0.594475  0.560222  0.559669  1
  O  O87  1  0.591932  0.846854  0.467110  1
  O  O88  1  0.407866  0.846833  0.467120  1
  O  O89  1  0.407887  0.653118  0.467121  1
  O  O90  1  0.591952  0.653117  0.467113  1
  O  O91  1  -0.000000  0.961504  0.279006  1
  O  O92  1  -0.000000  0.538469  0.279001  1
  O  O93  1  0.499907  0.871842  0.518091  1
  O  O94  1  0.499929  0.628112  0.518093  1
  O  O95  1  0.499928  0.749978  0.493728  1
  O  O96  1  0.798917  0.000000  0.376165  1
  O  O97  1  0.249113  0.500454  0.550950  1
  O  O98  1  0.750724  0.500426  0.550874  1
  O  O99  1  0.750744  -0.000000  0.550873  1
  O  O100  1  0.249121  -0.000000  0.550956  1
  O  O101  1  0.407418  0.455440  0.469338  1
  O  O102  1  0.592375  0.455403  0.469329  1
  O  O103  1  0.592383  0.044563  0.469336  1
  O  O104  1  0.407421  0.044544  0.469341  1
  O  O105  1  0.499926  0.000000  0.235530  1
  O  O106  1  0.499926  0.499043  0.235525  1
  O  O107  1  0.499881  0.376008  0.508211  1
  O  O108  1  0.499896  0.123945  0.508225  1
  O  O109  1  0.592678  0.338310  0.558918  1
  O  O110  1  0.407103  0.338306  0.558923  1
  O  O111  1  0.407100  0.161661  0.558933  1
  O  O112  1  0.592674  0.161648  0.558939  1
  O  O113  1  0.499894  0.249974  0.528360  1
  O  O114  1  -0.000000  0.358029  0.279981  1
  O  O115  1  0.000000  0.141944  0.279983  1
  O  O116  1  0.093973  0.342818  0.227150  1
  O  O117  1  0.905853  0.342866  0.227122  1
  O  O118  1  0.905892  0.157146  0.227146  1
  O  O119  1  0.094012  0.157100  0.227129  1
  O  O120  1  0.000000  0.448243  0.236832  1
  O  O121  1  0.000000  0.051723  0.236835  1
  O  O122  1  0.000000  0.448221  0.322558  1
  O  O123  1  0.000000  0.051756  0.322559  1
  O  O124  1  0.910110  0.341502  0.334534  1
  O  O125  1  0.089790  0.341491  0.334521  1
  O  O126  1  0.089771  0.158479  0.334535  1
  O  O127  1  0.910089  0.158476  0.334524  1
  O  O128  1  0.260761  0.448818  0.430380  1
  O  O129  1  0.739000  0.448812  0.430347  1
  O  O130  1  0.739020  0.051158  0.430359  1
  O  O131  1  0.260774  0.051158  0.430382  1
  O  O132  1  0.294657  0.053055  0.288159  1
  O  O133  1  0.705156  0.053083  0.288149  1
  O  O134  1  0.705214  0.446909  0.288144  1
  O  O135  1  0.294702  0.446890  0.288158  1
  O  O136  1  0.245213  0.449421  0.494467  1
  O  O137  1  0.754631  0.449339  0.494424  1
  O  O138  1  0.754623  0.050645  0.494436  1
  O  O139  1  0.245213  0.050547  0.494468  1
  O  O140  1  0.286653  0.345486  0.605425  1
  O  O141  1  0.713100  0.345463  0.605421  1
  O  O142  1  0.713087  0.154554  0.605458  1
  O  O143  1  0.286622  0.154503  0.605428  1
  O  O144  1  0.239607  0.374601  0.545728  1
  O  O145  1  0.760197  0.374562  0.545718  1
  O  O146  1  0.760191  0.125383  0.545752  1
  O  O147  1  0.239607  0.125373  0.545729  1
  O  O148  1  0.279836  0.249988  0.562996  1
  O  O149  1  0.719911  0.249974  0.563000  1
  O  O150  1  0.784253  0.250001  0.218323  1
  O  O151  1  0.215619  0.249962  0.218338  1
  O  O152  1  0.747818  0.373696  0.199663  1
  O  O153  1  0.252028  0.373661  0.199731  1
  O  O154  1  0.252055  0.126265  0.199681  1
  O  O155  1  0.747842  0.126293  0.199724  1
  O  O156  1  0.755211  0.341626  0.260013  1
  O  O157  1  0.244606  0.341559  0.260065  1
  O  O158  1  0.244641  0.158336  0.260031  1
  O  O159  1  0.755251  0.158415  0.260055  1
  O  O160  1  0.738828  0.344627  0.323290  1
  O  O161  1  0.261096  0.344641  0.323329  1
  O  O162  1  0.261054  0.155336  0.323308  1
  O  O163  1  0.738785  0.155330  0.323321  1
  O  O164  1  0.801941  0.374136  0.381268  1
  O  O165  1  0.197871  0.374127  0.381291  1
  O  O166  1  0.197908  0.125838  0.381284  1
  O  O167  1  0.801981  0.125848  0.381284  1
  O  O168  1  0.807337  0.249990  0.358585  1
  O  O169  1  0.192534  0.249983  0.358595  1
  O  O170  1  0.089358  0.446957  0.417163  1
  O  O171  1  0.910427  0.446952  0.417167  1
  O  O172  1  0.910452  0.053032  0.417182  1
  O  O173  1  0.089382  0.053016  0.417163  1
  O  O174  1  0.798869  0.499992  0.376150  1
  O  O175  1  0.094835  0.448959  0.527483  1
  O  O176  1  0.905003  0.448918  0.527462  1
  O  O177  1  0.905004  0.051063  0.527466  1
  O  O178  1  0.094839  0.051005  0.527490  1
  O  O179  1  0.714494  0.444895  0.146124  1
  O  O180  1  0.285150  0.444761  0.146177  1
  O  O181  1  0.285334  0.055066  0.146141  1
  O  O182  1  0.714699  0.055172  0.146177  1
  O  O183  1  0.594451  0.439746  0.192635  1
  O  O184  1  0.405368  0.439734  0.192650  1
  O  O185  1  0.405418  0.060216  0.192640  1
  O  O186  1  0.594501  0.060216  0.192656  1
  O  O187  1  0.591974  0.346851  0.285192  1
  O  O188  1  0.407910  0.346836  0.285204  1
  O  O189  1  0.407892  0.153112  0.285201  1
  O  O190  1  0.591958  0.153140  0.285202  1
  O  O191  1  0.000000  0.461495  0.473314  1
  O  O192  1  -0.000000  0.038474  0.473321  1
  O  O193  1  0.499929  0.371846  0.234221  1
  O  O194  1  0.499933  0.128111  0.234226  1
  O  O195  1  0.499922  0.249982  0.258585  1
  O  O196  1  0.200967  0.499982  0.376167  1
  O  O197  1  0.249174  -0.000000  0.201396  1
  O  O198  1  0.750784  0.000000  0.201423  1
  O  O199  1  0.750709  0.499532  0.201378  1
  O  O200  1  0.249092  0.499502  0.201423  1
  Si  Si201  1  -0.000000  0.525639  0.240600  1
  Si  Si202  1  -0.000000  0.974327  0.240604  1
  Si  Si203  1  0.000000  0.525439  0.317358  1
  Si  Si204  1  0.000000  0.974538  0.317362  1
  Si  Si205  1  0.000000  0.628966  0.434170  1
  Si  Si206  1  0.302065  0.975330  0.288453  1
  Si  Si207  1  0.697773  0.975356  0.288460  1
  Si  Si208  1  0.697807  0.524634  0.288438  1
  Si  Si209  1  0.302092  0.524617  0.288462  1
  Si  Si210  1  0.189160  0.941062  0.351134  1
  Si  Si211  1  0.810728  0.941074  0.351126  1
  Si  Si212  1  0.810720  0.558913  0.351116  1
  Si  Si213  1  0.189159  0.558905  0.351131  1
  Si  Si214  1  0.702567  0.938171  0.567601  1
  Si  Si215  1  0.297321  0.938180  0.567682  1
  Si  Si216  1  0.297331  0.561787  0.567678  1
  Si  Si217  1  0.702581  0.561773  0.567612  1
  Si  Si218  1  0.696685  0.869419  0.462570  1
  Si  Si219  1  0.303100  0.869389  0.462605  1
  Si  Si220  1  0.303112  0.630583  0.462604  1
  Si  Si221  1  0.696702  0.630549  0.462571  1
  Si  Si222  1  0.797988  0.826540  0.527176  1
  Si  Si223  1  0.201890  0.826563  0.527240  1
  Si  Si224  1  0.201907  0.673412  0.527239  1
  Si  Si225  1  0.798002  0.673400  0.527183  1
  Si  Si226  1  0.812501  0.826539  0.401653  1
  Si  Si227  1  0.187322  0.826533  0.401666  1
  Si  Si228  1  0.187336  0.673433  0.401664  1
  Si  Si229  1  0.812509  0.673436  0.401652  1
  Si  Si230  1  0.205131  0.942284  0.221971  1
  Si  Si231  1  0.794783  0.942292  0.221999  1
  Si  Si232  1  0.794742  0.557674  0.221954  1
  Si  Si233  1  0.205091  0.557665  0.221996  1
  Si  Si234  1  0.300274  0.826682  0.184300  1
  Si  Si235  1  0.699534  0.826728  0.184337  1
  Si  Si236  1  0.699576  0.673278  0.184290  1
  Si  Si237  1  0.300318  0.673232  0.184328  1
  Si  Si238  1  0.499923  0.945073  0.262543  1
  Si  Si239  1  0.499937  0.554883  0.262536  1
  Si  Si240  1  0.499902  0.936557  0.539821  1
  Si  Si241  1  0.499923  0.563399  0.539825  1
  Si  Si242  1  0.499913  0.827105  0.486233  1
  Si  Si243  1  0.499928  0.672851  0.486236  1
  Si  Si244  1  0.499883  0.826403  0.214022  1
  Si  Si245  1  0.499967  0.673553  0.214015  1
  Si  Si246  1  -0.000000  0.871196  0.510615  1
  Si  Si247  1  0.000000  0.628776  0.510612  1
  Si  Si248  1  0.000000  0.871010  0.434172  1
  Si  Si249  1  -0.000000  0.025649  0.511724  1
  Si  Si250  1  0.000000  0.474322  0.511717  1
  Si  Si251  1  -0.000000  0.025448  0.434964  1
  Si  Si252  1  -0.000000  0.474527  0.434957  1
  Si  Si253  1  -0.000000  0.128976  0.318149  1
  Si  Si254  1  0.302040  0.475358  0.463876  1
  Si  Si255  1  0.697748  0.475318  0.463854  1
  Si  Si256  1  0.697759  0.024651  0.463865  1
  Si  Si257  1  0.302046  0.024616  0.463879  1
  Si  Si258  1  0.189126  0.441061  0.401201  1
  Si  Si259  1  0.810686  0.441065  0.401181  1
  Si  Si260  1  0.810712  0.058917  0.401197  1
  Si  Si261  1  0.189150  0.058910  0.401199  1
  Si  Si262  1  0.702521  0.438198  0.184643  1
  Si  Si263  1  0.297274  0.438155  0.184695  1
  Si  Si264  1  0.297341  0.061763  0.184659  1
  Si  Si265  1  0.702591  0.061794  0.184695  1
  Si  Si266  1  0.696738  0.369408  0.289715  1
  Si  Si267  1  0.303151  0.369387  0.289741  1
  Si  Si268  1  0.303131  0.130556  0.289729  1
  Si  Si269  1  0.696718  0.130587  0.289734  1
  Si  Si270  1  0.797961  0.326583  0.225080  1
  Si  Si271  1  0.201865  0.326526  0.225128  1
  Si  Si272  1  0.201906  0.173380  0.225096  1
  Si  Si273  1  0.798000  0.173438  0.225118  1
  Si  Si274  1  0.812517  0.326537  0.350650  1
  Si  Si275  1  0.187348  0.326533  0.350668  1
  Si  Si276  1  0.187353  0.173434  0.350664  1
  Si  Si277  1  0.812521  0.173438  0.350662  1
  Si  Si278  1  0.205092  0.442325  0.530358  1
  Si  Si279  1  0.794745  0.442251  0.530318  1
  Si  Si280  1  0.794745  0.057717  0.530330  1
  Si  Si281  1  0.205096  0.057646  0.530361  1
  Si  Si282  1  0.300256  0.326712  0.568007  1
  Si  Si283  1  0.699517  0.326703  0.568004  1
  Si  Si284  1  0.699509  0.173252  0.568032  1
  Si  Si285  1  0.300250  0.173263  0.568009  1
  Si  Si286  1  0.499900  0.445072  0.489781  1
  Si  Si287  1  0.499903  0.054896  0.489785  1
  Si  Si288  1  0.499924  0.436560  0.212490  1
  Si  Si289  1  0.499944  0.063396  0.212497  1
  Si  Si290  1  0.499936  0.327109  0.266079  1
  Si  Si291  1  0.499921  0.172855  0.266081  1
  Si  Si292  1  0.499887  0.326402  0.538302  1
  Si  Si293  1  0.499895  0.173552  0.538316  1
  Si  Si294  1  -0.000000  0.371186  0.241705  1
  Si  Si295  1  -0.000000  0.128781  0.241706  1
  Si  Si296  1  -0.000000  0.371001  0.318148  1
  H  H297  1  0.286644  0.845379  0.124583  1
  H  H298  1  0.713094  0.845545  0.124636  1
  H  H299  1  0.713182  0.654599  0.124570  1
  H  H300  1  0.286738  0.654438  0.124625  1
  H  H301  1  0.714769  0.944818  0.628402  1
  H  H302  1  0.285432  0.944820  0.628498  1
  H  H303  1  0.285434  0.555136  0.628494  1
  H  H304  1  0.714803  0.555102  0.628413  1
  H  H305  1  0.286653  0.345486  0.627716  1
  H  H306  1  0.713100  0.345463  0.627711  1
  H  H307  1  0.713087  0.154554  0.627748  1
  H  H308  1  0.286622  0.154503  0.627718  1
  H  H309  1  0.714494  0.444895  0.123834  1
  H  H310  1  0.285150  0.444761  0.123887  1
  H  H311  1  0.285334  0.055066  0.123851  1
  H  H312  1  0.714699  0.055172  0.123887  1
