# generated using pymatgen
data_Si69(HO35)4
_symmetry_space_group_name_H-M   'P 1'
_cell_length_a   19.41225325
_cell_length_b   11.34454198
_cell_length_c   83.15085619
_cell_angle_alpha   90.00000000
_cell_angle_beta   120.00000000
_cell_angle_gamma   90.00000000
_symmetry_Int_Tables_number   1
_chemical_formula_structural   Si69(HO35)4
_chemical_formula_sum   'Si138 H8 O280'
_cell_volume   15858.4330161
_cell_formula_units_Z   2
loop_
 _symmetry_equiv_pos_site_id
 _symmetry_equiv_pos_as_xyz
  1  'x, y, z'
loop_
 _atom_site_type_symbol
 _atom_site_label
 _atom_site_symmetry_multiplicity
 _atom_site_fract_x
 _atom_site_fract_y
 _atom_site_fract_z
 _atom_site_occupancy
  O  O1  1  0.402983  0.661861  0.080258  1
  O  O2  1  0.403036  0.338497  0.080307  1
  O  O3  1  0.595493  0.338438  0.080308  1
  O  O4  1  0.595528  0.661596  0.080274  1
  O  O5  1  0.460513  0.500276  0.104403  1
  O  O6  1  0.458346  0.702740  0.150266  1
  O  O7  1  0.458399  0.297034  0.150311  1
  O  O8  1  0.457542  0.297342  0.117431  1
  O  O9  1  0.457518  0.703216  0.117388  1
  O  O10  1  0.700080  0.297075  0.117382  1
  O  O11  1  0.840813  0.296645  0.150069  1
  O  O12  1  0.840805  0.702937  0.150031  1
  O  O13  1  0.700057  0.703212  0.117351  1
  O  O14  1  0.641343  0.500143  0.104425  1
  O  O15  1  0.511945  0.882558  0.140154  1
  O  O16  1  0.550037  0.342289  0.104002  1
  O  O17  1  0.549981  0.658149  0.103953  1
  O  O18  1  0.580211  0.314263  0.147998  1
  O  O19  1  0.709984  0.316425  0.148078  1
  O  O20  1  0.709947  0.683524  0.148041  1
  O  O21  1  0.580164  0.685841  0.147948  1
  O  O22  1  0.743233  0.882140  0.140150  1
  O  O23  1  0.624749  0.000000  0.138779  1
  O  O24  1  0.743034  0.117826  0.140114  1
  O  O25  1  0.511950  0.117572  0.140106  1
  O  O26  1  0.664839  0.500082  0.158183  1
  O  O27  1  0.256604  0.882134  0.200115  1
  O  O28  1  0.256803  0.117832  0.200126  1
  O  O29  1  0.299780  0.297032  0.187414  1
  O  O30  1  0.159046  0.296644  0.187236  1
  O  O31  1  0.159055  0.702937  0.187199  1
  O  O32  1  0.299803  0.703256  0.187388  1
  O  O33  1  0.461904  0.499901  0.164050  1
  O  O34  1  0.358490  0.500143  0.188170  1
  O  O35  1  0.103322  0.500326  0.230040  1
  O  O36  1  0.103244  0.499723  0.187831  1
  O  O37  1  0.404345  0.338448  0.174755  1
  O  O38  1  0.375037  0.000000  0.226407  1
  O  O39  1  0.404311  0.661586  0.174713  1
  O  O40  1  0.449803  0.342304  0.209064  1
  O  O41  1  0.101364  0.342089  0.208768  1
  O  O42  1  0.449859  0.658133  0.209027  1
  O  O43  1  0.101465  0.657979  0.208688  1
  O  O44  1  0.289874  0.316507  0.215793  1
  O  O45  1  0.289912  0.683443  0.215765  1
  O  O46  1  0.250666  0.000000  0.226358  1
  O  O47  1  0.743589  0.882558  0.194111  1
  O  O48  1  0.841139  0.297302  0.206738  1
  O  O49  1  0.701072  0.297103  0.206888  1
  O  O50  1  0.701274  0.702938  0.206886  1
  O  O51  1  0.841177  0.703406  0.206658  1
  O  O52  1  0.896476  0.500326  0.205884  1
  O  O53  1  0.539321  0.500276  0.230370  1
  O  O54  1  0.642558  0.500103  0.206237  1
  O  O55  1  0.896595  0.499724  0.163696  1
  O  O56  1  0.000000  0.338852  0.219389  1
  O  O57  1  0.596792  0.338498  0.219688  1
  O  O58  1  0.596844  0.661859  0.219652  1
  O  O59  1  -0.000000  0.338023  0.174444  1
  O  O60  1  0.743751  0.117821  0.194123  1
  O  O61  1  0.551333  0.341949  0.185366  1
  O  O62  1  0.898462  0.342097  0.185071  1
  O  O63  1  0.551267  0.658023  0.185325  1
  O  O64  1  0.898361  0.657972  0.184968  1
  O  O65  1  0.709705  0.315248  0.178299  1
  O  O66  1  0.709614  0.685172  0.178259  1
  O  O67  1  0.749106  0.000000  0.167770  1
  O  O68  1  0.624913  0.000000  0.167827  1
  O  O69  1  0.000000  0.661865  0.219286  1
  O  O70  1  0.000000  0.661429  0.174366  1
  O  O71  1  0.158653  0.297338  0.243823  1
  O  O72  1  0.298727  0.297143  0.276683  1
  O  O73  1  0.298526  0.702899  0.276634  1
  O  O74  1  0.158616  0.703369  0.243735  1
  O  O75  1  0.357271  0.500103  0.289693  1
  O  O76  1  0.487795  0.882523  0.254106  1
  O  O77  1  0.448493  0.341943  0.290121  1
  O  O78  1  0.448558  0.658030  0.290095  1
  O  O79  1  0.290129  0.314943  0.246076  1
  O  O80  1  0.419636  0.314484  0.246013  1
  O  O81  1  0.419684  0.685618  0.245975  1
  O  O82  1  0.290222  0.685475  0.246058  1
  O  O83  1  0.374860  0.000000  0.255413  1
  O  O84  1  0.255985  0.117781  0.253966  1
  O  O85  1  0.487790  0.117606  0.254058  1
  O  O86  1  0.256146  0.882598  0.253992  1
  O  O87  1  0.334623  0.500081  0.236470  1
  O  O88  1  0.402983  0.661861  0.313780  1
  O  O89  1  0.403036  0.338497  0.313828  1
  O  O90  1  0.537935  0.499901  0.289689  1
  O  O91  1  0.541476  0.702734  0.276733  1
  O  O92  1  0.541422  0.297041  0.276765  1
  O  O93  1  0.542273  0.297303  0.244086  1
  O  O94  1  0.542297  0.703254  0.244048  1
  O  O95  1  0.595493  0.338438  0.313830  1
  O  O96  1  0.595528  0.661596  0.313796  1
  O  O97  1  0.460513  0.500276  0.337925  1
  O  O98  1  0.458346  0.702740  0.383788  1
  O  O99  1  0.458399  0.297034  0.383833  1
  O  O100  1  0.457542  0.297342  0.350953  1
  O  O101  1  0.457518  0.703216  0.350909  1
  O  O102  1  0.700080  0.297075  0.350904  1
  O  O103  1  0.840813  0.296645  0.383591  1
  O  O104  1  0.840805  0.702937  0.383553  1
  O  O105  1  0.700057  0.703212  0.350873  1
  O  O106  1  0.641343  0.500143  0.337947  1
  O  O107  1  0.511945  0.882558  0.373675  1
  O  O108  1  0.550037  0.342289  0.337524  1
  O  O109  1  0.549981  0.658149  0.337475  1
  O  O110  1  0.580211  0.314263  0.381519  1
  O  O111  1  0.709984  0.316425  0.381600  1
  O  O112  1  0.709947  0.683524  0.381563  1
  O  O113  1  0.580164  0.685841  0.381470  1
  O  O114  1  0.743233  0.882140  0.373671  1
  O  O115  1  0.624749  0.000000  0.372300  1
  O  O116  1  0.743034  0.117826  0.373636  1
  O  O117  1  0.511950  0.117572  0.373628  1
  O  O118  1  0.664839  0.500082  0.391705  1
  O  O119  1  0.256604  0.882134  0.433637  1
  O  O120  1  0.256803  0.117832  0.433648  1
  O  O121  1  0.299780  0.297032  0.420936  1
  O  O122  1  0.159046  0.296644  0.420758  1
  O  O123  1  0.159055  0.702937  0.420721  1
  O  O124  1  0.299803  0.703256  0.420910  1
  O  O125  1  0.461904  0.499901  0.397572  1
  O  O126  1  0.358490  0.500143  0.421692  1
  O  O127  1  0.103322  0.500326  0.463562  1
  O  O128  1  0.103244  0.499723  0.421353  1
  O  O129  1  0.404345  0.338448  0.408277  1
  O  O130  1  0.375037  -0.000000  0.459929  1
  O  O131  1  0.404311  0.661586  0.408235  1
  O  O132  1  0.449803  0.342304  0.442585  1
  O  O133  1  0.101364  0.342089  0.442290  1
  O  O134  1  0.449859  0.658133  0.442549  1
  O  O135  1  0.101465  0.657979  0.442210  1
  O  O136  1  0.289874  0.316507  0.449315  1
  O  O137  1  0.289912  0.683443  0.449287  1
  O  O138  1  0.250666  0.000000  0.459880  1
  O  O139  1  0.743589  0.882558  0.427633  1
  O  O140  1  0.841139  0.297302  0.440260  1
  O  O141  1  0.701072  0.297103  0.440410  1
  O  O142  1  0.701274  0.702938  0.440408  1
  O  O143  1  0.841177  0.703406  0.440180  1
  O  O144  1  0.896476  0.500326  0.439406  1
  O  O145  1  0.539321  0.500276  0.463891  1
  O  O146  1  0.642558  0.500103  0.439759  1
  O  O147  1  0.896595  0.499724  0.397218  1
  O  O148  1  0.000000  0.338852  0.452911  1
  O  O149  1  0.596792  0.338498  0.453210  1
  O  O150  1  0.596844  0.661859  0.453174  1
  O  O151  1  0.000000  0.338023  0.407966  1
  O  O152  1  0.743751  0.117821  0.427645  1
  O  O153  1  0.551333  0.341949  0.418888  1
  O  O154  1  0.898462  0.342097  0.418593  1
  O  O155  1  0.551267  0.658023  0.418847  1
  O  O156  1  0.898361  0.657972  0.418489  1
  O  O157  1  0.709705  0.315248  0.411821  1
  O  O158  1  0.709614  0.685172  0.411781  1
  O  O159  1  0.749106  0.000000  0.401292  1
  O  O160  1  0.624913  0.000000  0.401348  1
  O  O161  1  0.000000  0.661865  0.452808  1
  O  O162  1  -0.000000  0.661429  0.407888  1
  O  O163  1  0.158653  0.297338  0.477344  1
  O  O164  1  0.298727  0.297143  0.510204  1
  O  O165  1  0.298526  0.702899  0.510156  1
  O  O166  1  0.158616  0.703369  0.477256  1
  O  O167  1  0.357271  0.500103  0.523215  1
  O  O168  1  0.487795  0.882523  0.487628  1
  O  O169  1  0.448493  0.341943  0.523643  1
  O  O170  1  0.448558  0.658030  0.523617  1
  O  O171  1  0.290129  0.314943  0.479598  1
  O  O172  1  0.419636  0.314484  0.479535  1
  O  O173  1  0.419684  0.685618  0.479497  1
  O  O174  1  0.290222  0.685475  0.479579  1
  O  O175  1  0.374860  0.000000  0.488935  1
  O  O176  1  0.255985  0.117781  0.487488  1
  O  O177  1  0.487790  0.117606  0.487580  1
  O  O178  1  0.256146  0.882598  0.487514  1
  O  O179  1  0.334623  0.500081  0.469992  1
  O  O180  1  0.402983  0.661861  0.547302  1
  O  O181  1  0.403036  0.338497  0.547350  1
  O  O182  1  0.537935  0.499901  0.523211  1
  O  O183  1  0.541476  0.702734  0.510254  1
  O  O184  1  0.541422  0.297041  0.510287  1
  O  O185  1  0.542273  0.297303  0.477607  1
  O  O186  1  0.542297  0.703254  0.477570  1
  O  O187  1  0.595493  0.338438  0.547352  1
  O  O188  1  0.595528  0.661596  0.547318  1
  O  O189  1  0.460513  0.500276  0.571447  1
  O  O190  1  0.458346  0.702740  0.617310  1
  O  O191  1  0.458399  0.297034  0.617355  1
  O  O192  1  0.457542  0.297342  0.584475  1
  O  O193  1  0.457518  0.703216  0.584431  1
  O  O194  1  0.700080  0.297075  0.584426  1
  O  O195  1  0.840813  0.296645  0.617113  1
  O  O196  1  0.840805  0.702937  0.617075  1
  O  O197  1  0.700057  0.703212  0.584395  1
  O  O198  1  0.641343  0.500143  0.571469  1
  O  O199  1  0.511945  0.882558  0.607197  1
  O  O200  1  0.550037  0.342289  0.571046  1
  O  O201  1  0.549981  0.658149  0.570997  1
  O  O202  1  0.580211  0.314263  0.615041  1
  O  O203  1  0.709984  0.316425  0.615122  1
  O  O204  1  0.709947  0.683524  0.615085  1
  O  O205  1  0.580164  0.685841  0.614992  1
  O  O206  1  0.743233  0.882140  0.607193  1
  O  O207  1  0.624749  -0.000000  0.605822  1
  O  O208  1  0.743034  0.117826  0.607158  1
  O  O209  1  0.511950  0.117572  0.607150  1
  O  O210  1  0.664839  0.500082  0.625227  1
  O  O211  1  0.256604  0.882134  0.667159  1
  O  O212  1  0.256803  0.117832  0.667170  1
  O  O213  1  0.299780  0.297032  0.654457  1
  O  O214  1  0.159046  0.296644  0.654280  1
  O  O215  1  0.159055  0.702937  0.654243  1
  O  O216  1  0.299803  0.703256  0.654432  1
  O  O217  1  0.461904  0.499901  0.631094  1
  O  O218  1  0.358490  0.500143  0.655213  1
  O  O219  1  0.103322  0.500326  0.697084  1
  O  O220  1  0.103244  0.499723  0.654875  1
  O  O221  1  0.404345  0.338448  0.641799  1
  O  O222  1  0.375037  -0.000000  0.693451  1
  O  O223  1  0.404311  0.661586  0.641757  1
  O  O224  1  0.449803  0.342304  0.676107  1
  O  O225  1  0.101364  0.342089  0.675812  1
  O  O226  1  0.449859  0.658133  0.676071  1
  O  O227  1  0.101465  0.657979  0.675732  1
  O  O228  1  0.289874  0.316507  0.682836  1
  O  O229  1  0.289912  0.683443  0.682808  1
  O  O230  1  0.250666  -0.000000  0.693401  1
  O  O231  1  0.743589  0.882558  0.661155  1
  O  O232  1  0.841139  0.297302  0.673782  1
  O  O233  1  0.701072  0.297103  0.673932  1
  O  O234  1  0.701274  0.702938  0.673930  1
  O  O235  1  0.841177  0.703406  0.673702  1
  O  O236  1  0.896476  0.500326  0.672928  1
  O  O237  1  0.539321  0.500276  0.697413  1
  O  O238  1  0.642558  0.500103  0.673281  1
  O  O239  1  0.896595  0.499724  0.630740  1
  O  O240  1  0.000000  0.338852  0.686433  1
  O  O241  1  0.596792  0.338498  0.686732  1
  O  O242  1  0.596844  0.661859  0.686696  1
  O  O243  1  0.000000  0.338023  0.641487  1
  O  O244  1  0.743751  0.117821  0.661167  1
  O  O245  1  0.551333  0.341949  0.652409  1
  O  O246  1  0.898462  0.342097  0.652115  1
  O  O247  1  0.551267  0.658023  0.652368  1
  O  O248  1  0.898361  0.657972  0.652011  1
  O  O249  1  0.709705  0.315248  0.645343  1
  O  O250  1  0.709614  0.685172  0.645303  1
  O  O251  1  0.749106  0.000000  0.634814  1
  O  O252  1  0.624913  0.000000  0.634870  1
  O  O253  1  -0.000000  0.661865  0.686329  1
  O  O254  1  0.000000  0.661429  0.641410  1
  O  O255  1  0.158653  0.297338  0.710866  1
  O  O256  1  0.298727  0.297143  0.743726  1
  O  O257  1  0.298526  0.702899  0.743678  1
  O  O258  1  0.158616  0.703369  0.710778  1
  O  O259  1  0.357271  0.500103  0.756737  1
  O  O260  1  0.487795  0.882523  0.721150  1
  O  O261  1  0.448493  0.341943  0.757165  1
  O  O262  1  0.448558  0.658030  0.757139  1
  O  O263  1  0.290129  0.314943  0.713120  1
  O  O264  1  0.419636  0.314484  0.713057  1
  O  O265  1  0.419684  0.685618  0.713019  1
  O  O266  1  0.290222  0.685475  0.713101  1
  O  O267  1  0.374860  -0.000000  0.722457  1
  O  O268  1  0.255985  0.117781  0.721010  1
  O  O269  1  0.487790  0.117606  0.721102  1
  O  O270  1  0.256146  0.882598  0.721036  1
  O  O271  1  0.334623  0.500081  0.703514  1
  O  O272  1  0.402983  0.661861  0.780823  1
  O  O273  1  0.403036  0.338497  0.780872  1
  O  O274  1  0.537935  0.499901  0.756733  1
  O  O275  1  0.541476  0.702734  0.743776  1
  O  O276  1  0.541422  0.297041  0.743809  1
  O  O277  1  0.542273  0.297303  0.711129  1
  O  O278  1  0.542297  0.703254  0.711091  1
  O  O279  1  0.595493  0.338438  0.780874  1
  O  O280  1  0.595528  0.661596  0.780840  1
  Si  Si281  1  0.465069  0.364220  0.101570  1
  Si  Si282  1  0.465022  0.636289  0.101527  1
  Si  Si283  1  0.496784  0.746000  0.138340  1
  Si  Si284  1  0.496813  0.254134  0.138361  1
  Si  Si285  1  0.624592  0.364115  0.101570  1
  Si  Si286  1  0.624566  0.636160  0.101540  1
  Si  Si287  1  0.750955  0.254284  0.138318  1
  Si  Si288  1  0.751014  0.745686  0.138305  1
  Si  Si289  1  0.718490  0.000000  0.145873  1
  Si  Si290  1  0.561560  0.000000  0.145929  1
  Si  Si291  1  0.666355  0.362459  0.158131  1
  Si  Si292  1  0.666315  0.637701  0.158105  1
  Si  Si293  1  0.466347  0.363881  0.167960  1
  Si  Si294  1  0.375249  0.364116  0.189225  1
  Si  Si295  1  0.090998  0.364265  0.226173  1
  Si  Si296  1  0.091006  0.363727  0.188930  1
  Si  Si297  1  0.091006  0.635791  0.188858  1
  Si  Si298  1  0.466313  0.635964  0.167924  1
  Si  Si299  1  0.375275  0.636159  0.189201  1
  Si  Si300  1  0.091006  0.636318  0.226095  1
  Si  Si301  1  0.248904  0.254280  0.196473  1
  Si  Si302  1  0.248846  0.745689  0.196446  1
  Si  Si303  1  0.281303  0.000000  0.211614  1
  Si  Si304  1  0.333475  0.637700  0.236020  1
  Si  Si305  1  0.333435  0.362459  0.236036  1
  Si  Si306  1  0.908814  0.364268  0.204895  1
  Si  Si307  1  0.534765  0.364219  0.226472  1
  Si  Si308  1  0.625819  0.364068  0.205197  1
  Si  Si309  1  0.908831  0.363727  0.167653  1
  Si  Si310  1  0.534812  0.636288  0.226440  1
  Si  Si311  1  0.625850  0.636150  0.205161  1
  Si  Si312  1  0.908831  0.635792  0.167581  1
  Si  Si313  1  0.908806  0.636317  0.204816  1
  Si  Si314  1  0.751513  0.254335  0.197712  1
  Si  Si315  1  0.751511  0.746029  0.197677  1
  Si  Si316  1  0.718743  0.000000  0.182567  1
  Si  Si317  1  0.374005  0.364069  0.292561  1
  Si  Si318  1  0.373975  0.636150  0.292518  1
  Si  Si319  1  0.248260  0.254312  0.255734  1
  Si  Si320  1  0.248263  0.746051  0.255699  1
  Si  Si321  1  0.281023  0.000000  0.248245  1
  Si  Si322  1  0.438218  0.000000  0.248310  1
  Si  Si323  1  0.533487  0.363882  0.292562  1
  Si  Si324  1  0.533520  0.635963  0.292533  1
  Si  Si325  1  0.503004  0.745974  0.255830  1
  Si  Si326  1  0.502974  0.254159  0.255844  1
  Si  Si327  1  0.465069  0.364220  0.335092  1
  Si  Si328  1  0.465022  0.636289  0.335049  1
  Si  Si329  1  0.496784  0.746000  0.371862  1
  Si  Si330  1  0.496813  0.254134  0.371883  1
  Si  Si331  1  0.624592  0.364115  0.335092  1
  Si  Si332  1  0.624566  0.636160  0.335062  1
  Si  Si333  1  0.750955  0.254284  0.371839  1
  Si  Si334  1  0.751014  0.745686  0.371826  1
  Si  Si335  1  0.718490  0.000000  0.379395  1
  Si  Si336  1  0.561560  0.000000  0.379451  1
  Si  Si337  1  0.666355  0.362459  0.391653  1
  Si  Si338  1  0.666315  0.637701  0.391627  1
  Si  Si339  1  0.466347  0.363881  0.401482  1
  Si  Si340  1  0.375249  0.364116  0.422747  1
  Si  Si341  1  0.090998  0.364265  0.459695  1
  Si  Si342  1  0.091006  0.363727  0.422451  1
  Si  Si343  1  0.091006  0.635791  0.422380  1
  Si  Si344  1  0.466313  0.635964  0.401445  1
  Si  Si345  1  0.375275  0.636159  0.422723  1
  Si  Si346  1  0.091006  0.636318  0.459617  1
  Si  Si347  1  0.248904  0.254280  0.429995  1
  Si  Si348  1  0.248846  0.745689  0.429968  1
  Si  Si349  1  0.281303  0.000000  0.445136  1
  Si  Si350  1  0.333475  0.637700  0.469542  1
  Si  Si351  1  0.333435  0.362459  0.469558  1
  Si  Si352  1  0.908814  0.364268  0.438417  1
  Si  Si353  1  0.534765  0.364219  0.459994  1
  Si  Si354  1  0.625819  0.364068  0.438719  1
  Si  Si355  1  0.908831  0.363727  0.401175  1
  Si  Si356  1  0.534812  0.636288  0.459962  1
  Si  Si357  1  0.625850  0.636150  0.438683  1
  Si  Si358  1  0.908831  0.635792  0.401103  1
  Si  Si359  1  0.908806  0.636317  0.438338  1
  Si  Si360  1  0.751513  0.254335  0.431234  1
  Si  Si361  1  0.751511  0.746029  0.431199  1
  Si  Si362  1  0.718743  0.000000  0.416089  1
  Si  Si363  1  0.374005  0.364069  0.526083  1
  Si  Si364  1  0.373975  0.636150  0.526040  1
  Si  Si365  1  0.248260  0.254312  0.489256  1
  Si  Si366  1  0.248263  0.746051  0.489221  1
  Si  Si367  1  0.281023  -0.000000  0.481767  1
  Si  Si368  1  0.438218  0.000000  0.481832  1
  Si  Si369  1  0.533487  0.363882  0.526084  1
  Si  Si370  1  0.533520  0.635963  0.526055  1
  Si  Si371  1  0.503004  0.745974  0.489352  1
  Si  Si372  1  0.502974  0.254159  0.489366  1
  Si  Si373  1  0.465069  0.364220  0.568614  1
  Si  Si374  1  0.465022  0.636289  0.568571  1
  Si  Si375  1  0.496784  0.746000  0.605384  1
  Si  Si376  1  0.496813  0.254134  0.605405  1
  Si  Si377  1  0.624592  0.364115  0.568614  1
  Si  Si378  1  0.624566  0.636160  0.568584  1
  Si  Si379  1  0.750955  0.254284  0.605361  1
  Si  Si380  1  0.751014  0.745686  0.605348  1
  Si  Si381  1  0.718490  0.000000  0.612917  1
  Si  Si382  1  0.561560  0.000000  0.612973  1
  Si  Si383  1  0.666355  0.362459  0.625175  1
  Si  Si384  1  0.666315  0.637701  0.625149  1
  Si  Si385  1  0.466347  0.363881  0.635004  1
  Si  Si386  1  0.375249  0.364116  0.656269  1
  Si  Si387  1  0.090998  0.364265  0.693217  1
  Si  Si388  1  0.091006  0.363727  0.655973  1
  Si  Si389  1  0.091006  0.635791  0.655902  1
  Si  Si390  1  0.466313  0.635964  0.634967  1
  Si  Si391  1  0.375275  0.636159  0.656244  1
  Si  Si392  1  0.091006  0.636318  0.693139  1
  Si  Si393  1  0.248904  0.254280  0.663516  1
  Si  Si394  1  0.248846  0.745689  0.663490  1
  Si  Si395  1  0.281303  -0.000000  0.678658  1
  Si  Si396  1  0.333475  0.637700  0.703064  1
  Si  Si397  1  0.333435  0.362459  0.703080  1
  Si  Si398  1  0.908814  0.364268  0.671939  1
  Si  Si399  1  0.534765  0.364219  0.693516  1
  Si  Si400  1  0.625819  0.364068  0.672241  1
  Si  Si401  1  0.908831  0.363727  0.634696  1
  Si  Si402  1  0.534812  0.636288  0.693484  1
  Si  Si403  1  0.625850  0.636150  0.672205  1
  Si  Si404  1  0.908831  0.635792  0.634625  1
  Si  Si405  1  0.908806  0.636317  0.671860  1
  Si  Si406  1  0.751513  0.254335  0.664756  1
  Si  Si407  1  0.751511  0.746029  0.664721  1
  Si  Si408  1  0.718743  0.000000  0.649610  1
  Si  Si409  1  0.374005  0.364069  0.759604  1
  Si  Si410  1  0.373975  0.636150  0.759562  1
  Si  Si411  1  0.248260  0.254312  0.722778  1
  Si  Si412  1  0.248263  0.746051  0.722743  1
  Si  Si413  1  0.281023  -0.000000  0.715289  1
  Si  Si414  1  0.438218  -0.000000  0.715354  1
  Si  Si415  1  0.533487  0.363882  0.759606  1
  Si  Si416  1  0.533520  0.635963  0.759577  1
  Si  Si417  1  0.503004  0.745974  0.722874  1
  Si  Si418  1  0.502974  0.254159  0.722888  1
  H  H419  1  0.402983  0.661861  0.069434  1
  H  H420  1  0.403036  0.338497  0.069483  1
  H  H421  1  0.595493  0.338438  0.069485  1
  H  H422  1  0.595528  0.661596  0.069451  1
  H  H423  1  0.402983  0.661861  0.791647  1
  H  H424  1  0.403036  0.338497  0.791696  1
  H  H425  1  0.595493  0.338438  0.791698  1
  H  H426  1  0.595528  0.661596  0.791664  1
