# generated using pymatgen
data_Si23(H4O25)2
_symmetry_space_group_name_H-M   'P 1'
_cell_length_a   19.43965416
_cell_length_b   16.47174882
_cell_length_c   33.05759783
_cell_angle_alpha   90.00000000
_cell_angle_beta   90.00000000
_cell_angle_gamma   90.00000000
_symmetry_Int_Tables_number   1
_chemical_formula_structural   Si23(H4O25)2
_chemical_formula_sum   'Si46 H16 O100'
_cell_volume   10585.2114358
_cell_formula_units_Z   2
loop_
 _symmetry_equiv_pos_site_id
 _symmetry_equiv_pos_as_xyz
  1  'x, y, z'
loop_
 _atom_site_type_symbol
 _atom_site_label
 _atom_site_symmetry_multiplicity
 _atom_site_fract_x
 _atom_site_fract_y
 _atom_site_fract_z
 _atom_site_occupancy
  O  O1  1  0.784016  0.250981  0.425951  1
  O  O2  1  0.783995  0.748995  0.425952  1
  O  O3  1  0.677597  0.284203  0.386418  1
  O  O4  1  0.677575  0.715776  0.386423  1
  O  O5  1  0.696592  0.367671  0.450373  1
  O  O6  1  0.696575  0.632293  0.450373  1
  O  O7  1  0.775131  0.383217  0.386630  1
  O  O8  1  0.775112  0.616762  0.386632  1
  O  O9  1  0.891416  0.785280  0.386858  1
  O  O10  1  0.891435  0.214702  0.386858  1
  O  O11  1  0.789943  0.881096  0.386898  1
  O  O12  1  0.789964  0.118882  0.386896  1
  O  O13  1  0.862295  0.866299  0.453036  1
  O  O14  1  0.862313  0.133667  0.453034  1
  O  O15  1  0.884217  0.652779  0.348752  1
  O  O16  1  -0.000000  0.731729  0.348744  1
  O  O17  1  0.000000  0.268244  0.348750  1
  O  O18  1  0.680228  0.849220  0.348745  1
  O  O19  1  0.680254  0.150765  0.348740  1
  O  O20  1  0.837709  0.499994  0.348756  1
  O  O21  1  0.884240  0.347207  0.348752  1
  O  O22  1  0.729982  0.000000  0.348739  1
  O  O23  1  0.783998  0.748976  0.271543  1
  O  O24  1  0.784026  0.251002  0.271539  1
  O  O25  1  0.677578  0.715770  0.311075  1
  O  O26  1  0.677605  0.284215  0.311071  1
  O  O27  1  0.696576  0.632271  0.247130  1
  O  O28  1  0.696596  0.367697  0.247124  1
  O  O29  1  0.775113  0.616753  0.310873  1
  O  O30  1  0.775140  0.383229  0.310869  1
  O  O31  1  0.891438  0.214713  0.310637  1
  O  O32  1  0.891414  0.785271  0.310638  1
  O  O33  1  0.789968  0.118893  0.310589  1
  O  O34  1  0.789941  0.881086  0.310590  1
  O  O35  1  0.862325  0.133687  0.244457  1
  O  O36  1  0.862303  0.866277  0.244456  1
  O  O37  1  0.566643  0.748112  0.348746  1
  O  O38  1  0.433293  0.251843  0.348746  1
  O  O39  1  0.646794  0.499973  0.479258  1
  O  O40  1  0.353140  0.499956  0.479247  1
  O  O41  1  0.499980  0.361273  0.387130  1
  O  O42  1  0.499966  0.638675  0.387133  1
  O  O43  1  0.362279  0.633628  0.519014  1
  O  O44  1  0.637625  0.366288  0.519019  1
  O  O45  1  0.637612  0.633644  0.519021  1
  O  O46  1  0.362309  0.366273  0.519017  1
  O  O47  1  0.499971  0.499971  0.419644  1
  O  O48  1  0.433369  0.610459  0.454047  1
  O  O49  1  0.566569  0.389479  0.454046  1
  O  O50  1  0.566556  0.610463  0.454048  1
  O  O51  1  0.433384  0.389469  0.454047  1
  O  O52  1  0.566666  0.251857  0.348739  1
  O  O53  1  0.433277  0.748105  0.348747  1
  O  O54  1  0.646774  0.499977  0.218229  1
  O  O55  1  0.362313  0.366259  0.178476  1
  O  O56  1  0.637603  0.633673  0.178484  1
  O  O57  1  0.637610  0.366270  0.178484  1
  O  O58  1  0.362302  0.633681  0.178478  1
  O  O59  1  0.499958  0.499976  0.277851  1
  O  O60  1  0.433379  0.389481  0.243442  1
  O  O61  1  0.566554  0.610469  0.243456  1
  O  O62  1  0.566565  0.389482  0.243456  1
  O  O63  1  0.433369  0.610470  0.243447  1
  O  O64  1  0.499960  0.361282  0.310365  1
  O  O65  1  0.499956  0.638672  0.310368  1
  O  O66  1  0.353160  0.499973  0.218217  1
  O  O67  1  0.115724  0.347186  0.348750  1
  O  O68  1  0.115703  0.652760  0.348742  1
  O  O69  1  0.319705  0.150745  0.348739  1
  O  O70  1  0.162236  0.499975  0.348752  1
  O  O71  1  0.215925  0.748989  0.425948  1
  O  O72  1  0.215938  0.250955  0.425950  1
  O  O73  1  0.322343  0.715767  0.386418  1
  O  O74  1  0.322355  0.284182  0.386416  1
  O  O75  1  0.303347  0.632277  0.450365  1
  O  O76  1  0.303364  0.367641  0.450371  1
  O  O77  1  0.224806  0.616756  0.386626  1
  O  O78  1  0.224822  0.383198  0.386631  1
  O  O79  1  0.108523  0.214686  0.386853  1
  O  O80  1  0.108511  0.785264  0.386846  1
  O  O81  1  0.209990  0.118860  0.386893  1
  O  O82  1  0.209977  0.881088  0.386888  1
  O  O83  1  0.137628  0.133642  0.453028  1
  O  O84  1  0.137606  0.866299  0.453019  1
  O  O85  1  0.269957  0.000000  0.348730  1
  O  O86  1  0.319690  0.849204  0.348736  1
  O  O87  1  0.215934  0.250991  0.271537  1
  O  O88  1  0.215927  0.748962  0.271534  1
  O  O89  1  0.322359  0.284193  0.311067  1
  O  O90  1  0.322346  0.715753  0.311068  1
  O  O91  1  0.303356  0.367693  0.247124  1
  O  O92  1  0.303346  0.632254  0.247124  1
  O  O93  1  0.224826  0.383213  0.310871  1
  O  O94  1  0.224809  0.616741  0.310867  1
  O  O95  1  0.108507  0.785251  0.310628  1
  O  O96  1  0.108519  0.214699  0.310634  1
  O  O97  1  0.209977  0.881074  0.310579  1
  O  O98  1  0.209990  0.118884  0.310585  1
  O  O99  1  0.137612  0.866258  0.244448  1
  O  O100  1  0.137622  0.133677  0.244456  1
  Si  Si101  1  0.733764  0.322933  0.414599  1
  Si  Si102  1  0.733742  0.677043  0.414601  1
  Si  Si103  1  0.833243  0.822166  0.414544  1
  Si  Si104  1  0.833263  0.177809  0.414544  1
  Si  Si105  1  0.746106  0.906291  0.348743  1
  Si  Si106  1  0.919959  0.738773  0.348749  1
  Si  Si107  1  0.919978  0.261211  0.348750  1
  Si  Si108  1  0.820555  0.593514  0.348754  1
  Si  Si109  1  0.746128  0.093690  0.348740  1
  Si  Si110  1  0.820574  0.406470  0.348752  1
  Si  Si111  1  0.733745  0.677027  0.282899  1
  Si  Si112  1  0.733773  0.322952  0.282895  1
  Si  Si113  1  0.833271  0.177828  0.282946  1
  Si  Si114  1  0.833244  0.822151  0.282947  1
  Si  Si115  1  0.363110  0.593915  0.475952  1
  Si  Si116  1  0.636820  0.406015  0.475960  1
  Si  Si117  1  0.636810  0.593929  0.475959  1
  Si  Si118  1  0.363129  0.405999  0.475958  1
  Si  Si119  1  0.352969  0.238560  0.348741  1
  Si  Si120  1  0.352953  0.761389  0.348742  1
  Si  Si121  1  0.646967  0.761403  0.348747  1
  Si  Si122  1  0.646991  0.238580  0.348741  1
  Si  Si123  1  0.499964  0.593322  0.428612  1
  Si  Si124  1  0.499976  0.406619  0.428611  1
  Si  Si125  1  0.499976  0.306018  0.348746  1
  Si  Si126  1  0.499962  0.693935  0.348750  1
  Si  Si127  1  0.363127  0.406015  0.221529  1
  Si  Si128  1  0.636804  0.593933  0.221541  1
  Si  Si129  1  0.636813  0.406019  0.221538  1
  Si  Si130  1  0.363120  0.593930  0.221531  1
  Si  Si131  1  0.499965  0.406625  0.268884  1
  Si  Si132  1  0.499957  0.593328  0.268887  1
  Si  Si133  1  0.266176  0.677035  0.414597  1
  Si  Si134  1  0.266190  0.322908  0.414598  1
  Si  Si135  1  0.166689  0.177785  0.414542  1
  Si  Si136  1  0.166677  0.822158  0.414534  1
  Si  Si137  1  0.253816  0.906278  0.348733  1
  Si  Si138  1  0.079981  0.261196  0.348747  1
  Si  Si139  1  0.179386  0.406454  0.348751  1
  Si  Si140  1  0.253827  0.093675  0.348736  1
  Si  Si141  1  0.079963  0.738756  0.348739  1
  Si  Si142  1  0.179370  0.593499  0.348747  1
  Si  Si143  1  0.266189  0.322938  0.282894  1
  Si  Si144  1  0.266178  0.677013  0.282892  1
  Si  Si145  1  0.166677  0.822134  0.282938  1
  Si  Si146  1  0.166687  0.177817  0.282942  1
  H  H147  1  0.862295  0.866299  0.480261  1
  H  H148  1  0.862313  0.133667  0.480259  1
  H  H149  1  0.862325  0.133687  0.217231  1
  H  H150  1  0.862303  0.866277  0.217230  1
  H  H151  1  0.362279  0.633628  0.546239  1
  H  H152  1  0.637625  0.366288  0.546244  1
  H  H153  1  0.637612  0.633644  0.546247  1
  H  H154  1  0.362309  0.366273  0.546242  1
  H  H155  1  0.362313  0.366259  0.151251  1
  H  H156  1  0.637603  0.633673  0.151259  1
  H  H157  1  0.637610  0.366270  0.151258  1
  H  H158  1  0.362302  0.633681  0.151253  1
  H  H159  1  0.137628  0.133642  0.480254  1
  H  H160  1  0.137606  0.866299  0.480244  1
  H  H161  1  0.137612  0.866258  0.217223  1
  H  H162  1  0.137622  0.133677  0.217231  1
