# generated using pymatgen
data_Si7H2O15
_symmetry_space_group_name_H-M   'P 1'
_cell_length_a   11.39954126
_cell_length_b   25.27156065
_cell_length_c   35.13569571
_cell_angle_alpha   90.00000000
_cell_angle_beta   90.00000000
_cell_angle_gamma   90.00000000
_symmetry_Int_Tables_number   1
_chemical_formula_structural   Si7H2O15
_chemical_formula_sum   'Si56 H16 O120'
_cell_volume   10122.0387303
_cell_formula_units_Z   8
loop_
 _symmetry_equiv_pos_site_id
 _symmetry_equiv_pos_as_xyz
  1  'x, y, z'
loop_
 _atom_site_type_symbol
 _atom_site_label
 _atom_site_symmetry_multiplicity
 _atom_site_fract_x
 _atom_site_fract_y
 _atom_site_fract_z
 _atom_site_occupancy
  O  O1  1  0.792129  0.898827  0.425791  1
  O  O2  1  0.207780  0.898829  0.425791  1
  O  O3  1  0.811307  0.800792  0.414584  1
  O  O4  1  0.188594  0.699167  0.414593  1
  O  O5  1  0.811302  0.699166  0.414585  1
  O  O6  1  0.188596  0.800793  0.414584  1
  O  O7  1  0.615368  0.834374  0.434956  1
  O  O8  1  0.384539  0.834376  0.434954  1
  O  O9  1  0.793426  0.832032  0.481923  1
  O  O10  1  0.206476  0.667907  0.481926  1
  O  O11  1  0.793440  0.667910  0.481919  1
  O  O12  1  0.206482  0.832033  0.481923  1
  O  O13  1  0.845567  0.929778  0.357786  1
  O  O14  1  -0.000000  0.930209  0.408279  1
  O  O15  1  0.000000  0.749978  0.403523  1
  O  O16  1  0.499960  0.819674  0.373103  1
  O  O17  1  0.499944  0.680266  0.373105  1
  O  O18  1  0.499947  0.749973  0.423767  1
  O  O19  1  0.154343  0.929781  0.357787  1
  O  O20  1  0.611942  0.336006  0.404961  1
  O  O21  1  0.387939  0.336003  0.404959  1
  O  O22  1  0.782420  0.399585  0.424105  1
  O  O23  1  0.217473  0.399587  0.424106  1
  O  O24  1  0.673665  0.338592  0.474395  1
  O  O25  1  0.326244  0.338594  0.474395  1
  O  O26  1  0.207767  0.601129  0.425781  1
  O  O27  1  0.792120  0.601129  0.425777  1
  O  O28  1  0.384532  0.665573  0.434957  1
  O  O29  1  0.615367  0.665576  0.434956  1
  O  O30  1  0.000000  0.428342  0.408507  1
  O  O31  1  0.154332  0.570172  0.357773  1
  O  O32  1  0.841954  0.499500  0.409043  1
  O  O33  1  0.157934  0.499502  0.409045  1
  O  O34  1  -0.000000  0.569751  0.408264  1
  O  O35  1  0.845557  0.570169  0.357771  1
  O  O36  1  0.807330  0.300478  0.424093  1
  O  O37  1  0.192563  0.199484  0.424103  1
  O  O38  1  0.807331  0.199481  0.424104  1
  O  O39  1  0.192554  0.300481  0.424100  1
  O  O40  1  0.387944  0.163955  0.404962  1
  O  O41  1  0.611949  0.163951  0.404965  1
  O  O42  1  0.217472  0.100376  0.424107  1
  O  O43  1  0.782428  0.100373  0.424107  1
  O  O44  1  0.326244  0.161363  0.474398  1
  O  O45  1  0.673659  0.161358  0.474400  1
  O  O46  1  0.706475  0.332033  0.547466  1
  O  O47  1  0.293431  0.167914  0.547468  1
  O  O48  1  0.706472  0.167915  0.547469  1
  O  O49  1  0.293429  0.332042  0.547464  1
  O  O50  1  0.654393  0.249976  0.508741  1
  O  O51  1  0.345506  0.249978  0.508744  1
  O  O52  1  0.499953  0.319086  0.518404  1
  O  O53  1  0.499950  0.180870  0.518409  1
  O  O54  1  -0.000000  0.071616  0.408508  1
  O  O55  1  0.841962  0.000000  0.409053  1
  O  O56  1  -0.000000  0.249978  0.413451  1
  O  O57  1  0.842959  0.249966  0.362730  1
  O  O58  1  0.156938  0.249977  0.362733  1
  O  O59  1  0.499951  0.249978  0.393979  1
  O  O60  1  0.157945  0.000000  0.409053  1
  O  O61  1  0.192566  0.800470  0.291294  1
  O  O62  1  0.807337  0.699471  0.291288  1
  O  O63  1  0.192577  0.699472  0.291288  1
  O  O64  1  0.807348  0.800467  0.291285  1
  O  O65  1  0.387957  0.835995  0.310429  1
  O  O66  1  0.611962  0.835990  0.310427  1
  O  O67  1  0.217480  0.899577  0.291291  1
  O  O68  1  0.782433  0.899575  0.291288  1
  O  O69  1  0.326233  0.838590  0.240996  1
  O  O70  1  0.673667  0.838591  0.240992  1
  O  O71  1  0.293422  0.832037  0.167927  1
  O  O72  1  0.706473  0.667910  0.167924  1
  O  O73  1  0.293418  0.667917  0.167920  1
  O  O74  1  0.706462  0.832036  0.167922  1
  O  O75  1  0.345504  0.749975  0.206648  1
  O  O76  1  0.654389  0.749975  0.206645  1
  O  O77  1  0.499945  0.819085  0.196987  1
  O  O78  1  0.499945  0.680868  0.196978  1
  O  O79  1  0.000000  0.928333  0.306888  1
  O  O80  1  0.157943  -0.000000  0.306344  1
  O  O81  1  0.841963  -0.000000  0.306344  1
  O  O82  1  0.000000  0.749965  0.301937  1
  O  O83  1  0.156943  0.749966  0.352658  1
  O  O84  1  0.842966  0.749975  0.352655  1
  O  O85  1  0.499950  0.749967  0.321410  1
  O  O86  1  0.611957  0.663943  0.310430  1
  O  O87  1  0.387954  0.663939  0.310427  1
  O  O88  1  0.782421  0.600363  0.291275  1
  O  O89  1  0.217473  0.600364  0.291276  1
  O  O90  1  0.673642  0.661360  0.240992  1
  O  O91  1  0.326247  0.661355  0.240989  1
  O  O92  1  0.207781  0.398820  0.289605  1
  O  O93  1  0.792129  0.398815  0.289602  1
  O  O94  1  0.384536  0.334368  0.280432  1
  O  O95  1  0.615368  0.334368  0.280433  1
  O  O96  1  0.000000  0.571606  0.306873  1
  O  O97  1  0.841957  0.500446  0.306334  1
  O  O98  1  0.157940  0.500449  0.306337  1
  O  O99  1  0.000000  0.430199  0.307116  1
  O  O100  1  0.845562  0.429778  0.357607  1
  O  O101  1  0.154335  0.429780  0.357609  1
  O  O102  1  0.792126  0.101116  0.289602  1
  O  O103  1  0.207773  0.101121  0.289603  1
  O  O104  1  0.188595  0.300784  0.300801  1
  O  O105  1  0.811314  0.199152  0.300799  1
  O  O106  1  0.188607  0.199158  0.300806  1
  O  O107  1  0.811308  0.300778  0.300801  1
  O  O108  1  0.615370  0.165569  0.280433  1
  O  O109  1  0.384541  0.165567  0.280437  1
  O  O110  1  0.206471  0.332035  0.233467  1
  O  O111  1  0.793429  0.167903  0.233463  1
  O  O112  1  0.206484  0.167914  0.233468  1
  O  O113  1  0.793424  0.332028  0.233465  1
  O  O114  1  0.000000  0.069741  0.307119  1
  O  O115  1  -0.000000  0.249967  0.311866  1
  O  O116  1  0.499948  0.319677  0.342284  1
  O  O117  1  0.499962  0.180269  0.342288  1
  O  O118  1  0.499952  0.249969  0.291623  1
  O  O119  1  0.154340  0.070172  0.357611  1
  O  O120  1  0.845560  0.070169  0.357610  1
  Si  Si121  1  0.499947  0.688803  0.417224  1
  Si  Si122  1  0.499953  0.811144  0.417223  1
  Si  Si123  1  0.750753  0.843023  0.440347  1
  Si  Si124  1  0.249153  0.843024  0.440347  1
  Si  Si125  1  0.864798  0.939639  0.401613  1
  Si  Si126  1  0.135111  0.939641  0.401614  1
  Si  Si127  1  0.864646  0.749978  0.396589  1
  Si  Si128  1  0.135258  0.749977  0.396593  1
  Si  Si129  1  0.864787  0.560317  0.401600  1
  Si  Si130  1  0.135100  0.560319  0.401601  1
  Si  Si131  1  0.717735  0.345806  0.432526  1
  Si  Si132  1  0.282158  0.345808  0.432528  1
  Si  Si133  1  0.249145  0.656927  0.440348  1
  Si  Si134  1  0.750755  0.656929  0.440343  1
  Si  Si135  1  0.864659  0.438669  0.401560  1
  Si  Si136  1  0.135233  0.438670  0.401562  1
  Si  Si137  1  0.282159  0.154154  0.432530  1
  Si  Si138  1  0.717738  0.154150  0.432531  1
  Si  Si139  1  0.635401  0.311173  0.512435  1
  Si  Si140  1  0.364502  0.188781  0.512438  1
  Si  Si141  1  0.635398  0.188779  0.512439  1
  Si  Si142  1  0.364503  0.311176  0.512435  1
  Si  Si143  1  0.135239  0.061289  0.401564  1
  Si  Si144  1  0.864664  0.061287  0.401564  1
  Si  Si145  1  0.864583  0.249976  0.406720  1
  Si  Si146  1  0.135306  0.249980  0.406723  1
  Si  Si147  1  0.499944  0.311244  0.386369  1
  Si  Si148  1  0.499952  0.188711  0.386371  1
  Si  Si149  1  0.282163  0.845799  0.282866  1
  Si  Si150  1  0.717748  0.845797  0.282861  1
  Si  Si151  1  0.364497  0.811172  0.202956  1
  Si  Si152  1  0.635393  0.688778  0.202951  1
  Si  Si153  1  0.364497  0.688778  0.202950  1
  Si  Si154  1  0.635394  0.811173  0.202953  1
  Si  Si155  1  0.135242  0.938663  0.313833  1
  Si  Si156  1  0.864668  0.938660  0.313832  1
  Si  Si157  1  0.135318  0.749968  0.308669  1
  Si  Si158  1  0.864596  0.749969  0.308665  1
  Si  Si159  1  0.499958  0.811234  0.329019  1
  Si  Si160  1  0.499950  0.688700  0.329021  1
  Si  Si161  1  0.864794  0.439630  0.313779  1
  Si  Si162  1  0.717734  0.654144  0.282859  1
  Si  Si163  1  0.282168  0.654142  0.282858  1
  Si  Si164  1  0.249149  0.343018  0.275043  1
  Si  Si165  1  0.750755  0.343014  0.275042  1
  Si  Si166  1  0.864659  0.561278  0.313818  1
  Si  Si167  1  0.135233  0.561281  0.313820  1
  Si  Si168  1  0.135108  0.439632  0.313781  1
  Si  Si169  1  0.499958  0.188799  0.298167  1
  Si  Si170  1  0.499951  0.311140  0.298165  1
  Si  Si171  1  0.750755  0.156919  0.275040  1
  Si  Si172  1  0.249154  0.156923  0.275045  1
  Si  Si173  1  0.864794  0.060308  0.313783  1
  Si  Si174  1  0.135107  0.060311  0.313783  1
  Si  Si175  1  0.135260  0.249971  0.318799  1
  Si  Si176  1  0.864648  0.249965  0.318796  1
  H  H177  1  0.793426  0.832032  0.507538  1
  H  H178  1  0.206476  0.667907  0.507541  1
  H  H179  1  0.793440  0.667910  0.507534  1
  H  H180  1  0.206482  0.832033  0.507538  1
  H  H181  1  0.706475  0.332033  0.573081  1
  H  H182  1  0.293431  0.167914  0.573082  1
  H  H183  1  0.706472  0.167915  0.573084  1
  H  H184  1  0.293429  0.332042  0.573079  1
  H  H185  1  0.293422  0.832037  0.142312  1
  H  H186  1  0.706473  0.667910  0.142309  1
  H  H187  1  0.293418  0.667917  0.142305  1
  H  H188  1  0.706462  0.832036  0.142307  1
  H  H189  1  0.206471  0.332035  0.207852  1
  H  H190  1  0.793429  0.167903  0.207848  1
  H  H191  1  0.206484  0.167914  0.207853  1
  H  H192  1  0.793424  0.332028  0.207850  1
