# generated using pymatgen
data_Si56H2O113
_symmetry_space_group_name_H-M   'P 1'
_cell_length_a   12.80769475
_cell_length_b   12.63554297
_cell_length_c   105.51850362
_cell_angle_alpha   90.00000000
_cell_angle_beta   90.00000000
_cell_angle_gamma   90.00000000
_symmetry_Int_Tables_number   1
_chemical_formula_structural   Si56H2O113
_chemical_formula_sum   'Si224 H8 O452'
_cell_volume   17076.2891919
_cell_formula_units_Z   4
loop_
 _symmetry_equiv_pos_site_id
 _symmetry_equiv_pos_as_xyz
  1  'x, y, z'
loop_
 _atom_site_type_symbol
 _atom_site_label
 _atom_site_symmetry_multiplicity
 _atom_site_fract_x
 _atom_site_fract_y
 _atom_site_fract_z
 _atom_site_occupancy
  O  O1  1  0.858237  0.329283  0.055915  1
  O  O2  1  0.858235  0.670862  0.055914  1
  O  O3  1  0.299656  0.142415  0.092975  1
  O  O4  1  0.299656  0.857732  0.092975  1
  O  O5  1  0.421806  0.000000  0.101498  1
  O  O6  1  0.344427  0.137877  0.115993  1
  O  O7  1  0.344429  0.862272  0.115993  1
  O  O8  1  0.487376  0.201899  0.101351  1
  O  O9  1  0.487377  0.798253  0.101352  1
  O  O10  1  0.176889  -0.000000  0.084718  1
  O  O11  1  0.111764  0.140589  0.099796  1
  O  O12  1  0.111765  0.859557  0.099796  1
  O  O13  1  0.151234  0.199471  0.076972  1
  O  O14  1  0.151234  0.800677  0.076972  1
  O  O15  1  0.037727  0.000000  0.114339  1
  O  O16  1  0.971460  0.200826  0.115402  1
  O  O17  1  0.971462  0.799322  0.115403  1
  O  O18  1  0.300452  0.500082  0.092669  1
  O  O19  1  0.342001  0.500075  0.115822  1
  O  O20  1  0.462179  0.399498  0.100838  1
  O  O21  1  0.462184  0.600656  0.100838  1
  O  O22  1  0.109683  0.500072  0.098787  1
  O  O23  1  0.169479  0.398424  0.079202  1
  O  O24  1  0.169471  0.601725  0.079202  1
  O  O25  1  0.996694  0.398600  0.114342  1
  O  O26  1  0.996695  0.601550  0.114341  1
  O  O27  1  0.835699  0.325818  0.104325  1
  O  O28  1  0.835699  0.674336  0.104325  1
  O  O29  1  0.567650  0.326974  0.118424  1
  O  O30  1  0.567652  0.673182  0.118425  1
  O  O31  1  0.647664  0.332568  0.096419  1
  O  O32  1  0.647666  0.667587  0.096420  1
  O  O33  1  0.995717  0.329355  0.072919  1
  O  O34  1  0.995714  0.670800  0.072919  1
  O  O35  1  0.141695  0.329284  0.056723  1
  O  O36  1  0.141695  0.670865  0.056723  1
  O  O37  1  0.759246  0.500078  0.096880  1
  O  O38  1  0.806649  0.359952  0.080599  1
  O  O39  1  0.806648  0.640202  0.080599  1
  O  O40  1  0.900633  0.500077  0.067881  1
  O  O41  1  0.658608  0.142426  0.187873  1
  O  O42  1  0.158635  0.142452  0.122911  1
  O  O43  1  0.158637  0.857696  0.122912  1
  O  O44  1  0.658598  0.857669  0.187874  1
  O  O45  1  0.780496  0.000000  0.179354  1
  O  O46  1  0.280528  0.000000  0.131432  1
  O  O47  1  0.811998  0.202824  0.172534  1
  O  O48  1  0.312017  0.202856  0.138250  1
  O  O49  1  0.312021  0.797295  0.138251  1
  O  O50  1  0.811986  0.797262  0.172535  1
  O  O51  1  0.790987  0.399315  0.174992  1
  O  O52  1  0.291010  0.399352  0.135794  1
  O  O53  1  0.291014  0.600803  0.135793  1
  O  O54  1  0.790991  0.600767  0.174991  1
  O  O55  1  0.354219  0.329294  0.182356  1
  O  O56  1  0.854242  0.329303  0.128429  1
  O  O57  1  0.854247  0.670830  0.128430  1
  O  O58  1  0.354217  0.670813  0.182357  1
  O  O59  1  0.835261  0.329889  0.153041  1
  O  O60  1  0.335265  0.329899  0.157745  1
  O  O61  1  0.335258  0.670232  0.157745  1
  O  O62  1  0.835272  0.670222  0.153041  1
  O  O63  1  0.971612  0.331749  0.171038  1
  O  O64  1  0.471632  0.331777  0.139748  1
  O  O65  1  0.471635  0.668371  0.139749  1
  O  O66  1  0.971613  0.668352  0.171040  1
  O  O67  1  0.316497  0.500058  0.170574  1
  O  O68  1  0.816518  0.500063  0.140211  1
  O  O69  1  0.176462  0.361093  0.172359  1
  O  O70  1  0.676480  0.361109  0.138425  1
  O  O71  1  0.676485  0.639030  0.138426  1
  O  O72  1  0.176459  0.639014  0.172360  1
  O  O73  1  0.054055  0.500047  0.180131  1
  O  O74  1  0.554074  0.500075  0.130655  1
  O  O75  1  0.154380  0.500079  0.122377  1
  O  O76  1  0.654352  0.500051  0.188408  1
  O  O77  1  0.799626  0.142382  0.217810  1
  O  O78  1  0.799617  0.857700  0.217811  1
  O  O79  1  0.921772  0.000000  0.209288  1
  O  O80  1  0.844399  0.137843  0.194792  1
  O  O81  1  0.844390  0.862238  0.194793  1
  O  O82  1  0.987351  0.201859  0.209434  1
  O  O83  1  0.987338  0.798214  0.209435  1
  O  O84  1  0.676855  -0.000000  0.226068  1
  O  O85  1  0.611736  0.140563  0.210989  1
  O  O86  1  0.611726  0.859532  0.210990  1
  O  O87  1  0.651206  0.199441  0.233814  1
  O  O88  1  0.651197  0.800644  0.233814  1
  O  O89  1  0.537693  -0.000000  0.196446  1
  O  O90  1  0.471435  0.200805  0.195382  1
  O  O91  1  0.471422  0.799299  0.195384  1
  O  O92  1  0.800423  0.500030  0.218116  1
  O  O93  1  0.841972  0.500041  0.194963  1
  O  O94  1  0.962154  0.399455  0.209947  1
  O  O95  1  0.962152  0.600614  0.209948  1
  O  O96  1  0.609658  0.500046  0.211999  1
  O  O97  1  0.669442  0.398390  0.231584  1
  O  O98  1  0.669454  0.601694  0.231583  1
  O  O99  1  0.496666  0.398577  0.196444  1
  O  O100  1  0.496667  0.601527  0.196445  1
  O  O101  1  0.335673  0.325788  0.206461  1
  O  O102  1  0.335663  0.674301  0.206461  1
  O  O103  1  0.067635  0.326937  0.192361  1
  O  O104  1  0.067633  0.673145  0.192363  1
  O  O105  1  0.147639  0.332528  0.214366  1
  O  O106  1  0.147633  0.667550  0.214368  1
  O  O107  1  0.495686  0.329314  0.237867  1
  O  O108  1  0.495690  0.670753  0.237867  1
  O  O109  1  0.641674  0.329245  0.254062  1
  O  O110  1  0.641674  0.670825  0.254062  1
  O  O111  1  0.259214  0.500041  0.213907  1
  O  O112  1  0.306620  0.359912  0.230187  1
  O  O113  1  0.306622  0.640163  0.230188  1
  O  O114  1  0.400604  0.500033  0.242905  1
  O  O115  1  0.200265  0.142373  0.291124  1
  O  O116  1  0.200271  0.857692  0.291124  1
  O  O117  1  0.078119  0.000000  0.299646  1
  O  O118  1  0.155496  0.137831  0.314142  1
  O  O119  1  0.155503  0.862226  0.314141  1
  O  O120  1  0.012544  0.201851  0.299501  1
  O  O121  1  0.012551  0.798207  0.299499  1
  O  O122  1  0.323034  0.000000  0.282866  1
  O  O123  1  0.388157  0.140553  0.297945  1
  O  O124  1  0.388165  0.859522  0.297944  1
  O  O125  1  0.348683  0.199433  0.275120  1
  O  O126  1  0.348689  0.800637  0.275120  1
  O  O127  1  0.462201  0.000000  0.312487  1
  O  O128  1  0.528461  0.200792  0.313551  1
  O  O129  1  0.528472  0.799287  0.313550  1
  O  O130  1  0.199471  0.500028  0.290818  1
  O  O131  1  0.157922  0.500032  0.313971  1
  O  O132  1  0.037740  0.399448  0.298987  1
  O  O133  1  0.037741  0.600608  0.298986  1
  O  O134  1  0.390237  0.500041  0.296935  1
  O  O135  1  0.330446  0.398382  0.277351  1
  O  O136  1  0.330440  0.601685  0.277350  1
  O  O137  1  0.503230  0.398564  0.312489  1
  O  O138  1  0.503230  0.601514  0.312490  1
  O  O139  1  0.664225  0.325777  0.302473  1
  O  O140  1  0.664229  0.674288  0.302473  1
  O  O141  1  0.932262  0.326929  0.316573  1
  O  O142  1  0.932263  0.673135  0.316572  1
  O  O143  1  0.852256  0.332519  0.294567  1
  O  O144  1  0.852260  0.667541  0.294567  1
  O  O145  1  0.504201  0.329311  0.271067  1
  O  O146  1  0.504201  0.670751  0.271067  1
  O  O147  1  0.358212  0.329246  0.254872  1
  O  O148  1  0.358217  0.670824  0.254872  1
  O  O149  1  0.740680  0.500030  0.295027  1
  O  O150  1  0.693270  0.359905  0.278747  1
  O  O151  1  0.693271  0.640157  0.278746  1
  O  O152  1  0.599285  0.500031  0.266029  1
  O  O153  1  0.841295  0.142442  0.386022  1
  O  O154  1  0.341289  0.142412  0.321060  1
  O  O155  1  0.341298  0.857655  0.321059  1
  O  O156  1  0.841296  0.857686  0.386022  1
  O  O157  1  0.719403  0.000000  0.377502  1
  O  O158  1  0.219402  0.000000  0.329580  1
  O  O159  1  0.687911  0.202843  0.370683  1
  O  O160  1  0.187901  0.202808  0.336400  1
  O  O161  1  0.187915  0.797248  0.336399  1
  O  O162  1  0.687908  0.797281  0.370683  1
  O  O163  1  0.708916  0.399338  0.373140  1
  O  O164  1  0.208909  0.399298  0.333941  1
  O  O165  1  0.208909  0.600751  0.333943  1
  O  O166  1  0.708913  0.600789  0.373140  1
  O  O167  1  0.145688  0.329291  0.380504  1
  O  O168  1  0.645676  0.329280  0.326578  1
  O  O169  1  0.645683  0.670807  0.326578  1
  O  O170  1  0.145681  0.670815  0.380504  1
  O  O171  1  0.664644  0.329887  0.351189  1
  O  O172  1  0.164650  0.329876  0.355893  1
  O  O173  1  0.164642  0.670208  0.355893  1
  O  O174  1  0.664650  0.670219  0.351189  1
  O  O175  1  0.528292  0.331760  0.369187  1
  O  O176  1  0.028285  0.331734  0.337897  1
  O  O177  1  0.028289  0.668338  0.337895  1
  O  O178  1  0.528289  0.668359  0.369186  1
  O  O179  1  0.183406  0.500048  0.368722  1
  O  O180  1  0.683401  0.500046  0.338359  1
  O  O181  1  0.323446  0.361094  0.370508  1
  O  O182  1  0.823435  0.361082  0.336574  1
  O  O183  1  0.823440  0.639000  0.336574  1
  O  O184  1  0.323441  0.639015  0.370508  1
  O  O185  1  0.445850  0.500059  0.378279  1
  O  O186  1  0.945847  0.500035  0.328804  1
  O  O187  1  0.345545  0.500035  0.320526  1
  O  O188  1  0.845549  0.500066  0.386557  1
  O  O189  1  0.700275  0.142408  0.415959  1
  O  O190  1  0.700279  0.857725  0.415959  1
  O  O191  1  0.578127  0.000000  0.407437  1
  O  O192  1  0.655503  0.137865  0.392941  1
  O  O193  1  0.655505  0.862261  0.392940  1
  O  O194  1  0.512554  0.201886  0.407583  1
  O  O195  1  0.512557  0.798241  0.407582  1
  O  O196  1  0.823044  0.000000  0.424216  1
  O  O197  1  0.888166  0.140584  0.409138  1
  O  O198  1  0.888169  0.859552  0.409137  1
  O  O199  1  0.848697  0.199466  0.431963  1
  O  O200  1  0.848699  0.800673  0.431962  1
  O  O201  1  0.962204  -0.000000  0.394595  1
  O  O202  1  0.028469  0.200818  0.393532  1
  O  O203  1  0.028471  0.799315  0.393531  1
  O  O204  1  0.699478  0.500067  0.416265  1
  O  O205  1  0.657929  0.500060  0.393112  1
  O  O206  1  0.537750  0.399484  0.408096  1
  O  O207  1  0.537749  0.600643  0.408096  1
  O  O208  1  0.890247  0.500060  0.410147  1
  O  O209  1  0.830454  0.398419  0.429732  1
  O  O210  1  0.830458  0.601721  0.429731  1
  O  O211  1  0.003239  0.398593  0.394592  1
  O  O212  1  0.003232  0.601544  0.394593  1
  O  O213  1  0.164231  0.325809  0.404609  1
  O  O214  1  0.164232  0.674327  0.404609  1
  O  O215  1  0.432272  0.326959  0.390510  1
  O  O216  1  0.432273  0.673166  0.390509  1
  O  O217  1  0.352267  0.332557  0.412515  1
  O  O218  1  0.352268  0.667577  0.412514  1
  O  O219  1  0.004214  0.329349  0.436015  1
  O  O220  1  0.004215  0.670794  0.436015  1
  O  O221  1  0.858237  0.329283  0.452211  1
  O  O222  1  0.858235  0.670862  0.452211  1
  O  O223  1  0.240686  0.500068  0.412054  1
  O  O224  1  0.193282  0.359946  0.428335  1
  O  O225  1  0.193284  0.640196  0.428335  1
  O  O226  1  0.099299  0.500073  0.441052  1
  O  O227  1  0.299656  0.142415  0.489271  1
  O  O228  1  0.299656  0.857732  0.489271  1
  O  O229  1  0.421806  -0.000000  0.497794  1
  O  O230  1  0.344427  0.137877  0.512289  1
  O  O231  1  0.344429  0.862272  0.512289  1
  O  O232  1  0.487376  0.201899  0.497647  1
  O  O233  1  0.487377  0.798253  0.497648  1
  O  O234  1  0.176889  0.000000  0.481014  1
  O  O235  1  0.111764  0.140589  0.496092  1
  O  O236  1  0.111765  0.859557  0.496092  1
  O  O237  1  0.151234  0.199471  0.473268  1
  O  O238  1  0.151234  0.800677  0.473268  1
  O  O239  1  0.037727  0.000000  0.510635  1
  O  O240  1  0.971460  0.200826  0.511698  1
  O  O241  1  0.971462  0.799322  0.511699  1
  O  O242  1  0.300452  0.500082  0.488965  1
  O  O243  1  0.342001  0.500075  0.512118  1
  O  O244  1  0.462179  0.399498  0.497134  1
  O  O245  1  0.462184  0.600656  0.497135  1
  O  O246  1  0.109683  0.500072  0.495083  1
  O  O247  1  0.169479  0.398424  0.475498  1
  O  O248  1  0.169471  0.601725  0.475498  1
  O  O249  1  0.996694  0.398600  0.510638  1
  O  O250  1  0.996695  0.601550  0.510637  1
  O  O251  1  0.835699  0.325818  0.500621  1
  O  O252  1  0.835699  0.674336  0.500621  1
  O  O253  1  0.567650  0.326974  0.514720  1
  O  O254  1  0.567652  0.673182  0.514721  1
  O  O255  1  0.647664  0.332568  0.492716  1
  O  O256  1  0.647666  0.667587  0.492716  1
  O  O257  1  0.995717  0.329355  0.469215  1
  O  O258  1  0.995714  0.670800  0.469215  1
  O  O259  1  0.141695  0.329284  0.453019  1
  O  O260  1  0.141695  0.670865  0.453019  1
  O  O261  1  0.759246  0.500078  0.493176  1
  O  O262  1  0.806649  0.359952  0.476895  1
  O  O263  1  0.806648  0.640202  0.476895  1
  O  O264  1  0.900633  0.500077  0.464177  1
  O  O265  1  0.658608  0.142426  0.584170  1
  O  O266  1  0.158635  0.142452  0.519208  1
  O  O267  1  0.158637  0.857696  0.519208  1
  O  O268  1  0.658598  0.857669  0.584170  1
  O  O269  1  0.780496  0.000000  0.575650  1
  O  O270  1  0.280528  0.000000  0.527728  1
  O  O271  1  0.811998  0.202824  0.568831  1
  O  O272  1  0.312017  0.202856  0.534546  1
  O  O273  1  0.312021  0.797295  0.534547  1
  O  O274  1  0.811986  0.797262  0.568831  1
  O  O275  1  0.790987  0.399315  0.571288  1
  O  O276  1  0.291010  0.399352  0.532090  1
  O  O277  1  0.291014  0.600803  0.532090  1
  O  O278  1  0.790991  0.600767  0.571288  1
  O  O279  1  0.354219  0.329294  0.578652  1
  O  O280  1  0.854242  0.329303  0.524726  1
  O  O281  1  0.854247  0.670830  0.524726  1
  O  O282  1  0.354217  0.670813  0.578653  1
  O  O283  1  0.835261  0.329889  0.549337  1
  O  O284  1  0.335265  0.329899  0.554041  1
  O  O285  1  0.335258  0.670232  0.554041  1
  O  O286  1  0.835272  0.670222  0.549338  1
  O  O287  1  0.971612  0.331749  0.567334  1
  O  O288  1  0.471632  0.331777  0.536044  1
  O  O289  1  0.471635  0.668371  0.536045  1
  O  O290  1  0.971613  0.668352  0.567336  1
  O  O291  1  0.316497  0.500058  0.566870  1
  O  O292  1  0.816518  0.500063  0.536507  1
  O  O293  1  0.176462  0.361093  0.568655  1
  O  O294  1  0.676480  0.361109  0.534721  1
  O  O295  1  0.676485  0.639030  0.534722  1
  O  O296  1  0.176459  0.639014  0.568657  1
  O  O297  1  0.054055  0.500047  0.576427  1
  O  O298  1  0.554074  0.500075  0.526952  1
  O  O299  1  0.154380  0.500079  0.518673  1
  O  O300  1  0.654352  0.500051  0.584704  1
  O  O301  1  0.799626  0.142382  0.614106  1
  O  O302  1  0.799617  0.857700  0.614107  1
  O  O303  1  0.921772  0.000000  0.605584  1
  O  O304  1  0.844399  0.137843  0.591088  1
  O  O305  1  0.844390  0.862238  0.591089  1
  O  O306  1  0.987351  0.201859  0.605730  1
  O  O307  1  0.987338  0.798214  0.605731  1
  O  O308  1  0.676855  -0.000000  0.622364  1
  O  O309  1  0.611736  0.140563  0.607285  1
  O  O310  1  0.611726  0.859532  0.607286  1
  O  O311  1  0.651206  0.199441  0.630110  1
  O  O312  1  0.651197  0.800644  0.630111  1
  O  O313  1  0.537693  0.000000  0.592742  1
  O  O314  1  0.471435  0.200805  0.591679  1
  O  O315  1  0.471422  0.799299  0.591680  1
  O  O316  1  0.800423  0.500030  0.614413  1
  O  O317  1  0.841972  0.500041  0.591259  1
  O  O318  1  0.962154  0.399455  0.606243  1
  O  O319  1  0.962152  0.600614  0.606245  1
  O  O320  1  0.609658  0.500046  0.608295  1
  O  O321  1  0.669442  0.398390  0.627880  1
  O  O322  1  0.669454  0.601694  0.627879  1
  O  O323  1  0.496666  0.398577  0.592740  1
  O  O324  1  0.496667  0.601527  0.592741  1
  O  O325  1  0.335673  0.325788  0.602757  1
  O  O326  1  0.335663  0.674301  0.602757  1
  O  O327  1  0.067635  0.326937  0.588657  1
  O  O328  1  0.067633  0.673145  0.588659  1
  O  O329  1  0.147639  0.332528  0.610662  1
  O  O330  1  0.147633  0.667550  0.610664  1
  O  O331  1  0.495686  0.329314  0.634163  1
  O  O332  1  0.495690  0.670753  0.634163  1
  O  O333  1  0.641674  0.329245  0.650359  1
  O  O334  1  0.641674  0.670825  0.650359  1
  O  O335  1  0.259214  0.500041  0.610203  1
  O  O336  1  0.306620  0.359912  0.626483  1
  O  O337  1  0.306622  0.640163  0.626484  1
  O  O338  1  0.400604  0.500033  0.639201  1
  O  O339  1  0.200265  0.142373  0.687420  1
  O  O340  1  0.200271  0.857692  0.687420  1
  O  O341  1  0.078119  -0.000000  0.695943  1
  O  O342  1  0.155496  0.137831  0.710438  1
  O  O343  1  0.155503  0.862226  0.710438  1
  O  O344  1  0.012544  0.201851  0.695797  1
  O  O345  1  0.012551  0.798207  0.695796  1
  O  O346  1  0.323034  0.000000  0.679162  1
  O  O347  1  0.388157  0.140553  0.694241  1
  O  O348  1  0.388165  0.859522  0.694240  1
  O  O349  1  0.348683  0.199433  0.671416  1
  O  O350  1  0.348689  0.800637  0.671416  1
  O  O351  1  0.462201  0.000000  0.708783  1
  O  O352  1  0.528461  0.200792  0.709847  1
  O  O353  1  0.528472  0.799287  0.709846  1
  O  O354  1  0.199471  0.500028  0.687114  1
  O  O355  1  0.157922  0.500032  0.710267  1
  O  O356  1  0.037740  0.399448  0.695283  1
  O  O357  1  0.037741  0.600608  0.695282  1
  O  O358  1  0.390237  0.500041  0.693232  1
  O  O359  1  0.330446  0.398382  0.673647  1
  O  O360  1  0.330440  0.601685  0.673647  1
  O  O361  1  0.503230  0.398564  0.708785  1
  O  O362  1  0.503230  0.601514  0.708786  1
  O  O363  1  0.664225  0.325777  0.698769  1
  O  O364  1  0.664229  0.674288  0.698769  1
  O  O365  1  0.932262  0.326929  0.712869  1
  O  O366  1  0.932263  0.673135  0.712868  1
  O  O367  1  0.852256  0.332519  0.690864  1
  O  O368  1  0.852260  0.667541  0.690863  1
  O  O369  1  0.504201  0.329311  0.667363  1
  O  O370  1  0.504201  0.670751  0.667363  1
  O  O371  1  0.358212  0.329246  0.651168  1
  O  O372  1  0.358217  0.670824  0.651168  1
  O  O373  1  0.740680  0.500030  0.691323  1
  O  O374  1  0.693270  0.359905  0.675043  1
  O  O375  1  0.693271  0.640157  0.675042  1
  O  O376  1  0.599285  0.500031  0.662326  1
  O  O377  1  0.841295  0.142442  0.782318  1
  O  O378  1  0.341289  0.142412  0.717356  1
  O  O379  1  0.341298  0.857655  0.717356  1
  O  O380  1  0.841296  0.857686  0.782318  1
  O  O381  1  0.719403  0.000000  0.773798  1
  O  O382  1  0.219402  0.000000  0.725876  1
  O  O383  1  0.687911  0.202843  0.766979  1
  O  O384  1  0.187901  0.202808  0.732696  1
  O  O385  1  0.187915  0.797248  0.732695  1
  O  O386  1  0.687908  0.797281  0.766979  1
  O  O387  1  0.708916  0.399338  0.769436  1
  O  O388  1  0.208909  0.399298  0.730238  1
  O  O389  1  0.208909  0.600751  0.730239  1
  O  O390  1  0.708913  0.600789  0.769436  1
  O  O391  1  0.145688  0.329291  0.776800  1
  O  O392  1  0.645676  0.329280  0.722874  1
  O  O393  1  0.645683  0.670807  0.722874  1
  O  O394  1  0.145681  0.670815  0.776800  1
  O  O395  1  0.664644  0.329887  0.747486  1
  O  O396  1  0.164650  0.329876  0.752189  1
  O  O397  1  0.164642  0.670208  0.752189  1
  O  O398  1  0.664650  0.670219  0.747485  1
  O  O399  1  0.528292  0.331760  0.765483  1
  O  O400  1  0.028285  0.331734  0.734193  1
  O  O401  1  0.028289  0.668338  0.734191  1
  O  O402  1  0.528289  0.668359  0.765482  1
  O  O403  1  0.183406  0.500048  0.765019  1
  O  O404  1  0.683401  0.500046  0.734656  1
  O  O405  1  0.323446  0.361094  0.766804  1
  O  O406  1  0.823435  0.361082  0.732870  1
  O  O407  1  0.823440  0.639000  0.732870  1
  O  O408  1  0.323441  0.639015  0.766804  1
  O  O409  1  0.445850  0.500059  0.774575  1
  O  O410  1  0.945847  0.500035  0.725100  1
  O  O411  1  0.345545  0.500035  0.716822  1
  O  O412  1  0.845549  0.500066  0.782853  1
  O  O413  1  0.700275  0.142408  0.812255  1
  O  O414  1  0.700279  0.857725  0.812255  1
  O  O415  1  0.578127  0.000000  0.803733  1
  O  O416  1  0.655503  0.137865  0.789237  1
  O  O417  1  0.655505  0.862261  0.789237  1
  O  O418  1  0.512554  0.201886  0.803879  1
  O  O419  1  0.512557  0.798241  0.803878  1
  O  O420  1  0.823044  -0.000000  0.820512  1
  O  O421  1  0.888166  0.140584  0.805434  1
  O  O422  1  0.888169  0.859552  0.805434  1
  O  O423  1  0.848697  0.199466  0.828259  1
  O  O424  1  0.848699  0.800673  0.828258  1
  O  O425  1  0.962204  0.000000  0.790891  1
  O  O426  1  0.028469  0.200818  0.789828  1
  O  O427  1  0.028471  0.799315  0.789827  1
  O  O428  1  0.699478  0.500067  0.812561  1
  O  O429  1  0.657929  0.500060  0.789408  1
  O  O430  1  0.537750  0.399484  0.804392  1
  O  O431  1  0.537749  0.600643  0.804392  1
  O  O432  1  0.890247  0.500060  0.806443  1
  O  O433  1  0.830454  0.398419  0.826028  1
  O  O434  1  0.830458  0.601721  0.826028  1
  O  O435  1  0.003239  0.398593  0.790888  1
  O  O436  1  0.003232  0.601544  0.790889  1
  O  O437  1  0.164231  0.325809  0.800905  1
  O  O438  1  0.164232  0.674327  0.800905  1
  O  O439  1  0.432272  0.326959  0.786806  1
  O  O440  1  0.432273  0.673166  0.786805  1
  O  O441  1  0.352267  0.332557  0.808811  1
  O  O442  1  0.352268  0.667577  0.808810  1
  O  O443  1  0.004214  0.329349  0.832312  1
  O  O444  1  0.004215  0.670794  0.832311  1
  O  O445  1  0.858237  0.329283  0.848507  1
  O  O446  1  0.858235  0.670862  0.848507  1
  O  O447  1  0.240686  0.500068  0.808350  1
  O  O448  1  0.193282  0.359946  0.824631  1
  O  O449  1  0.193284  0.640196  0.824631  1
  O  O450  1  0.099299  0.500073  0.837349  1
  O  O451  1  0.141695  0.329284  0.849316  1
  O  O452  1  0.141695  0.670865  0.849315  1
  Si  Si453  1  0.885960  0.622985  0.069367  1
  Si  Si454  1  0.393204  0.121579  0.102480  1
  Si  Si455  1  0.393202  0.878571  0.102480  1
  Si  Si456  1  0.184673  0.121840  0.087994  1
  Si  Si457  1  0.184673  0.878306  0.087995  1
  Si  Si458  1  0.065114  0.121782  0.113407  1
  Si  Si459  1  0.065116  0.878364  0.113407  1
  Si  Si460  1  0.392598  0.500077  0.102315  1
  Si  Si461  1  0.187038  0.500076  0.087281  1
  Si  Si462  1  0.063245  0.500075  0.112500  1
  Si  Si463  1  0.912837  0.310239  0.115663  1
  Si  Si464  1  0.912839  0.689909  0.115664  1
  Si  Si465  1  0.543758  0.311007  0.103948  1
  Si  Si466  1  0.543760  0.689146  0.103949  1
  Si  Si467  1  0.116361  0.309253  0.071215  1
  Si  Si468  1  0.116359  0.690898  0.071215  1
  Si  Si469  1  0.760974  0.377569  0.094320  1
  Si  Si470  1  0.760975  0.622585  0.094320  1
  Si  Si471  1  0.885963  0.377166  0.069367  1
  Si  Si472  1  0.773266  0.121568  0.182844  1
  Si  Si473  1  0.273292  0.121598  0.127942  1
  Si  Si474  1  0.273294  0.878549  0.127942  1
  Si  Si475  1  0.773256  0.878520  0.182844  1
  Si  Si476  1  0.768435  0.500044  0.183121  1
  Si  Si477  1  0.268463  0.500078  0.127664  1
  Si  Si478  1  0.853468  0.312677  0.167555  1
  Si  Si479  1  0.353485  0.312707  0.143231  1
  Si  Si480  1  0.353487  0.687442  0.143232  1
  Si  Si481  1  0.853469  0.687416  0.167556  1
  Si  Si482  1  0.297313  0.377652  0.170618  1
  Si  Si483  1  0.797330  0.377656  0.140167  1
  Si  Si484  1  0.797334  0.622472  0.140167  1
  Si  Si485  1  0.297311  0.622466  0.170618  1
  Si  Si486  1  0.066740  0.377145  0.178761  1
  Si  Si487  1  0.566755  0.377173  0.132025  1
  Si  Si488  1  0.566757  0.622977  0.132025  1
  Si  Si489  1  0.066740  0.622950  0.178762  1
  Si  Si490  1  0.385935  0.622946  0.241419  1
  Si  Si491  1  0.893174  0.121542  0.208305  1
  Si  Si492  1  0.893165  0.878534  0.208306  1
  Si  Si493  1  0.684646  0.121808  0.222790  1
  Si  Si494  1  0.684636  0.878276  0.222791  1
  Si  Si495  1  0.565088  0.121758  0.197378  1
  Si  Si496  1  0.565078  0.878341  0.197379  1
  Si  Si497  1  0.892571  0.500034  0.208471  1
  Si  Si498  1  0.687014  0.500042  0.223504  1
  Si  Si499  1  0.563218  0.500053  0.198285  1
  Si  Si500  1  0.412810  0.310219  0.195122  1
  Si  Si501  1  0.412804  0.689882  0.195123  1
  Si  Si502  1  0.043734  0.310966  0.206837  1
  Si  Si503  1  0.043726  0.689109  0.206839  1
  Si  Si504  1  0.616333  0.309216  0.239570  1
  Si  Si505  1  0.616336  0.690863  0.239570  1
  Si  Si506  1  0.260943  0.377532  0.216466  1
  Si  Si507  1  0.260941  0.622550  0.216466  1
  Si  Si508  1  0.385930  0.377125  0.241419  1
  Si  Si509  1  0.613957  0.622943  0.267516  1
  Si  Si510  1  0.106720  0.121535  0.300629  1
  Si  Si511  1  0.106724  0.878525  0.300628  1
  Si  Si512  1  0.315246  0.121802  0.286143  1
  Si  Si513  1  0.315252  0.878269  0.286143  1
  Si  Si514  1  0.434808  0.121747  0.311556  1
  Si  Si515  1  0.434817  0.878329  0.311555  1
  Si  Si516  1  0.107323  0.500029  0.300464  1
  Si  Si517  1  0.312880  0.500035  0.285430  1
  Si  Si518  1  0.436677  0.500040  0.310649  1
  Si  Si519  1  0.587085  0.310206  0.313812  1
  Si  Si520  1  0.587092  0.689870  0.313811  1
  Si  Si521  1  0.956162  0.310961  0.302097  1
  Si  Si522  1  0.956164  0.689100  0.302096  1
  Si  Si523  1  0.383554  0.309211  0.269364  1
  Si  Si524  1  0.383556  0.690856  0.269364  1
  Si  Si525  1  0.738950  0.377523  0.292468  1
  Si  Si526  1  0.738952  0.622540  0.292468  1
  Si  Si527  1  0.613957  0.377123  0.267516  1
  Si  Si528  1  0.726638  0.121586  0.380992  1
  Si  Si529  1  0.226632  0.121555  0.326091  1
  Si  Si530  1  0.226640  0.878505  0.326090  1
  Si  Si531  1  0.726637  0.878537  0.380992  1
  Si  Si532  1  0.731468  0.500064  0.381270  1
  Si  Si533  1  0.231460  0.500028  0.325813  1
  Si  Si534  1  0.646439  0.312693  0.365703  1
  Si  Si535  1  0.146430  0.312663  0.341379  1
  Si  Si536  1  0.146433  0.687400  0.341379  1
  Si  Si537  1  0.646437  0.687429  0.365703  1
  Si  Si538  1  0.202593  0.377641  0.368766  1
  Si  Si539  1  0.702586  0.377640  0.338315  1
  Si  Si540  1  0.702590  0.622454  0.338316  1
  Si  Si541  1  0.202589  0.622457  0.368766  1
  Si  Si542  1  0.433166  0.377157  0.376909  1
  Si  Si543  1  0.933162  0.377134  0.330174  1
  Si  Si544  1  0.933162  0.622937  0.330173  1
  Si  Si545  1  0.433165  0.622963  0.376909  1
  Si  Si546  1  0.113972  0.622981  0.439566  1
  Si  Si547  1  0.606728  0.121568  0.406454  1
  Si  Si548  1  0.606730  0.878559  0.406454  1
  Si  Si549  1  0.815258  0.121837  0.420940  1
  Si  Si550  1  0.815260  0.878302  0.420939  1
  Si  Si551  1  0.934816  0.121776  0.395527  1
  Si  Si552  1  0.934817  0.878356  0.395526  1
  Si  Si553  1  0.607333  0.500064  0.406619  1
  Si  Si554  1  0.812893  0.500067  0.421653  1
  Si  Si555  1  0.936684  0.500066  0.396434  1
  Si  Si556  1  0.087093  0.310232  0.393271  1
  Si  Si557  1  0.087092  0.689898  0.393271  1
  Si  Si558  1  0.456171  0.310994  0.404986  1
  Si  Si559  1  0.456172  0.689135  0.404985  1
  Si  Si560  1  0.883571  0.309248  0.437719  1
  Si  Si561  1  0.883572  0.690891  0.437718  1
  Si  Si562  1  0.238956  0.377561  0.414614  1
  Si  Si563  1  0.238957  0.622577  0.414614  1
  Si  Si564  1  0.113969  0.377163  0.439567  1
  Si  Si565  1  0.885960  0.622985  0.465664  1
  Si  Si566  1  0.393204  0.121579  0.498776  1
  Si  Si567  1  0.393202  0.878571  0.498776  1
  Si  Si568  1  0.184673  0.121840  0.484290  1
  Si  Si569  1  0.184673  0.878306  0.484291  1
  Si  Si570  1  0.065114  0.121782  0.509703  1
  Si  Si571  1  0.065116  0.878364  0.509704  1
  Si  Si572  1  0.392598  0.500077  0.498611  1
  Si  Si573  1  0.187038  0.500076  0.483577  1
  Si  Si574  1  0.063245  0.500075  0.508796  1
  Si  Si575  1  0.912837  0.310239  0.511959  1
  Si  Si576  1  0.912839  0.689909  0.511960  1
  Si  Si577  1  0.543758  0.311007  0.500244  1
  Si  Si578  1  0.543760  0.689146  0.500245  1
  Si  Si579  1  0.116361  0.309253  0.467512  1
  Si  Si580  1  0.116359  0.690898  0.467512  1
  Si  Si581  1  0.760974  0.377569  0.490616  1
  Si  Si582  1  0.760975  0.622585  0.490616  1
  Si  Si583  1  0.885963  0.377166  0.465664  1
  Si  Si584  1  0.773266  0.121568  0.579140  1
  Si  Si585  1  0.273292  0.121598  0.524238  1
  Si  Si586  1  0.273294  0.878549  0.524239  1
  Si  Si587  1  0.773256  0.878520  0.579141  1
  Si  Si588  1  0.768435  0.500044  0.579418  1
  Si  Si589  1  0.268463  0.500078  0.523960  1
  Si  Si590  1  0.853468  0.312677  0.563851  1
  Si  Si591  1  0.353485  0.312707  0.539527  1
  Si  Si592  1  0.353487  0.687442  0.539528  1
  Si  Si593  1  0.853469  0.687416  0.563852  1
  Si  Si594  1  0.297313  0.377652  0.566914  1
  Si  Si595  1  0.797330  0.377656  0.536463  1
  Si  Si596  1  0.797334  0.622472  0.536463  1
  Si  Si597  1  0.297311  0.622466  0.566914  1
  Si  Si598  1  0.066740  0.377145  0.575057  1
  Si  Si599  1  0.566755  0.377173  0.528321  1
  Si  Si600  1  0.566757  0.622977  0.528322  1
  Si  Si601  1  0.066740  0.622950  0.575058  1
  Si  Si602  1  0.385935  0.622946  0.637715  1
  Si  Si603  1  0.893174  0.121542  0.604601  1
  Si  Si604  1  0.893165  0.878534  0.604602  1
  Si  Si605  1  0.684646  0.121808  0.619086  1
  Si  Si606  1  0.684636  0.878276  0.619087  1
  Si  Si607  1  0.565088  0.121758  0.593674  1
  Si  Si608  1  0.565078  0.878341  0.593675  1
  Si  Si609  1  0.892571  0.500034  0.604767  1
  Si  Si610  1  0.687014  0.500042  0.619800  1
  Si  Si611  1  0.563218  0.500053  0.594582  1
  Si  Si612  1  0.412810  0.310219  0.591418  1
  Si  Si613  1  0.412804  0.689882  0.591419  1
  Si  Si614  1  0.043734  0.310966  0.603133  1
  Si  Si615  1  0.043726  0.689109  0.603135  1
  Si  Si616  1  0.616333  0.309216  0.635866  1
  Si  Si617  1  0.616336  0.690863  0.635866  1
  Si  Si618  1  0.260943  0.377532  0.612762  1
  Si  Si619  1  0.260941  0.622550  0.612762  1
  Si  Si620  1  0.385930  0.377125  0.637715  1
  Si  Si621  1  0.613957  0.622943  0.663812  1
  Si  Si622  1  0.106720  0.121535  0.696925  1
  Si  Si623  1  0.106724  0.878525  0.696925  1
  Si  Si624  1  0.315246  0.121802  0.682440  1
  Si  Si625  1  0.315252  0.878269  0.682439  1
  Si  Si626  1  0.434808  0.121747  0.707852  1
  Si  Si627  1  0.434817  0.878329  0.707851  1
  Si  Si628  1  0.107323  0.500029  0.696760  1
  Si  Si629  1  0.312880  0.500035  0.681726  1
  Si  Si630  1  0.436677  0.500040  0.706945  1
  Si  Si631  1  0.587085  0.310206  0.710108  1
  Si  Si632  1  0.587092  0.689870  0.710107  1
  Si  Si633  1  0.956162  0.310961  0.698393  1
  Si  Si634  1  0.956164  0.689100  0.698392  1
  Si  Si635  1  0.383554  0.309211  0.665660  1
  Si  Si636  1  0.383556  0.690856  0.665660  1
  Si  Si637  1  0.738950  0.377523  0.688764  1
  Si  Si638  1  0.738952  0.622540  0.688764  1
  Si  Si639  1  0.613957  0.377123  0.663812  1
  Si  Si640  1  0.726638  0.121586  0.777288  1
  Si  Si641  1  0.226632  0.121555  0.722387  1
  Si  Si642  1  0.226640  0.878505  0.722386  1
  Si  Si643  1  0.726637  0.878537  0.777288  1
  Si  Si644  1  0.731468  0.500064  0.777566  1
  Si  Si645  1  0.231460  0.500028  0.722109  1
  Si  Si646  1  0.646439  0.312693  0.762000  1
  Si  Si647  1  0.146430  0.312663  0.737675  1
  Si  Si648  1  0.146433  0.687400  0.737675  1
  Si  Si649  1  0.646437  0.687429  0.761999  1
  Si  Si650  1  0.202593  0.377641  0.765062  1
  Si  Si651  1  0.702586  0.377640  0.734612  1
  Si  Si652  1  0.702590  0.622454  0.734612  1
  Si  Si653  1  0.202589  0.622457  0.765063  1
  Si  Si654  1  0.433166  0.377157  0.773206  1
  Si  Si655  1  0.933162  0.377134  0.726470  1
  Si  Si656  1  0.933162  0.622937  0.726469  1
  Si  Si657  1  0.433165  0.622963  0.773205  1
  Si  Si658  1  0.113972  0.622981  0.835862  1
  Si  Si659  1  0.606728  0.121568  0.802750  1
  Si  Si660  1  0.606730  0.878559  0.802750  1
  Si  Si661  1  0.815258  0.121837  0.817236  1
  Si  Si662  1  0.815260  0.878302  0.817235  1
  Si  Si663  1  0.934816  0.121776  0.791823  1
  Si  Si664  1  0.934817  0.878356  0.791822  1
  Si  Si665  1  0.607333  0.500064  0.802916  1
  Si  Si666  1  0.812893  0.500067  0.817949  1
  Si  Si667  1  0.936684  0.500066  0.792730  1
  Si  Si668  1  0.087093  0.310232  0.789567  1
  Si  Si669  1  0.087092  0.689898  0.789567  1
  Si  Si670  1  0.456171  0.310994  0.801282  1
  Si  Si671  1  0.456172  0.689135  0.801282  1
  Si  Si672  1  0.883571  0.309248  0.834015  1
  Si  Si673  1  0.883572  0.690891  0.834014  1
  Si  Si674  1  0.238956  0.377561  0.810910  1
  Si  Si675  1  0.238957  0.622577  0.810910  1
  Si  Si676  1  0.113969  0.377163  0.835863  1
  H  H677  1  0.858237  0.329283  0.047386  1
  H  H678  1  0.858235  0.670862  0.047385  1
  H  H679  1  0.141695  0.329284  0.048194  1
  H  H680  1  0.141695  0.670865  0.048193  1
  H  H681  1  0.858237  0.329283  0.857037  1
  H  H682  1  0.858235  0.670862  0.857036  1
  H  H683  1  0.141695  0.329284  0.857845  1
  H  H684  1  0.141695  0.670865  0.857844  1
