# generated using pymatgen
data_Si39H2O79
_symmetry_space_group_name_H-M   'P 1'
_cell_length_a   19.04414329
_cell_length_b   14.09603100
_cell_length_c   82.07023521
_cell_angle_alpha   90.00000000
_cell_angle_beta   120.00000000
_cell_angle_gamma   90.00000000
_symmetry_Int_Tables_number   1
_chemical_formula_structural   Si39H2O79
_chemical_formula_sum   'Si156 H8 O316'
_cell_volume   19079.834201
_cell_formula_units_Z   4
loop_
 _symmetry_equiv_pos_site_id
 _symmetry_equiv_pos_as_xyz
  1  'x, y, z'
loop_
 _atom_site_type_symbol
 _atom_site_label
 _atom_site_symmetry_multiplicity
 _atom_site_fract_x
 _atom_site_fract_y
 _atom_site_fract_z
 _atom_site_occupancy
  O  O1  1  0.454076  0.336910  0.150389  1
  O  O2  1  0.453668  0.337925  0.117821  1
  O  O3  1  0.454520  0.662674  0.150362  1
  O  O4  1  0.453438  0.662477  0.117737  1
  O  O5  1  0.401679  0.368087  0.081477  1
  O  O6  1  0.459815  0.500132  0.105047  1
  O  O7  1  0.401046  0.632403  0.081315  1
  O  O8  1  0.703573  0.338544  0.117667  1
  O  O9  1  0.843941  0.336840  0.150118  1
  O  O10  1  0.702921  0.662638  0.117616  1
  O  O11  1  0.843901  0.660927  0.149805  1
  O  O12  1  0.550832  0.372332  0.104930  1
  O  O13  1  0.550232  0.628142  0.104860  1
  O  O14  1  0.598433  0.368579  0.081364  1
  O  O15  1  0.641747  0.500426  0.105024  1
  O  O16  1  0.745944  0.194958  0.139968  1
  O  O17  1  0.746995  0.805440  0.140157  1
  O  O18  1  0.711399  0.353080  0.148494  1
  O  O19  1  0.578846  0.353019  0.148468  1
  O  O20  1  0.711916  0.647403  0.148543  1
  O  O21  1  0.579063  0.647680  0.148376  1
  O  O22  1  0.735415  0.000000  0.143521  1
  O  O23  1  0.529859  0.000000  0.142524  1
  O  O24  1  0.625106  0.112087  0.139245  1
  O  O25  1  0.625412  0.888132  0.139288  1
  O  O26  1  0.666030  0.500329  0.158017  1
  O  O27  1  0.507535  0.806377  0.140079  1
  O  O28  1  0.598069  0.632529  0.081344  1
  O  O29  1  0.507491  0.194086  0.140083  1
  O  O30  1  0.156022  0.334675  0.186504  1
  O  O31  1  0.298124  0.338604  0.187507  1
  O  O32  1  0.157557  0.659750  0.186171  1
  O  O33  1  0.298155  0.663339  0.186580  1
  O  O34  1  0.101286  0.370936  0.208985  1
  O  O35  1  0.449648  0.373404  0.209257  1
  O  O36  1  0.102136  0.626427  0.208624  1
  O  O37  1  0.450527  0.628122  0.209237  1
  O  O38  1  0.330573  0.499141  0.234737  1
  O  O39  1  0.401867  0.368694  0.174756  1
  O  O40  1  0.402604  0.631865  0.174595  1
  O  O41  1  0.102337  0.497395  0.187742  1
  O  O42  1  0.460611  0.499738  0.164435  1
  O  O43  1  0.101952  0.499939  0.229941  1
  O  O44  1  0.358603  0.500484  0.188232  1
  O  O45  1  0.250248  0.192114  0.197672  1
  O  O46  1  0.252167  0.805597  0.198776  1
  O  O47  1  0.286742  0.344584  0.216171  1
  O  O48  1  0.289750  0.648297  0.215500  1
  O  O49  1  0.263014  0.000000  0.204609  1
  O  O50  1  0.249150  0.117259  0.226042  1
  O  O51  1  0.372259  0.113806  0.225971  1
  O  O52  1  0.246527  0.885794  0.225822  1
  O  O53  1  0.373055  0.888574  0.226065  1
  O  O54  1  0.000000  0.630223  0.174023  1
  O  O55  1  -0.000000  0.632600  0.219621  1
  O  O56  1  0.000000  0.365509  0.174415  1
  O  O57  1  0.843317  0.338766  0.208004  1
  O  O58  1  0.703196  0.337613  0.208112  1
  O  O59  1  0.844061  0.663246  0.207724  1
  O  O60  1  0.704506  0.661507  0.208222  1
  O  O61  1  0.898969  0.372013  0.185424  1
  O  O62  1  0.550801  0.371931  0.185690  1
  O  O63  1  0.899276  0.627314  0.185067  1
  O  O64  1  0.551690  0.627466  0.185744  1
  O  O65  1  0.598658  0.367751  0.220314  1
  O  O66  1  0.000000  0.368354  0.220055  1
  O  O67  1  0.599644  0.632245  0.220385  1
  O  O68  1  0.541083  0.500550  0.230546  1
  O  O69  1  0.898283  0.500694  0.206293  1
  O  O70  1  0.899175  0.498548  0.164107  1
  O  O71  1  0.642513  0.499677  0.206797  1
  O  O72  1  0.745832  0.195651  0.195258  1
  O  O73  1  0.745484  0.805140  0.195299  1
  O  O74  1  0.710686  0.355502  0.179115  1
  O  O75  1  0.710779  0.645430  0.179091  1
  O  O76  1  0.735169  0.000000  0.189361  1
  O  O77  1  0.751694  0.115938  0.168320  1
  O  O78  1  0.625069  0.112071  0.167998  1
  O  O79  1  0.751884  0.884705  0.168396  1
  O  O80  1  0.625103  0.888606  0.168007  1
  O  O81  1  0.296385  0.338253  0.277344  1
  O  O82  1  0.156354  0.338519  0.244529  1
  O  O83  1  0.296478  0.662081  0.276912  1
  O  O84  1  0.156918  0.661958  0.244083  1
  O  O85  1  0.449259  0.372749  0.290102  1
  O  O86  1  0.448980  0.628189  0.289991  1
  O  O87  1  0.357869  0.500265  0.289953  1
  O  O88  1  0.254098  0.196152  0.254552  1
  O  O89  1  0.253543  0.805011  0.254231  1
  O  O90  1  0.289996  0.356529  0.246904  1
  O  O91  1  0.420806  0.354556  0.246292  1
  O  O92  1  0.289980  0.645195  0.246243  1
  O  O93  1  0.421710  0.644982  0.246253  1
  O  O94  1  0.264198  0.001206  0.250896  1
  O  O95  1  0.467905  0.000000  0.251535  1
  O  O96  1  0.374522  0.112994  0.255556  1
  O  O97  1  0.373193  0.888504  0.254831  1
  O  O98  1  0.490771  0.194890  0.254397  1
  O  O99  1  0.490708  0.806257  0.254205  1
  O  O100  1  0.545823  0.337908  0.244551  1
  O  O101  1  0.545552  0.338032  0.277090  1
  O  O102  1  0.546693  0.663152  0.244646  1
  O  O103  1  0.545637  0.663661  0.277096  1
  O  O104  1  0.539880  0.500646  0.289823  1
  O  O105  1  0.454076  0.336910  0.382560  1
  O  O106  1  0.453668  0.337925  0.349992  1
  O  O107  1  0.454520  0.662674  0.382533  1
  O  O108  1  0.453438  0.662477  0.349907  1
  O  O109  1  0.401679  0.368087  0.313648  1
  O  O110  1  0.459815  0.500132  0.337218  1
  O  O111  1  0.401046  0.632403  0.313485  1
  O  O112  1  0.703573  0.338544  0.349838  1
  O  O113  1  0.843941  0.336840  0.382288  1
  O  O114  1  0.702921  0.662638  0.349787  1
  O  O115  1  0.843901  0.660927  0.381976  1
  O  O116  1  0.550832  0.372332  0.337100  1
  O  O117  1  0.550232  0.628142  0.337031  1
  O  O118  1  0.598433  0.368579  0.313535  1
  O  O119  1  0.641747  0.500426  0.337194  1
  O  O120  1  0.745944  0.194958  0.372139  1
  O  O121  1  0.746995  0.805440  0.372327  1
  O  O122  1  0.711399  0.353080  0.380665  1
  O  O123  1  0.578846  0.353019  0.380639  1
  O  O124  1  0.711916  0.647403  0.380714  1
  O  O125  1  0.579063  0.647680  0.380547  1
  O  O126  1  0.735415  -0.000000  0.375692  1
  O  O127  1  0.529859  0.000000  0.374694  1
  O  O128  1  0.625106  0.112087  0.371416  1
  O  O129  1  0.625412  0.888132  0.371458  1
  O  O130  1  0.666030  0.500329  0.390188  1
  O  O131  1  0.507535  0.806377  0.372249  1
  O  O132  1  0.598069  0.632529  0.313514  1
  O  O133  1  0.507491  0.194086  0.372253  1
  O  O134  1  0.156022  0.334675  0.418674  1
  O  O135  1  0.298124  0.338604  0.419678  1
  O  O136  1  0.157557  0.659750  0.418342  1
  O  O137  1  0.298155  0.663339  0.418750  1
  O  O138  1  0.101286  0.370936  0.441155  1
  O  O139  1  0.449648  0.373404  0.441427  1
  O  O140  1  0.102136  0.626427  0.440795  1
  O  O141  1  0.450527  0.628122  0.441407  1
  O  O142  1  0.330573  0.499141  0.466907  1
  O  O143  1  0.401867  0.368694  0.406926  1
  O  O144  1  0.402604  0.631865  0.406765  1
  O  O145  1  0.102337  0.497395  0.419913  1
  O  O146  1  0.460611  0.499738  0.396605  1
  O  O147  1  0.101952  0.499939  0.462111  1
  O  O148  1  0.358603  0.500484  0.420403  1
  O  O149  1  0.250248  0.192114  0.429842  1
  O  O150  1  0.252167  0.805597  0.430947  1
  O  O151  1  0.286742  0.344584  0.448341  1
  O  O152  1  0.289750  0.648297  0.447670  1
  O  O153  1  0.263014  0.000000  0.436780  1
  O  O154  1  0.249150  0.117259  0.458212  1
  O  O155  1  0.372259  0.113806  0.458141  1
  O  O156  1  0.246527  0.885794  0.457992  1
  O  O157  1  0.373055  0.888574  0.458235  1
  O  O158  1  0.000000  0.630223  0.406194  1
  O  O159  1  0.000000  0.632600  0.451792  1
  O  O160  1  0.000000  0.365509  0.406586  1
  O  O161  1  0.843317  0.338766  0.440175  1
  O  O162  1  0.703196  0.337613  0.440282  1
  O  O163  1  0.844061  0.663246  0.439895  1
  O  O164  1  0.704506  0.661507  0.440392  1
  O  O165  1  0.898969  0.372013  0.417594  1
  O  O166  1  0.550801  0.371931  0.417860  1
  O  O167  1  0.899276  0.627314  0.417238  1
  O  O168  1  0.551690  0.627466  0.417914  1
  O  O169  1  0.598658  0.367751  0.452485  1
  O  O170  1  0.000000  0.368354  0.452226  1
  O  O171  1  0.599644  0.632245  0.452556  1
  O  O172  1  0.541083  0.500550  0.462716  1
  O  O173  1  0.898283  0.500694  0.438464  1
  O  O174  1  0.899175  0.498548  0.396278  1
  O  O175  1  0.642513  0.499677  0.438967  1
  O  O176  1  0.745832  0.195651  0.427429  1
  O  O177  1  0.745484  0.805140  0.427470  1
  O  O178  1  0.710686  0.355502  0.411285  1
  O  O179  1  0.710779  0.645430  0.411262  1
  O  O180  1  0.735169  -0.000000  0.421532  1
  O  O181  1  0.751694  0.115938  0.400491  1
  O  O182  1  0.625069  0.112071  0.400168  1
  O  O183  1  0.751884  0.884705  0.400567  1
  O  O184  1  0.625103  0.888606  0.400177  1
  O  O185  1  0.296385  0.338253  0.509515  1
  O  O186  1  0.156354  0.338519  0.476700  1
  O  O187  1  0.296478  0.662081  0.509083  1
  O  O188  1  0.156918  0.661958  0.476254  1
  O  O189  1  0.449259  0.372749  0.522273  1
  O  O190  1  0.448980  0.628189  0.522161  1
  O  O191  1  0.357869  0.500265  0.522124  1
  O  O192  1  0.254098  0.196152  0.486723  1
  O  O193  1  0.253543  0.805011  0.486401  1
  O  O194  1  0.289996  0.356529  0.479075  1
  O  O195  1  0.420806  0.354556  0.478462  1
  O  O196  1  0.289980  0.645195  0.478414  1
  O  O197  1  0.421710  0.644982  0.478424  1
  O  O198  1  0.264198  0.001206  0.483066  1
  O  O199  1  0.467905  0.000000  0.483706  1
  O  O200  1  0.374522  0.112994  0.487726  1
  O  O201  1  0.373193  0.888504  0.487002  1
  O  O202  1  0.490771  0.194890  0.486568  1
  O  O203  1  0.490708  0.806257  0.486376  1
  O  O204  1  0.545823  0.337908  0.476722  1
  O  O205  1  0.545552  0.338032  0.509261  1
  O  O206  1  0.546693  0.663152  0.476816  1
  O  O207  1  0.545637  0.663661  0.509267  1
  O  O208  1  0.539880  0.500646  0.521993  1
  O  O209  1  0.454076  0.336910  0.614730  1
  O  O210  1  0.453668  0.337925  0.582163  1
  O  O211  1  0.454520  0.662674  0.614703  1
  O  O212  1  0.453438  0.662477  0.582078  1
  O  O213  1  0.401679  0.368087  0.545818  1
  O  O214  1  0.459815  0.500132  0.569388  1
  O  O215  1  0.401046  0.632403  0.545656  1
  O  O216  1  0.703573  0.338544  0.582008  1
  O  O217  1  0.843941  0.336840  0.614459  1
  O  O218  1  0.702921  0.662638  0.581957  1
  O  O219  1  0.843901  0.660927  0.614146  1
  O  O220  1  0.550832  0.372332  0.569271  1
  O  O221  1  0.550232  0.628142  0.569201  1
  O  O222  1  0.598433  0.368579  0.545705  1
  O  O223  1  0.641747  0.500426  0.569365  1
  O  O224  1  0.745944  0.194958  0.604309  1
  O  O225  1  0.746995  0.805440  0.604498  1
  O  O226  1  0.711399  0.353080  0.612835  1
  O  O227  1  0.578846  0.353019  0.612809  1
  O  O228  1  0.711916  0.647403  0.612884  1
  O  O229  1  0.579063  0.647680  0.612717  1
  O  O230  1  0.735415  -0.000000  0.607862  1
  O  O231  1  0.529859  -0.000000  0.606865  1
  O  O232  1  0.625106  0.112087  0.603586  1
  O  O233  1  0.625412  0.888132  0.603629  1
  O  O234  1  0.666030  0.500329  0.622358  1
  O  O235  1  0.507535  0.806377  0.604420  1
  O  O236  1  0.598069  0.632529  0.545685  1
  O  O237  1  0.507491  0.194086  0.604424  1
  O  O238  1  0.156022  0.334675  0.650845  1
  O  O239  1  0.298124  0.338604  0.651848  1
  O  O240  1  0.157557  0.659750  0.650512  1
  O  O241  1  0.298155  0.663339  0.650921  1
  O  O242  1  0.101286  0.370936  0.673326  1
  O  O243  1  0.449648  0.373404  0.673598  1
  O  O244  1  0.102136  0.626427  0.672965  1
  O  O245  1  0.450527  0.628122  0.673578  1
  O  O246  1  0.330573  0.499141  0.699078  1
  O  O247  1  0.401867  0.368694  0.639097  1
  O  O248  1  0.402604  0.631865  0.638936  1
  O  O249  1  0.102337  0.497395  0.652083  1
  O  O250  1  0.460611  0.499738  0.628776  1
  O  O251  1  0.101952  0.499939  0.694282  1
  O  O252  1  0.358603  0.500484  0.652573  1
  O  O253  1  0.250248  0.192114  0.662013  1
  O  O254  1  0.252167  0.805597  0.663117  1
  O  O255  1  0.286742  0.344584  0.680512  1
  O  O256  1  0.289750  0.648297  0.679841  1
  O  O257  1  0.263014  -0.000000  0.668950  1
  O  O258  1  0.249150  0.117259  0.690383  1
  O  O259  1  0.372259  0.113806  0.690312  1
  O  O260  1  0.246527  0.885794  0.690163  1
  O  O261  1  0.373055  0.888574  0.690406  1
  O  O262  1  -0.000000  0.630223  0.638365  1
  O  O263  1  -0.000000  0.632600  0.683962  1
  O  O264  1  0.000000  0.365509  0.638756  1
  O  O265  1  0.843317  0.338766  0.672345  1
  O  O266  1  0.703196  0.337613  0.672453  1
  O  O267  1  0.844061  0.663246  0.672065  1
  O  O268  1  0.704506  0.661507  0.672563  1
  O  O269  1  0.898969  0.372013  0.649765  1
  O  O270  1  0.550801  0.371931  0.650031  1
  O  O271  1  0.899276  0.627314  0.649408  1
  O  O272  1  0.551690  0.627466  0.650085  1
  O  O273  1  0.598658  0.367751  0.684655  1
  O  O274  1  0.000000  0.368354  0.684396  1
  O  O275  1  0.599644  0.632245  0.684726  1
  O  O276  1  0.541083  0.500550  0.694887  1
  O  O277  1  0.898283  0.500694  0.670634  1
  O  O278  1  0.899175  0.498548  0.628449  1
  O  O279  1  0.642513  0.499677  0.671138  1
  O  O280  1  0.745832  0.195651  0.659599  1
  O  O281  1  0.745484  0.805140  0.659640  1
  O  O282  1  0.710686  0.355502  0.643456  1
  O  O283  1  0.710779  0.645430  0.643432  1
  O  O284  1  0.735169  -0.000000  0.653702  1
  O  O285  1  0.751694  0.115938  0.632661  1
  O  O286  1  0.625069  0.112071  0.632339  1
  O  O287  1  0.751884  0.884705  0.632737  1
  O  O288  1  0.625103  0.888606  0.632348  1
  O  O289  1  0.296385  0.338253  0.741685  1
  O  O290  1  0.156354  0.338519  0.708870  1
  O  O291  1  0.296478  0.662081  0.741253  1
  O  O292  1  0.156918  0.661958  0.708425  1
  O  O293  1  0.449259  0.372749  0.754443  1
  O  O294  1  0.448980  0.628189  0.754332  1
  O  O295  1  0.357869  0.500265  0.754294  1
  O  O296  1  0.254098  0.196152  0.718893  1
  O  O297  1  0.253543  0.805011  0.718572  1
  O  O298  1  0.289996  0.356529  0.711245  1
  O  O299  1  0.420806  0.354556  0.710633  1
  O  O300  1  0.289980  0.645195  0.710584  1
  O  O301  1  0.421710  0.644982  0.710594  1
  O  O302  1  0.264198  0.001206  0.715237  1
  O  O303  1  0.467905  0.000000  0.715876  1
  O  O304  1  0.374522  0.112994  0.719897  1
  O  O305  1  0.373193  0.888504  0.719172  1
  O  O306  1  0.490771  0.194890  0.718738  1
  O  O307  1  0.490708  0.806257  0.718546  1
  O  O308  1  0.545823  0.337908  0.708892  1
  O  O309  1  0.545552  0.338032  0.741431  1
  O  O310  1  0.546693  0.663152  0.708987  1
  O  O311  1  0.545637  0.663661  0.741437  1
  O  O312  1  0.539880  0.500646  0.754164  1
  O  O313  1  0.401679  0.368087  0.777989  1
  O  O314  1  0.401046  0.632403  0.777826  1
  O  O315  1  0.598433  0.368579  0.777876  1
  O  O316  1  0.598069  0.632529  0.777855  1
  Si  Si317  1  0.463282  0.610225  0.102325  1
  Si  Si318  1  0.493323  0.695565  0.138564  1
  Si  Si319  1  0.493293  0.304808  0.138621  1
  Si  Si320  1  0.463950  0.390028  0.102463  1
  Si  Si321  1  0.626836  0.390280  0.102383  1
  Si  Si322  1  0.626375  0.610503  0.102348  1
  Si  Si323  1  0.754019  0.305562  0.138442  1
  Si  Si324  1  0.754340  0.694743  0.138431  1
  Si  Si325  1  0.719061  0.105627  0.146826  1
  Si  Si326  1  0.562303  0.103301  0.146335  1
  Si  Si327  1  0.719419  0.894674  0.146902  1
  Si  Si328  1  0.562469  0.897124  0.146336  1
  Si  Si329  1  0.666725  0.391665  0.158544  1
  Si  Si330  1  0.666968  0.609006  0.158539  1
  Si  Si331  1  0.090581  0.387506  0.188808  1
  Si  Si332  1  0.463942  0.389701  0.168033  1
  Si  Si333  1  0.090479  0.389734  0.226622  1
  Si  Si334  1  0.374177  0.391203  0.189250  1
  Si  Si335  1  0.464769  0.609838  0.168041  1
  Si  Si336  1  0.091255  0.607701  0.188478  1
  Si  Si337  1  0.090959  0.609950  0.226277  1
  Si  Si338  1  0.374301  0.610267  0.189035  1
  Si  Si339  1  0.244905  0.300705  0.195941  1
  Si  Si340  1  0.246628  0.694837  0.195470  1
  Si  Si341  1  0.278215  0.107699  0.211123  1
  Si  Si342  1  0.279087  0.895122  0.211850  1
  Si  Si343  1  0.332139  0.390497  0.235965  1
  Si  Si344  1  0.333302  0.607921  0.235785  1
  Si  Si345  1  0.718996  0.105945  0.182233  1
  Si  Si346  1  0.718989  0.894851  0.182272  1
  Si  Si347  1  0.536477  0.390311  0.226886  1
  Si  Si348  1  0.909550  0.390439  0.205563  1
  Si  Si349  1  0.910355  0.388540  0.167812  1
  Si  Si350  1  0.626906  0.389611  0.205858  1
  Si  Si351  1  0.909863  0.610679  0.205252  1
  Si  Si352  1  0.537344  0.610675  0.226976  1
  Si  Si353  1  0.910377  0.608767  0.167473  1
  Si  Si354  1  0.627877  0.609881  0.205919  1
  Si  Si355  1  0.753539  0.306173  0.198878  1
  Si  Si356  1  0.754057  0.694562  0.198870  1
  Si  Si357  1  0.373207  0.390225  0.292655  1
  Si  Si358  1  0.372788  0.610426  0.292471  1
  Si  Si359  1  0.246156  0.306603  0.256434  1
  Si  Si360  1  0.246728  0.694207  0.256010  1
  Si  Si361  1  0.281671  0.106777  0.247859  1
  Si  Si362  1  0.434953  0.103779  0.248003  1
  Si  Si363  1  0.279302  0.895395  0.247358  1
  Si  Si364  1  0.435898  0.897183  0.247717  1
  Si  Si365  1  0.506291  0.695589  0.256187  1
  Si  Si366  1  0.506056  0.305687  0.256209  1
  Si  Si367  1  0.535937  0.610766  0.292494  1
  Si  Si368  1  0.536043  0.390556  0.292544  1
  Si  Si369  1  0.463282  0.610225  0.334496  1
  Si  Si370  1  0.493323  0.695565  0.370735  1
  Si  Si371  1  0.493293  0.304808  0.370792  1
  Si  Si372  1  0.463950  0.390028  0.334634  1
  Si  Si373  1  0.626836  0.390280  0.334553  1
  Si  Si374  1  0.626375  0.610503  0.334518  1
  Si  Si375  1  0.754019  0.305562  0.370612  1
  Si  Si376  1  0.754340  0.694743  0.370602  1
  Si  Si377  1  0.719061  0.105627  0.378996  1
  Si  Si378  1  0.562303  0.103301  0.378506  1
  Si  Si379  1  0.719419  0.894674  0.379073  1
  Si  Si380  1  0.562469  0.897124  0.378506  1
  Si  Si381  1  0.666725  0.391665  0.390714  1
  Si  Si382  1  0.666968  0.609006  0.390709  1
  Si  Si383  1  0.090581  0.387506  0.420978  1
  Si  Si384  1  0.463942  0.389701  0.400204  1
  Si  Si385  1  0.090479  0.389734  0.458792  1
  Si  Si386  1  0.374177  0.391203  0.421421  1
  Si  Si387  1  0.464769  0.609838  0.400212  1
  Si  Si388  1  0.091255  0.607701  0.420649  1
  Si  Si389  1  0.090959  0.609950  0.458447  1
  Si  Si390  1  0.374301  0.610267  0.421205  1
  Si  Si391  1  0.244905  0.300705  0.428112  1
  Si  Si392  1  0.246628  0.694837  0.427641  1
  Si  Si393  1  0.278215  0.107699  0.443293  1
  Si  Si394  1  0.279087  0.895122  0.444020  1
  Si  Si395  1  0.332139  0.390497  0.468135  1
  Si  Si396  1  0.333302  0.607921  0.467956  1
  Si  Si397  1  0.718996  0.105945  0.414404  1
  Si  Si398  1  0.718989  0.894851  0.414442  1
  Si  Si399  1  0.536477  0.390311  0.459056  1
  Si  Si400  1  0.909550  0.390439  0.437733  1
  Si  Si401  1  0.910355  0.388540  0.399982  1
  Si  Si402  1  0.626906  0.389611  0.438029  1
  Si  Si403  1  0.909863  0.610679  0.437422  1
  Si  Si404  1  0.537344  0.610675  0.459147  1
  Si  Si405  1  0.910377  0.608767  0.399644  1
  Si  Si406  1  0.627877  0.609881  0.438090  1
  Si  Si407  1  0.753539  0.306173  0.431049  1
  Si  Si408  1  0.754057  0.694562  0.431040  1
  Si  Si409  1  0.373207  0.390225  0.524826  1
  Si  Si410  1  0.372788  0.610426  0.524641  1
  Si  Si411  1  0.246156  0.306603  0.488605  1
  Si  Si412  1  0.246728  0.694207  0.488181  1
  Si  Si413  1  0.281671  0.106777  0.480029  1
  Si  Si414  1  0.434953  0.103779  0.480173  1
  Si  Si415  1  0.279302  0.895395  0.479528  1
  Si  Si416  1  0.435898  0.897183  0.479888  1
  Si  Si417  1  0.506291  0.695589  0.488358  1
  Si  Si418  1  0.506056  0.305687  0.488379  1
  Si  Si419  1  0.535937  0.610766  0.524664  1
  Si  Si420  1  0.536043  0.390556  0.524715  1
  Si  Si421  1  0.463282  0.610225  0.566666  1
  Si  Si422  1  0.493323  0.695565  0.602905  1
  Si  Si423  1  0.493293  0.304808  0.602962  1
  Si  Si424  1  0.463950  0.390028  0.566804  1
  Si  Si425  1  0.626836  0.390280  0.566724  1
  Si  Si426  1  0.626375  0.610503  0.566689  1
  Si  Si427  1  0.754019  0.305562  0.602783  1
  Si  Si428  1  0.754340  0.694743  0.602772  1
  Si  Si429  1  0.719061  0.105627  0.611167  1
  Si  Si430  1  0.562303  0.103301  0.610676  1
  Si  Si431  1  0.719419  0.894674  0.611243  1
  Si  Si432  1  0.562469  0.897124  0.610677  1
  Si  Si433  1  0.666725  0.391665  0.622885  1
  Si  Si434  1  0.666968  0.609006  0.622880  1
  Si  Si435  1  0.090581  0.387506  0.653149  1
  Si  Si436  1  0.463942  0.389701  0.632374  1
  Si  Si437  1  0.090479  0.389734  0.690963  1
  Si  Si438  1  0.374177  0.391203  0.653591  1
  Si  Si439  1  0.464769  0.609838  0.632382  1
  Si  Si440  1  0.091255  0.607701  0.652819  1
  Si  Si441  1  0.090959  0.609950  0.690618  1
  Si  Si442  1  0.374301  0.610267  0.653376  1
  Si  Si443  1  0.244905  0.300705  0.660282  1
  Si  Si444  1  0.246628  0.694837  0.659811  1
  Si  Si445  1  0.278215  0.107699  0.675464  1
  Si  Si446  1  0.279087  0.895122  0.676191  1
  Si  Si447  1  0.332139  0.390497  0.700306  1
  Si  Si448  1  0.333302  0.607921  0.700126  1
  Si  Si449  1  0.718996  0.105945  0.646575  1
  Si  Si450  1  0.718989  0.894851  0.646613  1
  Si  Si451  1  0.536477  0.390311  0.691227  1
  Si  Si452  1  0.909550  0.390439  0.669904  1
  Si  Si453  1  0.910355  0.388540  0.632153  1
  Si  Si454  1  0.626906  0.389611  0.670199  1
  Si  Si455  1  0.909863  0.610679  0.669593  1
  Si  Si456  1  0.537344  0.610675  0.691317  1
  Si  Si457  1  0.910377  0.608767  0.631814  1
  Si  Si458  1  0.627877  0.609881  0.670260  1
  Si  Si459  1  0.753539  0.306173  0.663220  1
  Si  Si460  1  0.754057  0.694562  0.663211  1
  Si  Si461  1  0.373207  0.390225  0.756996  1
  Si  Si462  1  0.372788  0.610426  0.756812  1
  Si  Si463  1  0.246156  0.306603  0.720775  1
  Si  Si464  1  0.246728  0.694207  0.720351  1
  Si  Si465  1  0.281671  0.106777  0.712200  1
  Si  Si466  1  0.434953  0.103779  0.712344  1
  Si  Si467  1  0.279302  0.895395  0.711699  1
  Si  Si468  1  0.435898  0.897183  0.712058  1
  Si  Si469  1  0.506291  0.695589  0.720528  1
  Si  Si470  1  0.506056  0.305687  0.720550  1
  Si  Si471  1  0.535937  0.610766  0.756835  1
  Si  Si472  1  0.536043  0.390556  0.756885  1
  H  H473  1  0.401679  0.368087  0.070511  1
  H  H474  1  0.401046  0.632403  0.070348  1
  H  H475  1  0.598433  0.368579  0.070398  1
  H  H476  1  0.598069  0.632529  0.070378  1
  H  H477  1  0.401679  0.368087  0.788955  1
  H  H478  1  0.401046  0.632403  0.788792  1
  H  H479  1  0.598433  0.368579  0.788842  1
  H  H480  1  0.598069  0.632529  0.788822  1
