# generated using pymatgen
data_Si36H2O73
_symmetry_space_group_name_H-M   'P 1'
_cell_length_a   12.64886671
_cell_length_b   11.38395757
_cell_length_c   79.56905012
_cell_angle_alpha   90.00000000
_cell_angle_beta   90.00000000
_cell_angle_gamma   90.00000000
_symmetry_Int_Tables_number   1
_chemical_formula_structural   Si36H2O73
_chemical_formula_sum   'Si144 H8 O292'
_cell_volume   11457.4786873
_cell_formula_units_Z   4
loop_
 _symmetry_equiv_pos_site_id
 _symmetry_equiv_pos_as_xyz
  1  'x, y, z'
loop_
 _atom_site_type_symbol
 _atom_site_label
 _atom_site_symmetry_multiplicity
 _atom_site_fract_x
 _atom_site_fract_y
 _atom_site_fract_z
 _atom_site_occupancy
  O  O1  1  0.322819  0.826020  0.074149  1
  O  O2  1  0.322817  0.173756  0.074149  1
  O  O3  1  0.677283  0.826019  0.074150  1
  O  O4  1  0.677283  0.173759  0.074149  1
  O  O5  1  0.362491  0.000000  0.093569  1
  O  O6  1  0.398570  0.811365  0.136188  1
  O  O7  1  0.398569  0.188383  0.136189  1
  O  O8  1  0.336021  0.793401  0.106437  1
  O  O9  1  0.336022  0.206360  0.106437  1
  O  O10  1  0.202878  0.792008  0.131337  1
  O  O11  1  0.202876  0.207732  0.131337  1
  O  O12  1  0.331392  0.615270  0.127222  1
  O  O13  1  0.331384  0.384478  0.127224  1
  O  O14  1  0.140305  0.845217  0.161471  1
  O  O15  1  0.140304  0.154521  0.161472  1
  O  O16  1  0.000000  0.159023  0.138752  1
  O  O17  1  0.360922  0.499878  0.154589  1
  O  O18  1  0.139981  0.000000  0.139166  1
  O  O19  1  0.000000  0.840715  0.138752  1
  O  O20  1  0.327685  0.387785  0.182240  1
  O  O21  1  0.327685  0.611946  0.182241  1
  O  O22  1  0.362490  0.499882  0.232316  1
  O  O23  1  0.322812  0.326009  0.212897  1
  O  O24  1  0.322814  0.673749  0.212897  1
  O  O25  1  0.142383  -0.000000  0.183912  1
  O  O26  1  0.336024  0.293406  0.245184  1
  O  O27  1  0.336025  0.706364  0.245184  1
  O  O28  1  0.202887  0.292029  0.270085  1
  O  O29  1  0.202891  0.707760  0.270085  1
  O  O30  1  0.331400  0.115288  0.265971  1
  O  O31  1  0.331407  0.884496  0.265970  1
  O  O32  1  0.200333  0.217184  0.190812  1
  O  O33  1  0.200334  0.782553  0.190811  1
  O  O34  1  0.398849  0.807372  0.190680  1
  O  O35  1  0.398848  0.192365  0.190682  1
  O  O36  1  0.000000  0.157414  0.184108  1
  O  O37  1  -0.000000  0.842322  0.184107  1
  O  O38  1  0.327699  0.887817  0.320988  1
  O  O39  1  0.327699  0.111978  0.320987  1
  O  O40  1  0.322819  0.826020  0.351644  1
  O  O41  1  0.322817  0.173756  0.351644  1
  O  O42  1  0.398580  0.311387  0.274936  1
  O  O43  1  0.398584  0.688399  0.274936  1
  O  O44  1  0.142394  0.499894  0.322659  1
  O  O45  1  -0.000000  0.342350  0.322855  1
  O  O46  1  0.140314  0.345245  0.300219  1
  O  O47  1  0.140316  0.654545  0.300219  1
  O  O48  1  0.200347  0.717210  0.329558  1
  O  O49  1  0.200343  0.282578  0.329559  1
  O  O50  1  0.000000  0.659050  0.277499  1
  O  O51  1  0.398859  0.307398  0.329429  1
  O  O52  1  0.398862  0.692394  0.329428  1
  O  O53  1  0.360939  -0.000000  0.293336  1
  O  O54  1  0.139993  0.499895  0.277913  1
  O  O55  1  0.000000  0.340743  0.277499  1
  O  O56  1  0.000000  0.657443  0.322855  1
  O  O57  1  0.637607  -0.000000  0.093569  1
  O  O58  1  0.601515  0.811368  0.136188  1
  O  O59  1  0.601514  0.188381  0.136189  1
  O  O60  1  0.664072  0.793402  0.106437  1
  O  O61  1  0.664070  0.206360  0.106437  1
  O  O62  1  0.797208  0.792003  0.131338  1
  O  O63  1  0.797207  0.207735  0.131338  1
  O  O64  1  0.668688  0.615270  0.127222  1
  O  O65  1  0.668696  0.384478  0.127224  1
  O  O66  1  0.859782  0.845218  0.161471  1
  O  O67  1  0.859780  0.154518  0.161472  1
  O  O68  1  0.639158  0.499877  0.154589  1
  O  O69  1  0.500040  0.000000  0.141210  1
  O  O70  1  0.500044  0.842253  0.163598  1
  O  O71  1  0.860103  0.000000  0.139166  1
  O  O72  1  0.500048  0.154955  0.089293  1
  O  O73  1  0.500049  0.844815  0.089294  1
  O  O74  1  0.500043  0.157491  0.163599  1
  O  O75  1  0.500040  0.499868  0.132202  1
  O  O76  1  0.500041  0.499867  0.177463  1
  O  O77  1  0.672397  0.387784  0.182240  1
  O  O78  1  0.672397  0.611946  0.182241  1
  O  O79  1  0.637606  0.499880  0.232317  1
  O  O80  1  0.677279  0.326009  0.212896  1
  O  O81  1  0.677279  0.673745  0.212897  1
  O  O82  1  0.857702  -0.000000  0.183912  1
  O  O83  1  0.664073  0.293405  0.245184  1
  O  O84  1  0.664077  0.706364  0.245184  1
  O  O85  1  0.797218  0.292036  0.270085  1
  O  O86  1  0.797221  0.707760  0.270084  1
  O  O87  1  0.668712  0.115288  0.265971  1
  O  O88  1  0.668705  0.884496  0.265970  1
  O  O89  1  0.799750  0.217183  0.190811  1
  O  O90  1  0.799752  0.782551  0.190811  1
  O  O91  1  0.500043  -0.000000  0.185931  1
  O  O92  1  0.601236  0.807371  0.190681  1
  O  O93  1  0.601235  0.192366  0.190682  1
  O  O94  1  0.500056  0.000000  0.270949  1
  O  O95  1  0.500048  0.654951  0.228041  1
  O  O96  1  0.500047  0.344812  0.228040  1
  O  O97  1  0.672411  0.887818  0.320988  1
  O  O98  1  0.672411  0.111979  0.320987  1
  O  O99  1  0.677283  0.826019  0.351644  1
  O  O100  1  0.677283  0.173759  0.351644  1
  O  O101  1  0.601525  0.311382  0.274936  1
  O  O102  1  0.601529  0.688400  0.274936  1
  O  O103  1  0.857713  0.499898  0.322659  1
  O  O104  1  0.859790  0.345246  0.300219  1
  O  O105  1  0.859794  0.654550  0.300219  1
  O  O106  1  0.500055  0.000000  0.316211  1
  O  O107  1  0.799765  0.717214  0.329559  1
  O  O108  1  0.799761  0.282583  0.329559  1
  O  O109  1  0.601246  0.307398  0.329429  1
  O  O110  1  0.601250  0.692392  0.329428  1
  O  O111  1  0.639174  -0.000000  0.293336  1
  O  O112  1  0.500057  0.499892  0.279957  1
  O  O113  1  0.500055  0.657512  0.302345  1
  O  O114  1  0.860116  0.499898  0.277913  1
  O  O115  1  0.500050  0.342274  0.302346  1
  O  O116  1  0.500053  0.499895  0.324678  1
  O  O117  1  0.362491  -0.000000  0.371064  1
  O  O118  1  0.398570  0.811365  0.413683  1
  O  O119  1  0.398569  0.188383  0.413684  1
  O  O120  1  0.336021  0.793401  0.383931  1
  O  O121  1  0.336022  0.206360  0.383932  1
  O  O122  1  0.202878  0.792008  0.408832  1
  O  O123  1  0.202876  0.207732  0.408832  1
  O  O124  1  0.331392  0.615270  0.404717  1
  O  O125  1  0.331384  0.384478  0.404718  1
  O  O126  1  0.140305  0.845217  0.438966  1
  O  O127  1  0.140304  0.154521  0.438967  1
  O  O128  1  -0.000000  0.159023  0.416247  1
  O  O129  1  0.360922  0.499878  0.432084  1
  O  O130  1  0.139981  -0.000000  0.416660  1
  O  O131  1  0.000000  0.840715  0.416246  1
  O  O132  1  0.327685  0.387785  0.459734  1
  O  O133  1  0.327685  0.611946  0.459736  1
  O  O134  1  0.362490  0.499882  0.509811  1
  O  O135  1  0.322812  0.326009  0.490391  1
  O  O136  1  0.322814  0.673749  0.490392  1
  O  O137  1  0.142383  -0.000000  0.461406  1
  O  O138  1  0.336024  0.293406  0.522679  1
  O  O139  1  0.336025  0.706364  0.522679  1
  O  O140  1  0.202887  0.292029  0.547580  1
  O  O141  1  0.202891  0.707760  0.547580  1
  O  O142  1  0.331400  0.115288  0.543466  1
  O  O143  1  0.331407  0.884496  0.543464  1
  O  O144  1  0.200333  0.217184  0.468306  1
  O  O145  1  0.200334  0.782553  0.468306  1
  O  O146  1  0.398849  0.807372  0.468175  1
  O  O147  1  0.398848  0.192365  0.468177  1
  O  O148  1  -0.000000  0.157414  0.461602  1
  O  O149  1  -0.000000  0.842322  0.461602  1
  O  O150  1  0.327699  0.887817  0.598483  1
  O  O151  1  0.327699  0.111978  0.598482  1
  O  O152  1  0.322819  0.826020  0.629139  1
  O  O153  1  0.322817  0.173756  0.629139  1
  O  O154  1  0.398580  0.311387  0.552430  1
  O  O155  1  0.398584  0.688399  0.552430  1
  O  O156  1  0.142394  0.499894  0.600154  1
  O  O157  1  0.000000  0.342350  0.600349  1
  O  O158  1  0.140314  0.345245  0.577714  1
  O  O159  1  0.140316  0.654545  0.577714  1
  O  O160  1  0.200347  0.717210  0.607053  1
  O  O161  1  0.200343  0.282578  0.607053  1
  O  O162  1  -0.000000  0.659050  0.554993  1
  O  O163  1  0.398859  0.307398  0.606924  1
  O  O164  1  0.398862  0.692394  0.606923  1
  O  O165  1  0.360939  -0.000000  0.570831  1
  O  O166  1  0.139993  0.499895  0.555407  1
  O  O167  1  -0.000000  0.340743  0.554994  1
  O  O168  1  -0.000000  0.657443  0.600349  1
  O  O169  1  0.637607  -0.000000  0.371064  1
  O  O170  1  0.601515  0.811368  0.413683  1
  O  O171  1  0.601514  0.188381  0.413683  1
  O  O172  1  0.664072  0.793402  0.383932  1
  O  O173  1  0.664070  0.206360  0.383932  1
  O  O174  1  0.797208  0.792003  0.408832  1
  O  O175  1  0.797207  0.207735  0.408833  1
  O  O176  1  0.668688  0.615270  0.404717  1
  O  O177  1  0.668696  0.384478  0.404718  1
  O  O178  1  0.859782  0.845218  0.438966  1
  O  O179  1  0.859780  0.154518  0.438967  1
  O  O180  1  0.639158  0.499877  0.432083  1
  O  O181  1  0.500040  -0.000000  0.418704  1
  O  O182  1  0.500044  0.842253  0.441092  1
  O  O183  1  0.860103  -0.000000  0.416660  1
  O  O184  1  0.500048  0.154955  0.366788  1
  O  O185  1  0.500049  0.844815  0.366788  1
  O  O186  1  0.500043  0.157491  0.441093  1
  O  O187  1  0.500040  0.499868  0.409696  1
  O  O188  1  0.500041  0.499867  0.454958  1
  O  O189  1  0.672397  0.387784  0.459734  1
  O  O190  1  0.672397  0.611946  0.459736  1
  O  O191  1  0.637606  0.499880  0.509811  1
  O  O192  1  0.677279  0.326009  0.490391  1
  O  O193  1  0.677279  0.673745  0.490391  1
  O  O194  1  0.857702  -0.000000  0.461407  1
  O  O195  1  0.664073  0.293405  0.522679  1
  O  O196  1  0.664077  0.706364  0.522679  1
  O  O197  1  0.797218  0.292036  0.547579  1
  O  O198  1  0.797221  0.707760  0.547579  1
  O  O199  1  0.668712  0.115288  0.543466  1
  O  O200  1  0.668705  0.884496  0.543464  1
  O  O201  1  0.799750  0.217183  0.468306  1
  O  O202  1  0.799752  0.782551  0.468305  1
  O  O203  1  0.500043  0.000000  0.463425  1
  O  O204  1  0.601236  0.807371  0.468175  1
  O  O205  1  0.601235  0.192366  0.468177  1
  O  O206  1  0.500056  -0.000000  0.548444  1
  O  O207  1  0.500048  0.654951  0.505536  1
  O  O208  1  0.500047  0.344812  0.505535  1
  O  O209  1  0.672411  0.887818  0.598483  1
  O  O210  1  0.672411  0.111979  0.598482  1
  O  O211  1  0.677283  0.826019  0.629139  1
  O  O212  1  0.677283  0.173759  0.629139  1
  O  O213  1  0.601525  0.311382  0.552431  1
  O  O214  1  0.601529  0.688400  0.552430  1
  O  O215  1  0.857713  0.499898  0.600154  1
  O  O216  1  0.859790  0.345246  0.577714  1
  O  O217  1  0.859794  0.654550  0.577713  1
  O  O218  1  0.500055  -0.000000  0.593705  1
  O  O219  1  0.799765  0.717214  0.607053  1
  O  O220  1  0.799761  0.282583  0.607054  1
  O  O221  1  0.601246  0.307398  0.606924  1
  O  O222  1  0.601250  0.692392  0.606922  1
  O  O223  1  0.639174  0.000000  0.570831  1
  O  O224  1  0.500057  0.499892  0.557452  1
  O  O225  1  0.500055  0.657512  0.579840  1
  O  O226  1  0.860116  0.499898  0.555408  1
  O  O227  1  0.500050  0.342274  0.579840  1
  O  O228  1  0.500053  0.499895  0.602173  1
  O  O229  1  0.362491  0.000000  0.648559  1
  O  O230  1  0.398570  0.811365  0.691178  1
  O  O231  1  0.398569  0.188383  0.691178  1
  O  O232  1  0.336021  0.793401  0.661426  1
  O  O233  1  0.336022  0.206360  0.661426  1
  O  O234  1  0.202878  0.792008  0.686326  1
  O  O235  1  0.202876  0.207732  0.686327  1
  O  O236  1  0.331392  0.615270  0.682212  1
  O  O237  1  0.331384  0.384478  0.682213  1
  O  O238  1  0.140305  0.845217  0.716461  1
  O  O239  1  0.140304  0.154521  0.716461  1
  O  O240  1  -0.000000  0.159023  0.693741  1
  O  O241  1  0.360922  0.499878  0.709578  1
  O  O242  1  0.139981  0.000000  0.694155  1
  O  O243  1  0.000000  0.840715  0.693741  1
  O  O244  1  0.327685  0.387785  0.737229  1
  O  O245  1  0.327685  0.611946  0.737231  1
  O  O246  1  0.362490  0.499882  0.787306  1
  O  O247  1  0.322812  0.326009  0.767886  1
  O  O248  1  0.322814  0.673749  0.767886  1
  O  O249  1  0.142383  -0.000000  0.738901  1
  O  O250  1  0.336024  0.293406  0.800174  1
  O  O251  1  0.336025  0.706364  0.800174  1
  O  O252  1  0.200333  0.217184  0.745801  1
  O  O253  1  0.200334  0.782553  0.745800  1
  O  O254  1  0.398849  0.807372  0.745669  1
  O  O255  1  0.398848  0.192365  0.745671  1
  O  O256  1  0.000000  0.157414  0.739097  1
  O  O257  1  -0.000000  0.842322  0.739096  1
  O  O258  1  0.637607  -0.000000  0.648558  1
  O  O259  1  0.601515  0.811368  0.691177  1
  O  O260  1  0.601514  0.188381  0.691178  1
  O  O261  1  0.664072  0.793402  0.661426  1
  O  O262  1  0.664070  0.206360  0.661427  1
  O  O263  1  0.797208  0.792003  0.686327  1
  O  O264  1  0.797207  0.207735  0.686327  1
  O  O265  1  0.668688  0.615270  0.682212  1
  O  O266  1  0.668696  0.384478  0.682213  1
  O  O267  1  0.859782  0.845218  0.716461  1
  O  O268  1  0.859780  0.154518  0.716461  1
  O  O269  1  0.639158  0.499877  0.709578  1
  O  O270  1  0.500040  -0.000000  0.696199  1
  O  O271  1  0.500044  0.842253  0.718587  1
  O  O272  1  0.860103  -0.000000  0.694155  1
  O  O273  1  0.500048  0.154955  0.644282  1
  O  O274  1  0.500049  0.844815  0.644283  1
  O  O275  1  0.500043  0.157491  0.718588  1
  O  O276  1  0.500040  0.499868  0.687191  1
  O  O277  1  0.500041  0.499867  0.732453  1
  O  O278  1  0.672397  0.387784  0.737229  1
  O  O279  1  0.672397  0.611946  0.737230  1
  O  O280  1  0.637606  0.499880  0.787306  1
  O  O281  1  0.677279  0.326009  0.767886  1
  O  O282  1  0.677279  0.673745  0.767886  1
  O  O283  1  0.857702  0.000000  0.738901  1
  O  O284  1  0.664073  0.293405  0.800174  1
  O  O285  1  0.664077  0.706364  0.800174  1
  O  O286  1  0.799750  0.217183  0.745801  1
  O  O287  1  0.799752  0.782551  0.745800  1
  O  O288  1  0.500043  -0.000000  0.740920  1
  O  O289  1  0.601236  0.807371  0.745670  1
  O  O290  1  0.601235  0.192366  0.745671  1
  O  O291  1  0.500048  0.654951  0.783030  1
  O  O292  1  0.500047  0.344812  0.783030  1
  Si  Si293  1  0.377622  0.499868  0.174064  1
  Si  Si294  1  0.377837  0.499874  0.135102  1
  Si  Si295  1  0.121482  0.864472  0.142095  1
  Si  Si296  1  0.121481  0.135267  0.142096  1
  Si  Si297  1  0.314180  0.750822  0.124811  1
  Si  Si298  1  0.314177  0.248926  0.124811  1
  Si  Si299  1  0.377804  0.864221  0.090935  1
  Si  Si300  1  0.377803  0.135549  0.090935  1
  Si  Si301  1  0.308098  0.281835  0.194414  1
  Si  Si302  1  0.377803  0.635546  0.229682  1
  Si  Si303  1  0.377802  0.364218  0.229682  1
  Si  Si304  1  0.308099  0.717905  0.194414  1
  Si  Si305  1  0.314188  0.250839  0.263559  1
  Si  Si306  1  0.314192  0.748945  0.263558  1
  Si  Si307  1  0.121678  0.864457  0.180855  1
  Si  Si308  1  0.121678  0.135280  0.180855  1
  Si  Si309  1  0.377637  -0.000000  0.312811  1
  Si  Si310  1  0.377853  -0.000000  0.273850  1
  Si  Si311  1  0.308108  0.217928  0.333161  1
  Si  Si312  1  0.308111  0.781860  0.333161  1
  Si  Si313  1  0.121492  0.364498  0.280843  1
  Si  Si314  1  0.121494  0.635293  0.280843  1
  Si  Si315  1  0.121690  0.635306  0.319602  1
  Si  Si316  1  0.121687  0.364483  0.319602  1
  Si  Si317  1  0.622459  0.499868  0.174064  1
  Si  Si318  1  0.878604  0.864471  0.142095  1
  Si  Si319  1  0.878603  0.135266  0.142096  1
  Si  Si320  1  0.685906  0.750821  0.124811  1
  Si  Si321  1  0.685907  0.248926  0.124812  1
  Si  Si322  1  0.622294  0.864221  0.090935  1
  Si  Si323  1  0.622293  0.135549  0.090934  1
  Si  Si324  1  0.622243  0.499874  0.135102  1
  Si  Si325  1  0.500041  0.135381  0.144203  1
  Si  Si326  1  0.500042  0.864367  0.144203  1
  Si  Si327  1  0.622294  0.635545  0.229682  1
  Si  Si328  1  0.500042  0.135461  0.183019  1
  Si  Si329  1  0.622292  0.364217  0.229682  1
  Si  Si330  1  0.685918  0.250840  0.263559  1
  Si  Si331  1  0.685918  0.748945  0.263558  1
  Si  Si332  1  0.878408  0.864456  0.180855  1
  Si  Si333  1  0.878407  0.135279  0.180855  1
  Si  Si334  1  0.691987  0.281835  0.194414  1
  Si  Si335  1  0.691987  0.717903  0.194414  1
  Si  Si336  1  0.500043  0.864279  0.183019  1
  Si  Si337  1  0.622474  -0.000000  0.312811  1
  Si  Si338  1  0.500052  0.364303  0.321766  1
  Si  Si339  1  0.622260  -0.000000  0.273850  1
  Si  Si340  1  0.878613  0.364500  0.280843  1
  Si  Si341  1  0.878616  0.635295  0.280843  1
  Si  Si342  1  0.500055  0.635486  0.321766  1
  Si  Si343  1  0.878417  0.364486  0.319602  1
  Si  Si344  1  0.878420  0.635309  0.319602  1
  Si  Si345  1  0.691999  0.781861  0.333161  1
  Si  Si346  1  0.691997  0.217930  0.333161  1
  Si  Si347  1  0.500056  0.635398  0.282950  1
  Si  Si348  1  0.500053  0.364385  0.282950  1
  Si  Si349  1  0.377622  0.499868  0.451558  1
  Si  Si350  1  0.377837  0.499874  0.412597  1
  Si  Si351  1  0.121482  0.864472  0.419590  1
  Si  Si352  1  0.121481  0.135267  0.419590  1
  Si  Si353  1  0.314180  0.750822  0.402305  1
  Si  Si354  1  0.314177  0.248926  0.402306  1
  Si  Si355  1  0.377804  0.864221  0.368430  1
  Si  Si356  1  0.377803  0.135549  0.368429  1
  Si  Si357  1  0.308098  0.281835  0.471909  1
  Si  Si358  1  0.377803  0.635546  0.507177  1
  Si  Si359  1  0.377802  0.364218  0.507176  1
  Si  Si360  1  0.308099  0.717905  0.471909  1
  Si  Si361  1  0.314188  0.250839  0.541054  1
  Si  Si362  1  0.314192  0.748945  0.541053  1
  Si  Si363  1  0.121678  0.864457  0.458349  1
  Si  Si364  1  0.121678  0.135280  0.458350  1
  Si  Si365  1  0.377637  -0.000000  0.590306  1
  Si  Si366  1  0.377853  -0.000000  0.551344  1
  Si  Si367  1  0.308108  0.217928  0.610656  1
  Si  Si368  1  0.308111  0.781860  0.610655  1
  Si  Si369  1  0.121492  0.364498  0.558338  1
  Si  Si370  1  0.121494  0.635293  0.558337  1
  Si  Si371  1  0.121690  0.635306  0.597097  1
  Si  Si372  1  0.121687  0.364483  0.597097  1
  Si  Si373  1  0.622459  0.499868  0.451558  1
  Si  Si374  1  0.878604  0.864471  0.419590  1
  Si  Si375  1  0.878603  0.135266  0.419590  1
  Si  Si376  1  0.685906  0.750821  0.402305  1
  Si  Si377  1  0.685907  0.248926  0.402306  1
  Si  Si378  1  0.622294  0.864221  0.368429  1
  Si  Si379  1  0.622293  0.135549  0.368429  1
  Si  Si380  1  0.622243  0.499874  0.412597  1
  Si  Si381  1  0.500041  0.135381  0.421698  1
  Si  Si382  1  0.500042  0.864367  0.421697  1
  Si  Si383  1  0.622294  0.635545  0.507177  1
  Si  Si384  1  0.500042  0.135461  0.460514  1
  Si  Si385  1  0.622292  0.364217  0.507176  1
  Si  Si386  1  0.685918  0.250840  0.541053  1
  Si  Si387  1  0.685918  0.748945  0.541053  1
  Si  Si388  1  0.878408  0.864456  0.458349  1
  Si  Si389  1  0.878407  0.135279  0.458350  1
  Si  Si390  1  0.691987  0.281835  0.471909  1
  Si  Si391  1  0.691987  0.717903  0.471908  1
  Si  Si392  1  0.500043  0.864279  0.460513  1
  Si  Si393  1  0.622474  0.000000  0.590306  1
  Si  Si394  1  0.500052  0.364303  0.599261  1
  Si  Si395  1  0.622260  -0.000000  0.551344  1
  Si  Si396  1  0.878613  0.364500  0.558338  1
  Si  Si397  1  0.878616  0.635295  0.558337  1
  Si  Si398  1  0.500055  0.635486  0.599261  1
  Si  Si399  1  0.878417  0.364486  0.597097  1
  Si  Si400  1  0.878420  0.635309  0.597097  1
  Si  Si401  1  0.691999  0.781861  0.610656  1
  Si  Si402  1  0.691997  0.217930  0.610656  1
  Si  Si403  1  0.500056  0.635398  0.560445  1
  Si  Si404  1  0.500053  0.364385  0.560445  1
  Si  Si405  1  0.377622  0.499868  0.729053  1
  Si  Si406  1  0.377837  0.499874  0.690091  1
  Si  Si407  1  0.121482  0.864472  0.697085  1
  Si  Si408  1  0.121481  0.135267  0.697085  1
  Si  Si409  1  0.314180  0.750822  0.679800  1
  Si  Si410  1  0.314177  0.248926  0.679801  1
  Si  Si411  1  0.377804  0.864221  0.645924  1
  Si  Si412  1  0.377803  0.135549  0.645924  1
  Si  Si413  1  0.308098  0.281835  0.749403  1
  Si  Si414  1  0.377803  0.635546  0.784671  1
  Si  Si415  1  0.377802  0.364218  0.784671  1
  Si  Si416  1  0.308099  0.717905  0.749403  1
  Si  Si417  1  0.121678  0.864457  0.735844  1
  Si  Si418  1  0.121678  0.135280  0.735844  1
  Si  Si419  1  0.622459  0.499868  0.729053  1
  Si  Si420  1  0.878604  0.864471  0.697085  1
  Si  Si421  1  0.878603  0.135266  0.697085  1
  Si  Si422  1  0.685906  0.750821  0.679800  1
  Si  Si423  1  0.685907  0.248926  0.679801  1
  Si  Si424  1  0.622294  0.864221  0.645924  1
  Si  Si425  1  0.622293  0.135549  0.645923  1
  Si  Si426  1  0.622243  0.499874  0.690091  1
  Si  Si427  1  0.500041  0.135381  0.699192  1
  Si  Si428  1  0.500042  0.864367  0.699192  1
  Si  Si429  1  0.622294  0.635545  0.784672  1
  Si  Si430  1  0.500042  0.135461  0.738008  1
  Si  Si431  1  0.622292  0.364217  0.784671  1
  Si  Si432  1  0.878408  0.864456  0.735844  1
  Si  Si433  1  0.878407  0.135279  0.735844  1
  Si  Si434  1  0.691987  0.281835  0.749403  1
  Si  Si435  1  0.691987  0.717903  0.749403  1
  Si  Si436  1  0.500043  0.864279  0.738008  1
  H  H437  1  0.322819  0.826020  0.062839  1
  H  H438  1  0.322817  0.173756  0.062839  1
  H  H439  1  0.677283  0.826019  0.062839  1
  H  H440  1  0.677283  0.173759  0.062839  1
  H  H441  1  0.336024  0.293406  0.811484  1
  H  H442  1  0.336025  0.706364  0.811484  1
  H  H443  1  0.664073  0.293405  0.811484  1
  H  H444  1  0.664077  0.706364  0.811484  1
