# generated using pymatgen
data_Si7H2O15
_symmetry_space_group_name_H-M   'P 1'
_cell_length_a   12.61611532
_cell_length_b   25.85588308
_cell_length_c   41.52776369
_cell_angle_alpha   125.89670319
_cell_angle_beta   90.00000000
_cell_angle_gamma   90.00000000
_symmetry_Int_Tables_number   1
_chemical_formula_structural   Si7H2O15
_chemical_formula_sum   'Si56 H16 O120'
_cell_volume   10973.5968937
_cell_formula_units_Z   8
loop_
 _symmetry_equiv_pos_site_id
 _symmetry_equiv_pos_as_xyz
  1  'x, y, z'
loop_
 _atom_site_type_symbol
 _atom_site_label
 _atom_site_symmetry_multiplicity
 _atom_site_fract_x
 _atom_site_fract_y
 _atom_site_fract_z
 _atom_site_occupancy
  O  O1  1  0.332688  0.201354  0.222975  1
  O  O2  1  0.326729  0.311030  0.287982  1
  O  O3  1  0.398375  0.114619  0.339998  1
  O  O4  1  0.499893  0.182119  0.323804  1
  O  O5  1  0.399410  0.222268  0.288200  1
  O  O6  1  0.201727  0.225110  0.281417  1
  O  O7  1  0.142688  0.183589  0.324288  1
  O  O8  1  0.199457  0.102979  0.340890  1
  O  O9  1  0.329837  0.001077  0.307844  1
  O  O10  1  0.327115  0.365206  0.217670  1
  O  O11  1  0.327113  0.634898  0.175608  1
  O  O12  1  0.332021  0.489972  0.272866  1
  O  O13  1  0.499893  0.421778  0.251705  1
  O  O14  1  0.360024  0.411125  0.290264  1
  O  O15  1  0.331115  0.581916  0.346664  1
  O  O16  1  0.202339  0.587974  0.299340  1
  O  O17  1  0.399151  0.601196  0.298036  1
  O  O18  1  0.142689  0.665506  0.280138  1
  O  O19  1  0.499893  0.373407  0.314346  1
  O  O20  1  0.328070  0.916822  0.320548  1
  O  O21  1  0.499891  0.786354  0.308687  1
  O  O22  1  0.359286  0.876226  0.247964  1
  O  O23  1  0.332686  0.798750  0.170302  1
  O  O24  1  0.325212  0.756277  0.212659  1
  O  O25  1  0.200283  0.703090  0.235967  1
  O  O26  1  0.398281  0.708379  0.245410  1
  O  O27  1  0.137686  0.700475  0.350223  1
  O  O28  1  0.140964  0.781940  0.308060  1
  O  O29  1  0.499891  0.668330  0.279844  1
  O  O30  1  0.499891  0.794660  0.203499  1
  O  O31  1  0.499891  0.701689  0.349840  1
  O  O32  1  0.499892  0.940737  0.300002  1
  O  O33  1  0.000000  0.226027  0.302120  1
  O  O34  1  0.667099  0.201354  0.222975  1
  O  O35  1  0.673057  0.311030  0.287982  1
  O  O36  1  0.800328  0.102979  0.340890  1
  O  O37  1  0.601410  0.114619  0.339998  1
  O  O38  1  0.600376  0.222268  0.288200  1
  O  O39  1  0.798059  0.225110  0.281417  1
  O  O40  1  0.857097  0.183589  0.324288  1
  O  O41  1  0.000000  0.142149  0.347025  1
  O  O42  1  0.669947  0.001077  0.307844  1
  O  O43  1  0.857094  0.665506  0.280138  1
  O  O44  1  0.672670  0.634898  0.175608  1
  O  O45  1  0.672671  0.365206  0.217670  1
  O  O46  1  0.667763  0.489972  0.272866  1
  O  O47  1  0.000000  0.622547  0.301911  1
  O  O48  1  0.639761  0.411125  0.290264  1
  O  O49  1  0.668668  0.581916  0.346664  1
  O  O50  1  0.797444  0.587975  0.299340  1
  O  O51  1  0.600632  0.601197  0.298036  1
  O  O52  1  0.000000  0.708739  0.258701  1
  O  O53  1  0.671713  0.916821  0.320548  1
  O  O54  1  0.640497  0.876226  0.247964  1
  O  O55  1  0.667097  0.798750  0.170302  1
  O  O56  1  0.674571  0.756276  0.212659  1
  O  O57  1  0.799500  0.703090  0.235967  1
  O  O58  1  0.601502  0.708379  0.245410  1
  O  O59  1  0.858819  0.781940  0.308060  1
  O  O60  1  0.862098  0.700475  0.350223  1
  O  O61  1  0.328071  0.083283  0.382192  1
  O  O62  1  0.499892  0.059367  0.402739  1
  O  O63  1  0.359288  0.123878  0.454777  1
  O  O64  1  0.499893  0.213751  0.394054  1
  O  O65  1  0.332688  0.201354  0.532438  1
  O  O66  1  0.325214  0.243828  0.490082  1
  O  O67  1  0.200284  0.297014  0.466774  1
  O  O68  1  0.398283  0.291725  0.457330  1
  O  O69  1  0.499893  0.298415  0.352901  1
  O  O70  1  0.499893  0.331774  0.422896  1
  O  O71  1  0.499893  0.205444  0.499241  1
  O  O72  1  0.137687  0.299629  0.352517  1
  O  O73  1  0.140965  0.218164  0.394681  1
  O  O74  1  0.327115  0.365206  0.527132  1
  O  O75  1  0.327113  0.634898  0.485071  1
  O  O76  1  0.332021  0.510132  0.429875  1
  O  O77  1  0.360023  0.588979  0.412477  1
  O  O78  1  0.499892  0.578326  0.451036  1
  O  O79  1  0.499892  0.626697  0.388394  1
  O  O80  1  0.331117  0.418189  0.356077  1
  O  O81  1  0.202340  0.412130  0.403401  1
  O  O82  1  0.399152  0.398908  0.404705  1
  O  O83  1  0.142690  0.334599  0.422603  1
  O  O84  1  0.332686  0.798750  0.479765  1
  O  O85  1  0.326727  0.689074  0.414758  1
  O  O86  1  0.398374  0.885485  0.362743  1
  O  O87  1  0.499891  0.817985  0.378937  1
  O  O88  1  0.399408  0.777836  0.414541  1
  O  O89  1  0.201726  0.774994  0.421323  1
  O  O90  1  0.142687  0.816515  0.378452  1
  O  O91  1  0.199456  0.897126  0.361851  1
  O  O92  1  0.329837  -0.000000  0.394896  1
  O  O93  1  0.000000  0.291365  0.444039  1
  O  O94  1  0.671714  0.083282  0.382192  1
  O  O95  1  0.640498  0.123878  0.454777  1
  O  O96  1  0.667099  0.201354  0.532438  1
  O  O97  1  0.674572  0.243828  0.490082  1
  O  O98  1  0.799501  0.297014  0.466774  1
  O  O99  1  0.601503  0.291725  0.457330  1
  O  O100  1  0.862099  0.299629  0.352517  1
  O  O101  1  0.858820  0.218164  0.394681  1
  O  O102  1  0.857095  0.334599  0.422603  1
  O  O103  1  0.672670  0.634898  0.485071  1
  O  O104  1  0.672671  0.365206  0.527132  1
  O  O105  1  0.667763  0.510132  0.429875  1
  O  O106  1  0.639760  0.588979  0.412477  1
  O  O107  1  0.668669  0.418189  0.356077  1
  O  O108  1  0.797445  0.412130  0.403400  1
  O  O109  1  0.600634  0.398908  0.404705  1
  O  O110  1  0.000000  0.377557  0.400829  1
  O  O111  1  0.857096  0.816515  0.378452  1
  O  O112  1  0.800327  0.897125  0.361851  1
  O  O113  1  0.667097  0.798750  0.479765  1
  O  O114  1  0.673055  0.689074  0.414758  1
  O  O115  1  0.000000  0.857956  0.355716  1
  O  O116  1  0.601409  0.885485  0.362743  1
  O  O117  1  0.600375  0.777836  0.414540  1
  O  O118  1  0.798057  0.774994  0.421323  1
  O  O119  1  0.000000  0.774078  0.400621  1
  O  O120  1  0.669947  0.000000  0.394896  1
  Si  Si121  1  0.121573  0.231300  0.312776  1
  Si  Si122  1  0.121919  0.158485  0.350585  1
  Si  Si123  1  0.310993  0.238158  0.268774  1
  Si  Si124  1  0.309158  0.074331  0.341691  1
  Si  Si125  1  0.499893  0.230161  0.312639  1
  Si  Si126  1  0.499893  0.155420  0.349163  1
  Si  Si127  1  0.121592  0.640234  0.306283  1
  Si  Si128  1  0.377106  0.422427  0.257327  1
  Si  Si129  1  0.376681  0.379508  0.312612  1
  Si  Si130  1  0.312500  0.563676  0.303627  1
  Si  Si131  1  0.499891  0.641901  0.305443  1
  Si  Si132  1  0.121820  0.713323  0.268715  1
  Si  Si133  1  0.376793  0.933566  0.292780  1
  Si  Si134  1  0.377149  0.807322  0.208608  1
  Si  Si135  1  0.309533  0.700346  0.216778  1
  Si  Si136  1  0.499891  0.717212  0.269210  1
  Si  Si137  1  0.878212  0.231300  0.312776  1
  Si  Si138  1  0.877866  0.158485  0.350585  1
  Si  Si139  1  0.688794  0.238159  0.268775  1
  Si  Si140  1  0.690628  0.074330  0.341690  1
  Si  Si141  1  0.878191  0.640234  0.306283  1
  Si  Si142  1  0.622679  0.422427  0.257327  1
  Si  Si143  1  0.623105  0.379508  0.312612  1
  Si  Si144  1  0.687283  0.563677  0.303627  1
  Si  Si145  1  0.877963  0.713323  0.268715  1
  Si  Si146  1  0.622991  0.933566  0.292780  1
  Si  Si147  1  0.622633  0.807322  0.208608  1
  Si  Si148  1  0.690249  0.700346  0.216778  1
  Si  Si149  1  0.121821  0.286781  0.434026  1
  Si  Si150  1  0.376793  0.066538  0.409961  1
  Si  Si151  1  0.377151  0.192782  0.494133  1
  Si  Si152  1  0.309535  0.299758  0.485962  1
  Si  Si153  1  0.499893  0.282892  0.433530  1
  Si  Si154  1  0.121593  0.359870  0.396458  1
  Si  Si155  1  0.377105  0.577677  0.445413  1
  Si  Si156  1  0.376680  0.620596  0.390128  1
  Si  Si157  1  0.312501  0.436428  0.399114  1
  Si  Si158  1  0.499893  0.358203  0.397298  1
  Si  Si159  1  0.121572  0.768804  0.389965  1
  Si  Si160  1  0.121918  0.841619  0.352156  1
  Si  Si161  1  0.310991  0.761946  0.433966  1
  Si  Si162  1  0.309156  0.925774  0.361050  1
  Si  Si163  1  0.499891  0.844684  0.353578  1
  Si  Si164  1  0.499891  0.769943  0.390101  1
  Si  Si165  1  0.877965  0.286781  0.434026  1
  Si  Si166  1  0.622992  0.066538  0.409961  1
  Si  Si167  1  0.622635  0.192782  0.494133  1
  Si  Si168  1  0.690250  0.299758  0.485962  1
  Si  Si169  1  0.878193  0.359870  0.396457  1
  Si  Si170  1  0.622678  0.577677  0.445413  1
  Si  Si171  1  0.623103  0.620596  0.390128  1
  Si  Si172  1  0.687284  0.436428  0.399114  1
  Si  Si173  1  0.878211  0.768804  0.389965  1
  Si  Si174  1  0.877866  0.841619  0.352156  1
  Si  Si175  1  0.688792  0.761946  0.433966  1
  Si  Si176  1  0.690627  0.925774  0.361050  1
  H  H177  1  0.332688  0.201354  0.201303  1
  H  H178  1  0.327115  0.365206  0.195997  1
  H  H179  1  0.327113  0.634898  0.153936  1
  H  H180  1  0.332686  0.798750  0.148630  1
  H  H181  1  0.667099  0.201354  0.201303  1
  H  H182  1  0.672670  0.634898  0.153936  1
  H  H183  1  0.672671  0.365206  0.195997  1
  H  H184  1  0.667097  0.798750  0.148630  1
  H  H185  1  0.332688  0.201354  0.554110  1
  H  H186  1  0.327115  0.365206  0.548805  1
  H  H187  1  0.327113  0.634898  0.506743  1
  H  H188  1  0.332686  0.798750  0.501437  1
  H  H189  1  0.667099  0.201354  0.554110  1
  H  H190  1  0.672670  0.634898  0.506743  1
  H  H191  1  0.672671  0.365206  0.548805  1
  H  H192  1  0.667097  0.798750  0.501437  1
