# generated using pymatgen
data_Si21H2O43
_symmetry_space_group_name_H-M   'P 1'
_cell_length_a   11.39954126
_cell_length_b   25.27156065
_cell_length_c   57.20088963
_cell_angle_alpha   90.00000000
_cell_angle_beta   90.00000000
_cell_angle_gamma   90.00000000
_symmetry_Int_Tables_number   1
_chemical_formula_structural   Si21H2O43
_chemical_formula_sum   'Si168 H16 O344'
_cell_volume   16478.6724319
_cell_formula_units_Z   8
loop_
 _symmetry_equiv_pos_site_id
 _symmetry_equiv_pos_as_xyz
  1  'x, y, z'
loop_
 _atom_site_type_symbol
 _atom_site_label
 _atom_site_symmetry_multiplicity
 _atom_site_fract_x
 _atom_site_fract_y
 _atom_site_fract_z
 _atom_site_occupancy
  O  O1  1  0.692572  0.800467  0.371798  1
  O  O2  1  0.307339  0.699481  0.371800  1
  O  O3  1  0.692561  0.699471  0.371798  1
  O  O4  1  0.307337  0.800478  0.371799  1
  O  O5  1  0.887944  0.836003  0.383556  1
  O  O6  1  0.111947  0.835998  0.383556  1
  O  O7  1  0.717458  0.899576  0.371793  1
  O  O8  1  0.282406  0.899584  0.371796  1
  O  O9  1  0.826249  0.838588  0.340904  1
  O  O10  1  0.173652  0.838591  0.340904  1
  O  O11  1  0.792129  0.898827  0.261543  1
  O  O12  1  0.207780  0.898829  0.261543  1
  O  O13  1  0.811307  0.800792  0.254659  1
  O  O14  1  0.188594  0.699167  0.254664  1
  O  O15  1  0.811302  0.699166  0.254659  1
  O  O16  1  0.188596  0.800793  0.254659  1
  O  O17  1  0.615368  0.834374  0.267172  1
  O  O18  1  0.384539  0.834376  0.267171  1
  O  O19  1  0.793426  0.832032  0.296022  1
  O  O20  1  0.206476  0.667907  0.296023  1
  O  O21  1  0.793440  0.667910  0.296019  1
  O  O22  1  0.206482  0.832033  0.296021  1
  O  O23  1  0.845512  0.749971  0.319807  1
  O  O24  1  0.154398  0.749973  0.319808  1
  O  O25  1  0.000000  0.819080  0.313870  1
  O  O26  1  0.000000  0.680863  0.313872  1
  O  O27  1  0.499933  0.928336  0.381376  1
  O  O28  1  0.657929  -0.000000  0.381043  1
  O  O29  1  0.845567  0.929778  0.219770  1
  O  O30  1  0.000000  0.930209  0.250786  1
  O  O31  1  0.499953  0.749977  0.378340  1
  O  O32  1  0.656942  0.749969  0.409494  1
  O  O33  1  0.342964  0.749983  0.409494  1
  O  O34  1  0.000000  0.749978  0.247864  1
  O  O35  1  0.499960  0.819674  0.229179  1
  O  O36  1  0.499944  0.680266  0.229180  1
  O  O37  1  0.000000  0.749975  0.390301  1
  O  O38  1  0.499947  0.749973  0.260299  1
  O  O39  1  0.154343  0.929781  0.219771  1
  O  O40  1  0.341948  0.000000  0.381047  1
  O  O41  1  0.611942  0.336006  0.248747  1
  O  O42  1  0.111958  0.663952  0.383557  1
  O  O43  1  0.887953  0.663947  0.383552  1
  O  O44  1  0.387939  0.336003  0.248746  1
  O  O45  1  0.782420  0.399585  0.260507  1
  O  O46  1  0.282436  0.600373  0.371797  1
  O  O47  1  0.717482  0.600364  0.371795  1
  O  O48  1  0.217473  0.399587  0.260508  1
  O  O49  1  0.673665  0.338592  0.291398  1
  O  O50  1  0.173663  0.661359  0.340906  1
  O  O51  1  0.826235  0.661354  0.340902  1
  O  O52  1  0.326244  0.338594  0.291398  1
  O  O53  1  0.707769  0.398819  0.370763  1
  O  O54  1  0.207767  0.601129  0.261536  1
  O  O55  1  0.792120  0.601129  0.261534  1
  O  O56  1  0.292116  0.398827  0.370764  1
  O  O57  1  0.884534  0.334373  0.365131  1
  O  O58  1  0.384532  0.665573  0.267173  1
  O  O59  1  0.615367  0.665576  0.267172  1
  O  O60  1  0.115365  0.334372  0.365130  1
  O  O61  1  0.000000  0.428342  0.250926  1
  O  O62  1  0.499960  0.571610  0.381378  1
  O  O63  1  0.154332  0.570172  0.219763  1
  O  O64  1  0.841954  0.499500  0.251255  1
  O  O65  1  0.341962  0.500455  0.381044  1
  O  O66  1  0.657943  0.500449  0.381044  1
  O  O67  1  0.157934  0.499502  0.251256  1
  O  O68  1  0.499946  0.430202  0.381521  1
  O  O69  1  0.000000  0.569751  0.250776  1
  O  O70  1  0.845557  0.570169  0.219761  1
  O  O71  1  0.654336  0.429773  0.412535  1
  O  O72  1  0.345561  0.429778  0.412536  1
  O  O73  1  0.807330  0.300478  0.260500  1
  O  O74  1  0.192563  0.199484  0.260506  1
  O  O75  1  0.807331  0.199481  0.260506  1
  O  O76  1  0.192554  0.300481  0.260504  1
  O  O77  1  0.387944  0.163955  0.248748  1
  O  O78  1  0.611949  0.163951  0.248750  1
  O  O79  1  0.217472  0.100376  0.260508  1
  O  O80  1  0.782428  0.100373  0.260508  1
  O  O81  1  0.326244  0.161363  0.291399  1
  O  O82  1  0.673659  0.161358  0.291400  1
  O  O83  1  0.292124  0.101127  0.370766  1
  O  O84  1  0.707767  0.101121  0.370764  1
  O  O85  1  0.688597  0.300783  0.377643  1
  O  O86  1  0.311297  0.199165  0.377644  1
  O  O87  1  0.688591  0.199157  0.377645  1
  O  O88  1  0.311309  0.300791  0.377641  1
  O  O89  1  0.115364  0.165574  0.365130  1
  O  O90  1  0.884531  0.165569  0.365133  1
  O  O91  1  0.706475  0.332033  0.336281  1
  O  O92  1  0.293431  0.167914  0.336282  1
  O  O93  1  0.706472  0.167915  0.336283  1
  O  O94  1  0.293429  0.332042  0.336280  1
  O  O95  1  0.654393  0.249976  0.312495  1
  O  O96  1  0.345506  0.249978  0.312496  1
  O  O97  1  0.499953  0.319086  0.318430  1
  O  O98  1  0.499950  0.180870  0.318433  1
  O  O99  1  -0.000000  0.071616  0.250927  1
  O  O100  1  0.841962  0.000000  0.251261  1
  O  O101  1  0.345564  0.070170  0.412540  1
  O  O102  1  0.499945  0.069744  0.381523  1
  O  O103  1  0.000000  0.249978  0.253962  1
  O  O104  1  0.842959  0.249966  0.222807  1
  O  O105  1  0.156938  0.249977  0.222809  1
  O  O106  1  0.499948  0.249973  0.384439  1
  O  O107  1  0.000000  0.319674  0.403123  1
  O  O108  1  0.000000  0.180267  0.403123  1
  O  O109  1  0.499951  0.249978  0.242002  1
  O  O110  1  0.000000  0.249972  0.372004  1
  O  O111  1  0.157945  -0.000000  0.251261  1
  O  O112  1  0.654340  0.070163  0.412537  1
  O  O113  1  0.192566  0.800470  0.178928  1
  O  O114  1  0.807337  0.699471  0.178924  1
  O  O115  1  0.192577  0.699472  0.178924  1
  O  O116  1  0.807348  0.800467  0.178922  1
  O  O117  1  0.387957  0.835995  0.190681  1
  O  O118  1  0.611962  0.835990  0.190680  1
  O  O119  1  0.217480  0.899577  0.178926  1
  O  O120  1  0.782433  0.899575  0.178924  1
  O  O121  1  0.326233  0.838590  0.148032  1
  O  O122  1  0.673667  0.838591  0.148029  1
  O  O123  1  0.293422  0.832037  0.103149  1
  O  O124  1  0.706473  0.667910  0.103147  1
  O  O125  1  0.293418  0.667917  0.103145  1
  O  O126  1  0.706462  0.832036  0.103146  1
  O  O127  1  0.345504  0.749975  0.126934  1
  O  O128  1  0.654389  0.749975  0.126932  1
  O  O129  1  0.499945  0.819085  0.120999  1
  O  O130  1  0.499945  0.680868  0.120994  1
  O  O131  1  0.000000  0.928333  0.188507  1
  O  O132  1  0.157943  0.000000  0.188172  1
  O  O133  1  0.841963  0.000000  0.188172  1
  O  O134  1  0.000000  0.749965  0.185465  1
  O  O135  1  0.156943  0.749966  0.216621  1
  O  O136  1  0.842966  0.749975  0.216618  1
  O  O137  1  0.499950  0.749967  0.197427  1
  O  O138  1  0.611957  0.663943  0.190682  1
  O  O139  1  0.387954  0.663939  0.190680  1
  O  O140  1  0.782421  0.600363  0.178916  1
  O  O141  1  0.217473  0.600364  0.178917  1
  O  O142  1  0.673642  0.661360  0.148029  1
  O  O143  1  0.326247  0.661355  0.148028  1
  O  O144  1  0.207781  0.398820  0.177890  1
  O  O145  1  0.792129  0.398815  0.177888  1
  O  O146  1  0.384536  0.334368  0.172255  1
  O  O147  1  0.615368  0.334368  0.172256  1
  O  O148  1  -0.000000  0.571606  0.188497  1
  O  O149  1  0.841957  0.500446  0.188166  1
  O  O150  1  0.157940  0.500449  0.188168  1
  O  O151  1  0.000000  0.430199  0.188646  1
  O  O152  1  0.845562  0.429778  0.219660  1
  O  O153  1  0.154335  0.429780  0.219662  1
  O  O154  1  0.792126  0.101116  0.177888  1
  O  O155  1  0.207773  0.101121  0.177889  1
  O  O156  1  0.188595  0.300784  0.184767  1
  O  O157  1  0.811314  0.199152  0.184766  1
  O  O158  1  0.188607  0.199158  0.184771  1
  O  O159  1  0.811308  0.300778  0.184767  1
  O  O160  1  0.615370  0.165569  0.172256  1
  O  O161  1  0.384541  0.165567  0.172259  1
  O  O162  1  0.206471  0.332035  0.143407  1
  O  O163  1  0.793429  0.167903  0.143405  1
  O  O164  1  0.206484  0.167914  0.143408  1
  O  O165  1  0.793424  0.332028  0.143406  1
  O  O166  1  0.000000  0.069741  0.188648  1
  O  O167  1  0.000000  0.249967  0.191564  1
  O  O168  1  0.499948  0.319677  0.210248  1
  O  O169  1  0.499962  0.180269  0.210250  1
  O  O170  1  0.499952  0.249969  0.179130  1
  O  O171  1  0.154340  0.070172  0.219663  1
  O  O172  1  0.845560  0.070169  0.219662  1
  O  O173  1  0.792129  0.898827  0.647292  1
  O  O174  1  0.207780  0.898829  0.647292  1
  O  O175  1  0.811307  0.800792  0.640408  1
  O  O176  1  0.188594  0.699167  0.640413  1
  O  O177  1  0.811302  0.699166  0.640408  1
  O  O178  1  0.188596  0.800793  0.640408  1
  O  O179  1  0.615368  0.834374  0.652921  1
  O  O180  1  0.384539  0.834376  0.652920  1
  O  O181  1  0.793426  0.832032  0.681771  1
  O  O182  1  0.206476  0.667907  0.681772  1
  O  O183  1  0.793440  0.667910  0.681768  1
  O  O184  1  0.206482  0.832033  0.681771  1
  O  O185  1  0.845567  0.929778  0.605519  1
  O  O186  1  0.000000  0.930209  0.636535  1
  O  O187  1  0.000000  0.749978  0.633613  1
  O  O188  1  0.499960  0.819674  0.614928  1
  O  O189  1  0.499944  0.680266  0.614929  1
  O  O190  1  0.499947  0.749973  0.646048  1
  O  O191  1  0.154343  0.929781  0.605520  1
  O  O192  1  0.611942  0.336006  0.634497  1
  O  O193  1  0.387939  0.336003  0.634495  1
  O  O194  1  0.782420  0.399585  0.646256  1
  O  O195  1  0.217473  0.399587  0.646257  1
  O  O196  1  0.673665  0.338592  0.677147  1
  O  O197  1  0.326244  0.338594  0.677147  1
  O  O198  1  0.207767  0.601129  0.647285  1
  O  O199  1  0.792120  0.601129  0.647283  1
  O  O200  1  0.384532  0.665573  0.652922  1
  O  O201  1  0.615367  0.665576  0.652921  1
  O  O202  1  0.000000  0.428342  0.636675  1
  O  O203  1  0.154332  0.570172  0.605512  1
  O  O204  1  0.841954  0.499500  0.637004  1
  O  O205  1  0.157934  0.499502  0.637005  1
  O  O206  1  0.000000  0.569751  0.636526  1
  O  O207  1  0.845557  0.570169  0.605510  1
  O  O208  1  0.807330  0.300478  0.646249  1
  O  O209  1  0.192563  0.199484  0.646255  1
  O  O210  1  0.807331  0.199481  0.646255  1
  O  O211  1  0.192554  0.300481  0.646253  1
  O  O212  1  0.387944  0.163955  0.634497  1
  O  O213  1  0.611949  0.163951  0.634499  1
  O  O214  1  0.217472  0.100376  0.646257  1
  O  O215  1  0.782428  0.100373  0.646257  1
  O  O216  1  0.326244  0.161363  0.677148  1
  O  O217  1  0.673659  0.161358  0.677150  1
  O  O218  1  0.706475  0.332033  0.722030  1
  O  O219  1  0.293431  0.167914  0.722032  1
  O  O220  1  0.706472  0.167915  0.722032  1
  O  O221  1  0.293429  0.332042  0.722030  1
  O  O222  1  0.654393  0.249976  0.698244  1
  O  O223  1  0.345506  0.249978  0.698245  1
  O  O224  1  0.499953  0.319086  0.704179  1
  O  O225  1  0.499950  0.180870  0.704182  1
  O  O226  1  0.000000  0.071616  0.636676  1
  O  O227  1  0.841962  -0.000000  0.637010  1
  O  O228  1  0.000000  0.249978  0.639712  1
  O  O229  1  0.842959  0.249966  0.608556  1
  O  O230  1  0.156938  0.249977  0.608558  1
  O  O231  1  0.499951  0.249978  0.627751  1
  O  O232  1  0.157945  0.000000  0.637010  1
  O  O233  1  0.192566  0.800470  0.564677  1
  O  O234  1  0.807337  0.699471  0.564673  1
  O  O235  1  0.192577  0.699472  0.564673  1
  O  O236  1  0.807348  0.800467  0.564671  1
  O  O237  1  0.387957  0.835995  0.576431  1
  O  O238  1  0.611962  0.835990  0.576429  1
  O  O239  1  0.217480  0.899577  0.564675  1
  O  O240  1  0.782433  0.899575  0.564673  1
  O  O241  1  0.326233  0.838590  0.533781  1
  O  O242  1  0.673667  0.838591  0.533779  1
  O  O243  1  0.292123  0.898821  0.454415  1
  O  O244  1  0.707777  0.898815  0.454411  1
  O  O245  1  0.311312  0.800785  0.447538  1
  O  O246  1  0.688595  0.699152  0.447534  1
  O  O247  1  0.311299  0.699159  0.447532  1
  O  O248  1  0.688597  0.800778  0.447535  1
  O  O249  1  0.115366  0.834371  0.460047  1
  O  O250  1  0.884533  0.834366  0.460048  1
  O  O251  1  0.293422  0.832037  0.488898  1
  O  O252  1  0.706473  0.667910  0.488896  1
  O  O253  1  0.293418  0.667917  0.488894  1
  O  O254  1  0.706462  0.832036  0.488896  1
  O  O255  1  0.345504  0.749975  0.512683  1
  O  O256  1  0.654389  0.749975  0.512681  1
  O  O257  1  0.499945  0.819085  0.506748  1
  O  O258  1  0.499945  0.680868  0.506743  1
  O  O259  1  0.000000  0.928333  0.574256  1
  O  O260  1  0.157943  0.000000  0.573921  1
  O  O261  1  0.841963  0.000000  0.573921  1
  O  O262  1  0.499949  0.930197  0.443656  1
  O  O263  1  -0.000000  0.749965  0.571214  1
  O  O264  1  0.156943  0.749966  0.602370  1
  O  O265  1  0.842966  0.749975  0.602368  1
  O  O266  1  0.499952  0.749967  0.440739  1
  O  O267  1  0.000000  0.819676  0.422054  1
  O  O268  1  0.000000  0.680268  0.422053  1
  O  O269  1  0.499950  0.749967  0.583176  1
  O  O270  1  0.000000  0.749969  0.453174  1
  O  O271  1  0.654328  0.929772  0.412639  1
  O  O272  1  0.345553  0.929778  0.412642  1
  O  O273  1  0.111950  0.335998  0.441622  1
  O  O274  1  0.611957  0.663943  0.576431  1
  O  O275  1  0.387954  0.663939  0.576429  1
  O  O276  1  0.887945  0.335990  0.441621  1
  O  O277  1  0.282426  0.399579  0.453382  1
  O  O278  1  0.782421  0.600363  0.564665  1
  O  O279  1  0.217473  0.600364  0.564666  1
  O  O280  1  0.717475  0.399572  0.453381  1
  O  O281  1  0.173654  0.338590  0.484273  1
  O  O282  1  0.673642  0.661360  0.533779  1
  O  O283  1  0.326247  0.661355  0.533777  1
  O  O284  1  0.826244  0.338583  0.484273  1
  O  O285  1  0.207781  0.398820  0.563639  1
  O  O286  1  0.707787  0.601117  0.454415  1
  O  O287  1  0.292143  0.601122  0.454415  1
  O  O288  1  0.792129  0.398815  0.563638  1
  O  O289  1  0.384536  0.334368  0.558004  1
  O  O290  1  0.884536  0.665571  0.460048  1
  O  O291  1  0.115366  0.665565  0.460043  1
  O  O292  1  0.615368  0.334368  0.558006  1
  O  O293  1  0.499953  0.428332  0.443800  1
  O  O294  1  0.000000  0.571606  0.574246  1
  O  O295  1  0.341968  0.499493  0.444134  1
  O  O296  1  0.841957  0.500446  0.573915  1
  O  O297  1  0.157940  0.500449  0.573917  1
  O  O298  1  0.657950  0.499488  0.444133  1
  O  O299  1  0.000000  0.430199  0.574395  1
  O  O300  1  0.499966  0.569739  0.443656  1
  O  O301  1  0.654353  0.570164  0.412641  1
  O  O302  1  0.345575  0.570169  0.412642  1
  O  O303  1  0.845562  0.429778  0.605410  1
  O  O304  1  0.154335  0.429780  0.605411  1
  O  O305  1  0.307333  0.300471  0.453380  1
  O  O306  1  0.692559  0.199467  0.453379  1
  O  O307  1  0.307329  0.199475  0.453377  1
  O  O308  1  0.692562  0.300464  0.453380  1
  O  O309  1  0.887945  0.163947  0.441620  1
  O  O310  1  0.111950  0.163940  0.441624  1
  O  O311  1  0.717488  0.100360  0.453382  1
  O  O312  1  0.282437  0.100366  0.453385  1
  O  O313  1  0.826257  0.161352  0.484272  1
  O  O314  1  0.173668  0.161356  0.484275  1
  O  O315  1  0.792126  0.101116  0.563638  1
  O  O316  1  0.207773  0.101121  0.563638  1
  O  O317  1  0.188595  0.300784  0.570517  1
  O  O318  1  0.811314  0.199152  0.570515  1
  O  O319  1  0.188607  0.199158  0.570520  1
  O  O320  1  0.811308  0.300778  0.570516  1
  O  O321  1  0.615370  0.165569  0.558006  1
  O  O322  1  0.384541  0.165567  0.558008  1
  O  O323  1  0.206471  0.332035  0.529156  1
  O  O324  1  0.793429  0.167903  0.529154  1
  O  O325  1  0.206484  0.167914  0.529157  1
  O  O326  1  0.793424  0.332028  0.529155  1
  O  O327  1  0.154396  0.249973  0.505371  1
  O  O328  1  0.845511  0.249966  0.505369  1
  O  O329  1  0.000000  0.319078  0.511306  1
  O  O330  1  -0.000000  0.180861  0.511307  1
  O  O331  1  0.499960  0.071606  0.443803  1
  O  O332  1  0.657945  -0.000000  0.444132  1
  O  O333  1  0.341964  -0.000000  0.444136  1
  O  O334  1  0.000000  0.069741  0.574397  1
  O  O335  1  0.499944  0.249969  0.446838  1
  O  O336  1  0.342957  0.249979  0.415683  1
  O  O337  1  0.656934  0.249970  0.415684  1
  O  O338  1  0.000000  0.249967  0.577313  1
  O  O339  1  0.499948  0.319677  0.595998  1
  O  O340  1  0.499962  0.180269  0.596000  1
  O  O341  1  0.000000  0.249969  0.434876  1
  O  O342  1  0.499952  0.249969  0.564879  1
  O  O343  1  0.154340  0.070172  0.605412  1
  O  O344  1  0.845560  0.070169  0.605411  1
  Si  Si345  1  0.499947  0.688803  0.256280  1
  Si  Si346  1  0.499953  0.811144  0.256280  1
  Si  Si347  1  0.782160  0.845800  0.366622  1
  Si  Si348  1  0.217729  0.845804  0.366622  1
  Si  Si349  1  0.750753  0.843023  0.270484  1
  Si  Si350  1  0.249153  0.843024  0.270483  1
  Si  Si351  1  0.864505  0.811169  0.317538  1
  Si  Si352  1  0.135403  0.688775  0.317540  1
  Si  Si353  1  0.864506  0.688774  0.317537  1
  Si  Si354  1  0.135402  0.811170  0.317538  1
  Si  Si355  1  0.635223  0.938661  0.385641  1
  Si  Si356  1  0.364648  0.938667  0.385644  1
  Si  Si357  1  0.864798  0.939639  0.246691  1
  Si  Si358  1  0.135111  0.939641  0.246692  1
  Si  Si359  1  0.635315  0.749971  0.382473  1
  Si  Si360  1  0.364592  0.749980  0.382474  1
  Si  Si361  1  0.864646  0.749978  0.243605  1
  Si  Si362  1  0.135258  0.749977  0.243607  1
  Si  Si363  1  0.000000  0.811241  0.394976  1
  Si  Si364  1  0.000000  0.688708  0.394975  1
  Si  Si365  1  0.364790  0.439637  0.385615  1
  Si  Si366  1  0.864787  0.560317  0.246683  1
  Si  Si367  1  0.135100  0.560319  0.246684  1
  Si  Si368  1  0.635103  0.439631  0.385614  1
  Si  Si369  1  0.717735  0.345806  0.265679  1
  Si  Si370  1  0.217745  0.654150  0.366624  1
  Si  Si371  1  0.782162  0.654143  0.366620  1
  Si  Si372  1  0.282158  0.345808  0.265681  1
  Si  Si373  1  0.749147  0.343018  0.361820  1
  Si  Si374  1  0.249145  0.656927  0.270484  1
  Si  Si375  1  0.750755  0.656929  0.270481  1
  Si  Si376  1  0.250750  0.343024  0.361819  1
  Si  Si377  1  0.864659  0.438669  0.246659  1
  Si  Si378  1  0.364672  0.561285  0.385643  1
  Si  Si379  1  0.635246  0.561280  0.385643  1
  Si  Si380  1  0.135233  0.438670  0.246660  1
  Si  Si381  1  0.000000  0.188801  0.376023  1
  Si  Si382  1  0.000000  0.311142  0.376023  1
  Si  Si383  1  0.282159  0.154154  0.265682  1
  Si  Si384  1  0.717738  0.154150  0.265683  1
  Si  Si385  1  0.250753  0.156928  0.361821  1
  Si  Si386  1  0.749144  0.156924  0.361821  1
  Si  Si387  1  0.635401  0.311173  0.314763  1
  Si  Si388  1  0.364502  0.188781  0.314766  1
  Si  Si389  1  0.635398  0.188779  0.314766  1
  Si  Si390  1  0.364503  0.311176  0.314764  1
  Si  Si391  1  0.135239  0.061289  0.246661  1
  Si  Si392  1  0.864664  0.061287  0.246661  1
  Si  Si393  1  0.364788  0.060315  0.385618  1
  Si  Si394  1  0.635102  0.060309  0.385615  1
  Si  Si395  1  0.864583  0.249976  0.249828  1
  Si  Si396  1  0.135306  0.249980  0.249830  1
  Si  Si397  1  0.635253  0.249971  0.388697  1
  Si  Si398  1  0.364641  0.249978  0.388696  1
  Si  Si399  1  0.499944  0.311244  0.237327  1
  Si  Si400  1  0.499952  0.188711  0.237329  1
  Si  Si401  1  0.282163  0.845799  0.173750  1
  Si  Si402  1  0.717748  0.845797  0.173748  1
  Si  Si403  1  0.364497  0.811172  0.124666  1
  Si  Si404  1  0.635393  0.688778  0.124663  1
  Si  Si405  1  0.364497  0.688778  0.124662  1
  Si  Si406  1  0.635394  0.811173  0.124664  1
  Si  Si407  1  0.135242  0.938663  0.192772  1
  Si  Si408  1  0.864668  0.938660  0.192772  1
  Si  Si409  1  0.135318  0.749968  0.189600  1
  Si  Si410  1  0.864596  0.749969  0.189598  1
  Si  Si411  1  0.499958  0.811234  0.202100  1
  Si  Si412  1  0.499950  0.688700  0.202101  1
  Si  Si413  1  0.864794  0.439630  0.192739  1
  Si  Si414  1  0.717734  0.654144  0.173746  1
  Si  Si415  1  0.282168  0.654142  0.173746  1
  Si  Si416  1  0.249149  0.343018  0.168945  1
  Si  Si417  1  0.750755  0.343014  0.168945  1
  Si  Si418  1  0.864659  0.561278  0.192763  1
  Si  Si419  1  0.135233  0.561281  0.192764  1
  Si  Si420  1  0.135108  0.439632  0.192740  1
  Si  Si421  1  0.499958  0.188799  0.183150  1
  Si  Si422  1  0.499951  0.311140  0.183148  1
  Si  Si423  1  0.750755  0.156919  0.168944  1
  Si  Si424  1  0.249154  0.156923  0.168947  1
  Si  Si425  1  0.864794  0.060308  0.192742  1
  Si  Si426  1  0.135107  0.060311  0.192742  1
  Si  Si427  1  0.135260  0.249971  0.195823  1
  Si  Si428  1  0.864648  0.249965  0.195821  1
  Si  Si429  1  0.499947  0.688803  0.642029  1
  Si  Si430  1  0.499953  0.811144  0.642029  1
  Si  Si431  1  0.750753  0.843023  0.656233  1
  Si  Si432  1  0.249153  0.843024  0.656232  1
  Si  Si433  1  0.864798  0.939639  0.632441  1
  Si  Si434  1  0.135111  0.939641  0.632441  1
  Si  Si435  1  0.864646  0.749978  0.629355  1
  Si  Si436  1  0.135258  0.749977  0.629356  1
  Si  Si437  1  0.864787  0.560317  0.632432  1
  Si  Si438  1  0.135100  0.560319  0.632433  1
  Si  Si439  1  0.717735  0.345806  0.651429  1
  Si  Si440  1  0.282158  0.345808  0.651430  1
  Si  Si441  1  0.249145  0.656927  0.656233  1
  Si  Si442  1  0.750755  0.656929  0.656230  1
  Si  Si443  1  0.864659  0.438669  0.632408  1
  Si  Si444  1  0.135233  0.438670  0.632409  1
  Si  Si445  1  0.282159  0.154154  0.651431  1
  Si  Si446  1  0.717738  0.154150  0.651432  1
  Si  Si447  1  0.635401  0.311173  0.700513  1
  Si  Si448  1  0.364502  0.188781  0.700515  1
  Si  Si449  1  0.635398  0.188779  0.700515  1
  Si  Si450  1  0.364503  0.311176  0.700513  1
  Si  Si451  1  0.135239  0.061289  0.632410  1
  Si  Si452  1  0.864664  0.061287  0.632410  1
  Si  Si453  1  0.864583  0.249976  0.635577  1
  Si  Si454  1  0.135306  0.249980  0.635579  1
  Si  Si455  1  0.499944  0.311244  0.623076  1
  Si  Si456  1  0.499952  0.188711  0.623078  1
  Si  Si457  1  0.000000  0.688799  0.449153  1
  Si  Si458  1  0.000000  0.811140  0.449155  1
  Si  Si459  1  0.282163  0.845799  0.559500  1
  Si  Si460  1  0.717748  0.845797  0.559497  1
  Si  Si461  1  0.250751  0.843019  0.463359  1
  Si  Si462  1  0.749146  0.843015  0.463357  1
  Si  Si463  1  0.364497  0.811172  0.510415  1
  Si  Si464  1  0.635393  0.688778  0.510412  1
  Si  Si465  1  0.364497  0.688778  0.510411  1
  Si  Si466  1  0.635394  0.811173  0.510413  1
  Si  Si467  1  0.135242  0.938663  0.578521  1
  Si  Si468  1  0.864668  0.938660  0.578521  1
  Si  Si469  1  0.364792  0.939632  0.439564  1
  Si  Si470  1  0.635105  0.939628  0.439561  1
  Si  Si471  1  0.135318  0.749968  0.575349  1
  Si  Si472  1  0.864596  0.749969  0.575347  1
  Si  Si473  1  0.364645  0.749974  0.436481  1
  Si  Si474  1  0.635257  0.749966  0.436481  1
  Si  Si475  1  0.499958  0.811234  0.587849  1
  Si  Si476  1  0.499950  0.688700  0.587851  1
  Si  Si477  1  0.864794  0.439630  0.578488  1
  Si  Si478  1  0.364808  0.560310  0.439563  1
  Si  Si479  1  0.635122  0.560306  0.439562  1
  Si  Si480  1  0.217736  0.345801  0.458556  1
  Si  Si481  1  0.717734  0.654144  0.559495  1
  Si  Si482  1  0.282168  0.654142  0.559495  1
  Si  Si483  1  0.782161  0.345793  0.458555  1
  Si  Si484  1  0.249149  0.343018  0.554694  1
  Si  Si485  1  0.749151  0.656921  0.463359  1
  Si  Si486  1  0.250754  0.656924  0.463356  1
  Si  Si487  1  0.750755  0.343014  0.554694  1
  Si  Si488  1  0.364666  0.438662  0.439534  1
  Si  Si489  1  0.864659  0.561278  0.578512  1
  Si  Si490  1  0.135233  0.561281  0.578514  1
  Si  Si491  1  0.635240  0.438658  0.439534  1
  Si  Si492  1  0.135108  0.439632  0.578489  1
  Si  Si493  1  0.499958  0.188799  0.568899  1
  Si  Si494  1  0.499951  0.311140  0.568897  1
  Si  Si495  1  0.782167  0.154141  0.458554  1
  Si  Si496  1  0.217741  0.154144  0.458556  1
  Si  Si497  1  0.750755  0.156919  0.554693  1
  Si  Si498  1  0.249154  0.156923  0.554696  1
  Si  Si499  1  0.135397  0.311170  0.507639  1
  Si  Si500  1  0.864510  0.188769  0.507638  1
  Si  Si501  1  0.135406  0.188775  0.507640  1
  Si  Si502  1  0.864501  0.311164  0.507639  1
  Si  Si503  1  0.635245  0.061276  0.439535  1
  Si  Si504  1  0.364671  0.061281  0.439538  1
  Si  Si505  1  0.864794  0.060308  0.578491  1
  Si  Si506  1  0.135107  0.060311  0.578491  1
  Si  Si507  1  0.364584  0.249973  0.442704  1
  Si  Si508  1  0.635306  0.249966  0.442705  1
  Si  Si509  1  0.135260  0.249971  0.581572  1
  Si  Si510  1  0.864648  0.249965  0.581570  1
  Si  Si511  1  0.000000  0.311236  0.430201  1
  Si  Si512  1  0.000000  0.188702  0.430202  1
  H  H513  1  0.293422  0.832037  0.087415  1
  H  H514  1  0.706473  0.667910  0.087413  1
  H  H515  1  0.293418  0.667917  0.087411  1
  H  H516  1  0.706462  0.832036  0.087412  1
  H  H517  1  0.206471  0.332035  0.127673  1
  H  H518  1  0.793429  0.167903  0.127671  1
  H  H519  1  0.206484  0.167914  0.127674  1
  H  H520  1  0.793424  0.332028  0.127672  1
  H  H521  1  0.793426  0.832032  0.697505  1
  H  H522  1  0.206476  0.667907  0.697506  1
  H  H523  1  0.793440  0.667910  0.697502  1
  H  H524  1  0.206482  0.832033  0.697505  1
  H  H525  1  0.706475  0.332033  0.737764  1
  H  H526  1  0.293431  0.167914  0.737766  1
  H  H527  1  0.706472  0.167915  0.737766  1
  H  H528  1  0.293429  0.332042  0.737764  1
