# generated using pymatgen
data_Si24H2O49
_symmetry_space_group_name_H-M   'P 1'
_cell_length_a   20.61705954
_cell_length_b   9.77350595
_cell_length_c   51.00497358
_cell_angle_alpha   90.00000000
_cell_angle_beta   90.00000000
_cell_angle_gamma   90.00000000
_symmetry_Int_Tables_number   1
_chemical_formula_structural   Si24H2O49
_chemical_formula_sum   'Si96 H8 O196'
_cell_volume   10277.5508398
_cell_formula_units_Z   4
loop_
 _symmetry_equiv_pos_site_id
 _symmetry_equiv_pos_as_xyz
  1  'x, y, z'
loop_
 _atom_site_type_symbol
 _atom_site_label
 _atom_site_symmetry_multiplicity
 _atom_site_fract_x
 _atom_site_fract_y
 _atom_site_fract_z
 _atom_site_occupancy
  O  O1  1  0.271602  0.158494  0.269160  1
  O  O2  1  0.771602  0.658528  0.269146  1
  O  O3  1  0.728473  0.158547  0.269142  1
  O  O4  1  0.228471  0.658499  0.269165  1
  O  O5  1  0.728448  0.158602  0.343920  1
  O  O6  1  0.228440  0.658546  0.343940  1
  O  O7  1  0.271567  0.158543  0.343939  1
  O  O8  1  0.771600  0.658625  0.343921  1
  O  O9  1  0.728466  0.841123  0.153062  1
  O  O10  1  0.228470  0.341077  0.153084  1
  O  O11  1  0.271604  0.841076  0.153084  1
  O  O12  1  0.771602  0.341104  0.153069  1
  O  O13  1  0.336340  0.949605  0.115692  1
  O  O14  1  0.836322  0.449653  0.115678  1
  O  O15  1  0.663711  0.949641  0.115675  1
  O  O16  1  0.163719  0.449618  0.115696  1
  O  O17  1  0.336329  0.050036  0.306551  1
  O  O18  1  0.836343  0.550052  0.306536  1
  O  O19  1  0.663717  0.050070  0.306532  1
  O  O20  1  0.163713  0.550014  0.306550  1
  O  O21  1  0.289872  0.899137  0.269900  1
  O  O22  1  0.789870  0.399166  0.269882  1
  O  O23  1  0.710217  0.899175  0.269883  1
  O  O24  1  0.210208  0.399138  0.269901  1
  O  O25  1  0.710195  0.899247  0.343186  1
  O  O26  1  0.210177  0.399175  0.343208  1
  O  O27  1  0.289830  0.899187  0.343203  1
  O  O28  1  0.789844  0.399241  0.343189  1
  O  O29  1  0.710202  0.100477  0.152328  1
  O  O30  1  0.210210  0.600455  0.152350  1
  O  O31  1  0.289861  0.100450  0.152347  1
  O  O32  1  0.789861  0.600484  0.152333  1
  O  O33  1  0.382502  0.060100  0.258531  1
  O  O34  1  0.882494  0.560132  0.258516  1
  O  O35  1  0.617588  0.060119  0.258510  1
  O  O36  1  0.117579  0.560088  0.258529  1
  O  O37  1  0.617552  0.060187  0.354552  1
  O  O38  1  0.117555  0.560146  0.354571  1
  O  O39  1  0.382459  0.060147  0.354571  1
  O  O40  1  0.882479  0.560178  0.354559  1
  O  O41  1  0.617571  0.939515  0.163696  1
  O  O42  1  0.117583  0.439490  0.163714  1
  O  O43  1  0.382490  0.939494  0.163713  1
  O  O44  1  0.882495  0.439525  0.163697  1
  O  O45  1  0.087238  0.499797  0.211119  1
  O  O46  1  0.587239  -0.000000  0.211104  1
  O  O47  1  0.912834  0.499811  0.211109  1
  O  O48  1  0.412834  0.000000  0.211120  1
  O  O49  1  0.000000  0.604571  0.240146  1
  O  O50  1  0.500042  0.104584  0.240144  1
  O  O51  1  0.000000  0.604619  0.372943  1
  O  O52  1  0.500006  0.104642  0.372937  1
  O  O53  1  -0.000000  0.395039  0.182081  1
  O  O54  1  0.500032  0.895034  0.182082  1
  O  O55  1  0.100187  0.743946  0.223886  1
  O  O56  1  0.600184  0.243985  0.223870  1
  O  O57  1  0.899900  0.743966  0.223868  1
  O  O58  1  0.399888  0.243947  0.223886  1
  O  O59  1  0.899877  0.744041  0.389202  1
  O  O60  1  0.399859  0.243992  0.389216  1
  O  O61  1  0.100155  0.743985  0.389220  1
  O  O62  1  0.600156  0.244037  0.389196  1
  O  O63  1  0.899890  0.255666  0.198341  1
  O  O64  1  0.399894  0.755645  0.198359  1
  O  O65  1  0.100175  0.255640  0.198359  1
  O  O66  1  0.600185  0.755677  0.198344  1
  O  O67  1  0.316405  0.712381  0.235104  1
  O  O68  1  0.816404  0.212406  0.235083  1
  O  O69  1  0.683676  0.712419  0.235085  1
  O  O70  1  0.183667  0.212394  0.235102  1
  O  O71  1  0.683663  0.712477  0.377979  1
  O  O72  1  0.183634  0.212408  0.378004  1
  O  O73  1  0.316369  0.712426  0.377999  1
  O  O74  1  0.816381  0.212473  0.377984  1
  O  O75  1  0.683673  0.287228  0.187127  1
  O  O76  1  0.183676  0.787221  0.187146  1
  O  O77  1  0.316398  0.287208  0.187144  1
  O  O78  1  0.816405  0.787251  0.187125  1
  O  O79  1  0.211352  0.836397  0.234046  1
  O  O80  1  0.711355  0.336415  0.234027  1
  O  O81  1  0.788734  0.836417  0.234027  1
  O  O82  1  0.288722  0.336399  0.234043  1
  O  O83  1  0.788714  0.836484  0.379038  1
  O  O84  1  0.288687  0.336415  0.379062  1
  O  O85  1  0.211315  0.836439  0.379060  1
  O  O86  1  0.711327  0.336476  0.379041  1
  O  O87  1  0.788724  0.163219  0.188181  1
  O  O88  1  0.288726  0.663220  0.188201  1
  O  O89  1  0.211344  0.163215  0.188200  1
  O  O90  1  0.711352  0.663250  0.188185  1
  O  O91  1  0.635378  0.499891  0.401956  1
  O  O92  1  0.135397  -0.000000  0.211126  1
  O  O93  1  0.635405  0.499829  0.211104  1
  O  O94  1  0.864684  0.000000  0.211106  1
  O  O95  1  0.364676  0.499796  0.211123  1
  O  O96  1  0.271589  0.841118  0.460020  1
  O  O97  1  0.771566  0.341170  0.460001  1
  O  O98  1  0.728446  0.841171  0.459996  1
  O  O99  1  0.228447  0.341115  0.460022  1
  O  O100  1  0.271602  0.158494  0.650874  1
  O  O101  1  0.771602  0.658528  0.650860  1
  O  O102  1  0.728473  0.158547  0.650857  1
  O  O103  1  0.228471  0.658499  0.650879  1
  O  O104  1  0.728466  0.841123  0.534776  1
  O  O105  1  0.228470  0.341077  0.534798  1
  O  O106  1  0.271604  0.841076  0.534799  1
  O  O107  1  0.771602  0.341104  0.534783  1
  O  O108  1  0.336340  0.949605  0.497406  1
  O  O109  1  0.836322  0.449653  0.497392  1
  O  O110  1  0.663711  0.949641  0.497389  1
  O  O111  1  0.163719  0.449618  0.497410  1
  O  O112  1  0.336329  0.050036  0.688266  1
  O  O113  1  0.836343  0.550052  0.688250  1
  O  O114  1  0.663717  0.050070  0.688246  1
  O  O115  1  0.163713  0.550014  0.688265  1
  O  O116  1  0.289845  0.100474  0.460757  1
  O  O117  1  0.789835  0.600545  0.460740  1
  O  O118  1  0.710175  0.100541  0.460737  1
  O  O119  1  0.210191  0.600482  0.460756  1
  O  O120  1  0.289872  0.899137  0.651615  1
  O  O121  1  0.789870  0.399166  0.651596  1
  O  O122  1  0.710217  0.899175  0.651597  1
  O  O123  1  0.210208  0.399138  0.651615  1
  O  O124  1  0.710202  0.100477  0.534042  1
  O  O125  1  0.210210  0.600455  0.534064  1
  O  O126  1  0.289861  0.100450  0.534061  1
  O  O127  1  0.789861  0.600484  0.534047  1
  O  O128  1  0.382480  0.939531  0.449383  1
  O  O129  1  0.882459  0.439576  0.449375  1
  O  O130  1  0.617555  0.939569  0.449369  1
  O  O131  1  0.117553  0.439539  0.449391  1
  O  O132  1  0.382502  0.060100  0.640246  1
  O  O133  1  0.882494  0.560132  0.640230  1
  O  O134  1  0.617588  0.060119  0.640225  1
  O  O135  1  0.117579  0.560088  0.640243  1
  O  O136  1  0.617571  0.939515  0.545410  1
  O  O137  1  0.117583  0.439490  0.545429  1
  O  O138  1  0.382490  0.939494  0.545427  1
  O  O139  1  0.882495  0.439525  0.545412  1
  O  O140  1  0.087217  0.499832  0.401980  1
  O  O141  1  0.587214  0.000000  0.401962  1
  O  O142  1  0.912809  0.499890  0.401971  1
  O  O143  1  0.412811  -0.000000  0.401974  1
  O  O144  1  0.087238  0.499797  0.592834  1
  O  O145  1  0.587239  0.000000  0.592818  1
  O  O146  1  0.912834  0.499811  0.592823  1
  O  O147  1  0.412834  0.000000  0.592835  1
  O  O148  1  -0.000000  0.395103  0.431009  1
  O  O149  1  0.500018  0.895069  0.430996  1
  O  O150  1  -0.000000  0.604571  0.621860  1
  O  O151  1  0.500042  0.104584  0.621858  1
  O  O152  1  0.000000  0.395039  0.563795  1
  O  O153  1  0.500032  0.895034  0.563797  1
  O  O154  1  0.100149  0.255686  0.414749  1
  O  O155  1  0.600167  0.755732  0.414719  1
  O  O156  1  0.899866  0.255738  0.414730  1
  O  O157  1  0.399865  0.755682  0.414738  1
  O  O158  1  0.100187  0.743946  0.605601  1
  O  O159  1  0.600184  0.243985  0.605584  1
  O  O160  1  0.899900  0.743966  0.605583  1
  O  O161  1  0.399888  0.243947  0.605600  1
  O  O162  1  0.899890  0.255666  0.580055  1
  O  O163  1  0.399894  0.755645  0.580074  1
  O  O164  1  0.100175  0.255640  0.580073  1
  O  O165  1  0.600185  0.755677  0.580058  1
  O  O166  1  0.316372  0.287238  0.425960  1
  O  O167  1  0.816383  0.787300  0.425941  1
  O  O168  1  0.683641  0.287302  0.425939  1
  O  O169  1  0.183647  0.787249  0.425961  1
  O  O170  1  0.316405  0.712381  0.616818  1
  O  O171  1  0.816404  0.212406  0.616797  1
  O  O172  1  0.683676  0.712419  0.616799  1
  O  O173  1  0.183667  0.212394  0.616816  1
  O  O174  1  0.683673  0.287228  0.568841  1
  O  O175  1  0.183676  0.787221  0.568860  1
  O  O176  1  0.316398  0.287208  0.568859  1
  O  O177  1  0.816405  0.787251  0.568840  1
  O  O178  1  0.211317  0.163226  0.424904  1
  O  O179  1  0.711333  0.663299  0.424881  1
  O  O180  1  0.788695  0.163308  0.424886  1
  O  O181  1  0.288698  0.663238  0.424899  1
  O  O182  1  0.211352  0.836397  0.615761  1
  O  O183  1  0.711355  0.336415  0.615741  1
  O  O184  1  0.788734  0.836417  0.615741  1
  O  O185  1  0.288722  0.336399  0.615758  1
  O  O186  1  0.788724  0.163219  0.569895  1
  O  O187  1  0.288726  0.663220  0.569916  1
  O  O188  1  0.211344  0.163215  0.569914  1
  O  O189  1  0.711352  0.663250  0.569900  1
  O  O190  1  0.135362  0.000000  0.401985  1
  O  O191  1  0.864658  -0.000000  0.401965  1
  O  O192  1  0.364641  0.499831  0.401978  1
  O  O193  1  0.135397  -0.000000  0.592840  1
  O  O194  1  0.635405  0.499829  0.592818  1
  O  O195  1  0.864684  0.000000  0.592820  1
  O  O196  1  0.364676  0.499796  0.592837  1
  Si  Si197  1  0.321006  0.041940  0.276366  1
  Si  Si198  1  0.821003  0.541966  0.276352  1
  Si  Si199  1  0.679075  0.041970  0.276349  1
  Si  Si200  1  0.179067  0.541935  0.276368  1
  Si  Si201  1  0.679048  0.042032  0.336717  1
  Si  Si202  1  0.179046  0.541971  0.336735  1
  Si  Si203  1  0.320969  0.041981  0.336734  1
  Si  Si204  1  0.820992  0.542024  0.336719  1
  Si  Si205  1  0.679062  0.957685  0.145859  1
  Si  Si206  1  0.179073  0.457663  0.145879  1
  Si  Si207  1  0.321000  0.957659  0.145876  1
  Si  Si208  1  0.820998  0.457690  0.145863  1
  Si  Si209  1  0.074830  0.601839  0.234294  1
  Si  Si210  1  0.574830  0.101875  0.234279  1
  Si  Si211  1  0.925248  0.601861  0.234282  1
  Si  Si212  1  0.425247  0.101843  0.234295  1
  Si  Si213  1  0.925225  0.601923  0.378795  1
  Si  Si214  1  0.425218  0.101897  0.378801  1
  Si  Si215  1  0.074806  0.601882  0.378806  1
  Si  Si216  1  0.574801  0.101928  0.378787  1
  Si  Si217  1  0.925244  0.397776  0.187932  1
  Si  Si218  1  0.425244  0.897750  0.187946  1
  Si  Si219  1  0.074825  0.397746  0.187945  1
  Si  Si220  1  0.574826  0.897775  0.187932  1
  Si  Si221  1  0.262789  0.776030  0.253417  1
  Si  Si222  1  0.762790  0.276064  0.253397  1
  Si  Si223  1  0.737294  0.776068  0.253398  1
  Si  Si224  1  0.237286  0.276035  0.253415  1
  Si  Si225  1  0.737280  0.776139  0.359667  1
  Si  Si226  1  0.237250  0.276060  0.359690  1
  Si  Si227  1  0.262752  0.776083  0.359687  1
  Si  Si228  1  0.762765  0.276124  0.359670  1
  Si  Si229  1  0.737287  0.223576  0.168812  1
  Si  Si230  1  0.237290  0.723564  0.168832  1
  Si  Si231  1  0.262782  0.223557  0.168831  1
  Si  Si232  1  0.762786  0.723606  0.168813  1
  Si  Si233  1  0.154490  0.843750  0.213644  1
  Si  Si234  1  0.654489  0.343776  0.213624  1
  Si  Si235  1  0.845596  0.843766  0.213624  1
  Si  Si236  1  0.345585  0.343746  0.213642  1
  Si  Si237  1  0.845573  0.843844  0.399445  1
  Si  Si238  1  0.345553  0.343778  0.399462  1
  Si  Si239  1  0.154457  0.843784  0.399464  1
  Si  Si240  1  0.654459  0.343834  0.399440  1
  Si  Si241  1  0.845589  0.155865  0.208585  1
  Si  Si242  1  0.345590  0.655850  0.208605  1
  Si  Si243  1  0.154481  0.155851  0.208605  1
  Si  Si244  1  0.654490  0.655882  0.208587  1
  Si  Si245  1  0.320992  0.957683  0.467223  1
  Si  Si246  1  0.820966  0.457743  0.467210  1
  Si  Si247  1  0.679045  0.957738  0.467205  1
  Si  Si248  1  0.179050  0.457690  0.467226  1
  Si  Si249  1  0.321006  0.041940  0.658081  1
  Si  Si250  1  0.821003  0.541966  0.658066  1
  Si  Si251  1  0.679075  0.041970  0.658064  1
  Si  Si252  1  0.179067  0.541935  0.658082  1
  Si  Si253  1  0.679062  0.957685  0.527573  1
  Si  Si254  1  0.179073  0.457663  0.527593  1
  Si  Si255  1  0.321000  0.957659  0.527591  1
  Si  Si256  1  0.820998  0.457690  0.527578  1
  Si  Si257  1  0.074801  0.397802  0.425157  1
  Si  Si258  1  0.574807  0.897825  0.425134  1
  Si  Si259  1  0.925219  0.397837  0.425144  1
  Si  Si260  1  0.425224  0.897787  0.425147  1
  Si  Si261  1  0.074830  0.601839  0.616009  1
  Si  Si262  1  0.574830  0.101875  0.615994  1
  Si  Si263  1  0.925248  0.601861  0.615997  1
  Si  Si264  1  0.425247  0.101843  0.616009  1
  Si  Si265  1  0.925244  0.397776  0.569646  1
  Si  Si266  1  0.425244  0.897750  0.569660  1
  Si  Si267  1  0.074825  0.397746  0.569660  1
  Si  Si268  1  0.574826  0.897775  0.569646  1
  Si  Si269  1  0.262759  0.223580  0.444275  1
  Si  Si270  1  0.762763  0.723647  0.444252  1
  Si  Si271  1  0.737255  0.223650  0.444254  1
  Si  Si272  1  0.237267  0.723594  0.444273  1
  Si  Si273  1  0.262789  0.776030  0.635132  1
  Si  Si274  1  0.762790  0.276064  0.635111  1
  Si  Si275  1  0.737294  0.776068  0.635113  1
  Si  Si276  1  0.237286  0.276035  0.635130  1
  Si  Si277  1  0.737287  0.223576  0.550527  1
  Si  Si278  1  0.237290  0.723564  0.550547  1
  Si  Si279  1  0.262782  0.223557  0.550545  1
  Si  Si280  1  0.762786  0.723606  0.550527  1
  Si  Si281  1  0.154450  0.155883  0.404504  1
  Si  Si282  1  0.654472  0.655939  0.404475  1
  Si  Si283  1  0.845563  0.155945  0.404483  1
  Si  Si284  1  0.345558  0.655884  0.404496  1
  Si  Si285  1  0.154490  0.843750  0.595359  1
  Si  Si286  1  0.654489  0.343776  0.595338  1
  Si  Si287  1  0.845596  0.843766  0.595339  1
  Si  Si288  1  0.345585  0.343746  0.595356  1
  Si  Si289  1  0.845589  0.155865  0.590299  1
  Si  Si290  1  0.345590  0.655850  0.590320  1
  Si  Si291  1  0.154481  0.155851  0.590319  1
  Si  Si292  1  0.654490  0.655882  0.590302  1
  H  H293  1  0.336340  0.949605  0.098046  1
  H  H294  1  0.836322  0.449653  0.098033  1
  H  H295  1  0.663711  0.949641  0.098030  1
  H  H296  1  0.163719  0.449618  0.098050  1
  H  H297  1  0.336329  0.050036  0.705911  1
  H  H298  1  0.836343  0.550052  0.705896  1
  H  H299  1  0.663717  0.050070  0.705892  1
  H  H300  1  0.163713  0.550014  0.705910  1
