# generated using pymatgen
data_Si15H2O31
_symmetry_space_group_name_H-M   'P 1'
_cell_length_a   13.81540410
_cell_length_b   18.13110130
_cell_length_c   49.78939229
_cell_angle_alpha   90.00000000
_cell_angle_beta   90.00000000
_cell_angle_gamma   90.00000000
_symmetry_Int_Tables_number   1
_chemical_formula_structural   Si15H2O31
_chemical_formula_sum   'Si120 H16 O248'
_cell_volume   12471.6697551
_cell_formula_units_Z   8
loop_
 _symmetry_equiv_pos_site_id
 _symmetry_equiv_pos_as_xyz
  1  'x, y, z'
loop_
 _atom_site_type_symbol
 _atom_site_label
 _atom_site_symmetry_multiplicity
 _atom_site_fract_x
 _atom_site_fract_y
 _atom_site_fract_z
 _atom_site_occupancy
  O  O1  1  0.852103  0.638297  0.394001  1
  O  O2  1  0.147831  0.638308  0.394000  1
  O  O3  1  0.647840  0.861623  0.393994  1
  O  O4  1  0.352124  0.861635  0.393996  1
  O  O5  1  0.750003  0.749967  0.375443  1
  O  O6  1  0.250014  0.749957  0.375445  1
  O  O7  1  0.762327  0.629489  0.349415  1
  O  O8  1  0.237694  0.629465  0.349426  1
  O  O9  1  0.737706  0.870450  0.349419  1
  O  O10  1  0.262334  0.870430  0.349413  1
  O  O11  1  0.907173  0.710771  0.353129  1
  O  O12  1  0.092868  0.710772  0.353118  1
  O  O13  1  0.592868  0.789154  0.353114  1
  O  O14  1  0.407178  0.789153  0.353126  1
  O  O15  1  0.746375  0.506209  0.325312  1
  O  O16  1  0.253654  0.506172  0.325334  1
  O  O17  1  0.753679  0.993740  0.325327  1
  O  O18  1  0.246387  0.993716  0.325313  1
  O  O19  1  0.749805  0.625763  0.298403  1
  O  O20  1  0.250173  0.625716  0.298413  1
  O  O21  1  0.750182  0.874201  0.298406  1
  O  O22  1  0.249847  0.874172  0.298400  1
  O  O23  1  0.600962  0.593041  0.326771  1
  O  O24  1  0.399047  0.593029  0.326775  1
  O  O25  1  0.899066  0.906882  0.326768  1
  O  O26  1  0.100981  0.906872  0.326764  1
  O  O27  1  0.760916  0.870475  0.247852  1
  O  O28  1  0.239106  0.870438  0.247847  1
  O  O29  1  0.739080  0.629474  0.247850  1
  O  O30  1  0.260910  0.629448  0.247859  1
  O  O31  1  0.907535  0.954935  0.244959  1
  O  O32  1  0.092533  0.954947  0.244968  1
  O  O33  1  0.592506  0.544962  0.244974  1
  O  O34  1  0.407510  0.544975  0.244963  1
  O  O35  1  0.750049  0.749979  0.275336  1
  O  O36  1  0.250009  0.749943  0.275342  1
  O  O37  1  0.899769  0.660219  0.272035  1
  O  O38  1  0.100240  0.660211  0.272042  1
  O  O39  1  0.600253  0.839683  0.272036  1
  O  O40  1  0.399781  0.839668  0.272032  1
  O  O41  1  0.000000  0.544041  0.284490  1
  O  O42  1  0.499992  0.955861  0.284482  1
  O  O43  1  -0.000000  0.905383  0.285363  1
  O  O44  1  0.499988  0.594522  0.285369  1
  O  O45  1  -0.000000  0.657178  0.313478  1
  O  O46  1  0.500002  0.842733  0.313472  1
  O  O47  1  -0.000000  0.793964  0.319825  1
  O  O48  1  0.499994  0.705946  0.319826  1
  O  O49  1  0.499966  0.084540  0.381399  1
  O  O50  1  0.000000  0.415395  0.381403  1
  O  O51  1  0.332774  0.079965  0.358226  1
  O  O52  1  0.667171  0.079983  0.358221  1
  O  O53  1  0.167141  0.419930  0.358226  1
  O  O54  1  0.832731  0.419972  0.358235  1
  O  O55  1  0.749841  0.125757  0.261022  1
  O  O56  1  0.250189  0.125723  0.261017  1
  O  O57  1  0.750169  0.374202  0.261023  1
  O  O58  1  0.249814  0.374174  0.261028  1
  O  O59  1  0.760902  0.370466  0.311578  1
  O  O60  1  0.239084  0.370442  0.311581  1
  O  O61  1  0.739104  0.129468  0.311575  1
  O  O62  1  0.260924  0.129448  0.311571  1
  O  O63  1  0.907521  0.454919  0.314475  1
  O  O64  1  0.092518  0.454958  0.314455  1
  O  O65  1  0.592536  0.044951  0.314451  1
  O  O66  1  0.407538  0.044979  0.314466  1
  O  O67  1  0.750034  0.249973  0.284090  1
  O  O68  1  0.250036  0.249947  0.284088  1
  O  O69  1  0.899787  0.160229  0.287392  1
  O  O70  1  0.100256  0.160227  0.287387  1
  O  O71  1  0.600242  0.339686  0.287392  1
  O  O72  1  0.399769  0.339692  0.287396  1
  O  O73  1  -0.000000  0.044044  0.274940  1
  O  O74  1  0.499983  0.455864  0.274944  1
  O  O75  1  -0.000000  0.405383  0.274064  1
  O  O76  1  0.500010  0.094522  0.274059  1
  O  O77  1  -0.000000  0.157177  0.245951  1
  O  O78  1  0.500000  0.342732  0.245955  1
  O  O79  1  0.127545  0.000000  0.159855  1
  O  O80  1  0.499949  0.584544  0.178029  1
  O  O81  1  -0.000000  0.915398  0.178025  1
  O  O82  1  0.352075  0.638308  0.154274  1
  O  O83  1  0.647799  0.638311  0.154276  1
  O  O84  1  0.147817  0.861634  0.154270  1
  O  O85  1  0.852099  0.861636  0.154269  1
  O  O86  1  0.332758  0.579971  0.201203  1
  O  O87  1  0.667156  0.579984  0.201204  1
  O  O88  1  0.167186  0.919941  0.201200  1
  O  O89  1  0.832776  0.919965  0.201198  1
  O  O90  1  0.872401  0.000000  0.159846  1
  O  O91  1  0.499999  0.205948  0.239602  1
  O  O92  1  -0.000000  0.084540  0.141673  1
  O  O93  1  0.499949  0.415397  0.141679  1
  O  O94  1  0.852126  0.138309  0.165427  1
  O  O95  1  0.147844  0.138306  0.165428  1
  O  O96  1  0.647826  0.361634  0.165434  1
  O  O97  1  0.352101  0.361636  0.165434  1
  O  O98  1  0.832761  0.079993  0.118499  1
  O  O99  1  0.167167  0.079962  0.118500  1
  O  O100  1  0.667143  0.419967  0.118505  1
  O  O101  1  0.332735  0.419950  0.118504  1
  O  O102  1  0.750008  0.249979  0.183983  1
  O  O103  1  0.250006  0.249953  0.183985  1
  O  O104  1  0.762329  0.129495  0.210009  1
  O  O105  1  0.237696  0.129461  0.210004  1
  O  O106  1  0.737679  0.370454  0.210009  1
  O  O107  1  0.262306  0.370427  0.210016  1
  O  O108  1  0.907172  0.210775  0.206301  1
  O  O109  1  0.092864  0.210765  0.206310  1
  O  O110  1  0.592855  0.289149  0.206309  1
  O  O111  1  0.407161  0.289155  0.206305  1
  O  O112  1  0.746391  0.006210  0.234110  1
  O  O113  1  0.253675  0.006174  0.234100  1
  O  O114  1  0.753647  0.493743  0.234102  1
  O  O115  1  0.246360  0.493717  0.234112  1
  O  O116  1  0.600979  0.093045  0.232658  1
  O  O117  1  0.399062  0.093031  0.232654  1
  O  O118  1  0.899039  0.406882  0.232660  1
  O  O119  1  0.100952  0.406879  0.232663  1
  O  O120  1  0.000000  0.293965  0.239604  1
  O  O121  1  0.627520  0.499970  0.159857  1
  O  O122  1  0.372378  0.499972  0.159850  1
  O  O123  1  -0.000000  0.705956  0.559550  1
  O  O124  1  0.127545  -0.000000  0.639305  1
  O  O125  1  0.499949  0.584544  0.657480  1
  O  O126  1  0.000000  0.915398  0.657476  1
  O  O127  1  0.352075  0.638308  0.633725  1
  O  O128  1  0.647799  0.638311  0.633727  1
  O  O129  1  0.147817  0.861634  0.633720  1
  O  O130  1  0.852099  0.861636  0.633719  1
  O  O131  1  0.332758  0.579971  0.680653  1
  O  O132  1  0.667156  0.579984  0.680655  1
  O  O133  1  0.167186  0.919941  0.680650  1
  O  O134  1  0.832776  0.919965  0.680648  1
  O  O135  1  0.249914  0.749957  0.615166  1
  O  O136  1  0.749912  0.749985  0.615171  1
  O  O137  1  0.262240  0.629470  0.589146  1
  O  O138  1  0.737607  0.629501  0.589146  1
  O  O139  1  0.237594  0.870429  0.589134  1
  O  O140  1  0.762223  0.870466  0.589147  1
  O  O141  1  0.407068  0.710774  0.592845  1
  O  O142  1  0.592758  0.710777  0.592850  1
  O  O143  1  0.092745  0.789156  0.592850  1
  O  O144  1  0.907052  0.789161  0.592839  1
  O  O145  1  0.246259  0.506183  0.565051  1
  O  O146  1  0.753540  0.506216  0.565046  1
  O  O147  1  0.253537  0.993713  0.565034  1
  O  O148  1  0.746251  0.993756  0.565055  1
  O  O149  1  0.100871  0.593042  0.566498  1
  O  O150  1  0.898954  0.593049  0.566496  1
  O  O151  1  0.398949  0.906879  0.566489  1
  O  O152  1  0.600864  0.906892  0.566495  1
  O  O153  1  0.499921  0.793972  0.559550  1
  O  O154  1  0.872401  -0.000000  0.639297  1
  O  O155  1  -0.000000  0.084540  0.621123  1
  O  O156  1  0.499949  0.415397  0.621129  1
  O  O157  1  0.852126  0.138309  0.644877  1
  O  O158  1  0.147844  0.138306  0.644878  1
  O  O159  1  0.647826  0.361634  0.644884  1
  O  O160  1  0.352101  0.361636  0.644884  1
  O  O161  1  0.832761  0.079993  0.597950  1
  O  O162  1  0.167167  0.079962  0.597950  1
  O  O163  1  0.667143  0.419967  0.597956  1
  O  O164  1  0.332735  0.419950  0.597955  1
  O  O165  1  0.627520  0.499970  0.639307  1
  O  O166  1  0.372378  0.499972  0.639301  1
  O  O167  1  0.372399  0.000000  0.399580  1
  O  O168  1  -0.000000  0.584540  0.417754  1
  O  O169  1  0.499973  0.915396  0.417751  1
  O  O170  1  0.832752  0.579997  0.440933  1
  O  O171  1  0.167151  0.579957  0.440925  1
  O  O172  1  0.667174  0.919969  0.440921  1
  O  O173  1  0.332764  0.919947  0.440926  1
  O  O174  1  0.249737  0.625729  0.538133  1
  O  O175  1  0.750087  0.625763  0.538134  1
  O  O176  1  0.250092  0.874167  0.538122  1
  O  O177  1  0.749747  0.874217  0.538133  1
  O  O178  1  0.260819  0.870449  0.487569  1
  O  O179  1  0.739008  0.870475  0.487579  1
  O  O180  1  0.239009  0.629446  0.487578  1
  O  O181  1  0.760825  0.629484  0.487580  1
  O  O182  1  0.407388  0.954968  0.484699  1
  O  O183  1  0.592385  0.954925  0.484679  1
  O  O184  1  0.092386  0.544986  0.484687  1
  O  O185  1  0.907388  0.544964  0.484702  1
  O  O186  1  0.249897  0.749948  0.515058  1
  O  O187  1  0.749885  0.749985  0.515068  1
  O  O188  1  0.399675  0.660230  0.511764  1
  O  O189  1  0.600143  0.660235  0.511762  1
  O  O190  1  0.100141  0.839685  0.511755  1
  O  O191  1  0.899672  0.839693  0.511763  1
  O  O192  1  0.499914  0.544050  0.524213  1
  O  O193  1  0.000000  0.955873  0.524209  1
  O  O194  1  0.499922  0.905393  0.525089  1
  O  O195  1  0.000000  0.594531  0.525094  1
  O  O196  1  0.499918  0.657184  0.553202  1
  O  O197  1  0.000000  0.842742  0.553198  1
  O  O198  1  0.627541  0.000000  0.399566  1
  O  O199  1  0.352092  0.138310  0.405153  1
  O  O200  1  0.647822  0.138296  0.405152  1
  O  O201  1  0.147783  0.361634  0.405158  1
  O  O202  1  0.852069  0.361627  0.405161  1
  O  O203  1  0.249894  0.249955  0.423706  1
  O  O204  1  0.749906  0.249973  0.423712  1
  O  O205  1  0.262215  0.129466  0.449725  1
  O  O206  1  0.737576  0.129496  0.449740  1
  O  O207  1  0.237588  0.370426  0.449740  1
  O  O208  1  0.762210  0.370459  0.449736  1
  O  O209  1  0.407036  0.210779  0.446036  1
  O  O210  1  0.592727  0.210772  0.446021  1
  O  O211  1  0.092738  0.289154  0.446030  1
  O  O212  1  0.907045  0.289160  0.446041  1
  O  O213  1  0.246249  0.006180  0.473821  1
  O  O214  1  0.253531  0.493712  0.473839  1
  O  O215  1  0.746243  0.493755  0.473827  1
  O  O216  1  0.249732  0.125727  0.500739  1
  O  O217  1  0.750101  0.125768  0.500752  1
  O  O218  1  0.250077  0.374173  0.500754  1
  O  O219  1  0.749739  0.374215  0.500749  1
  O  O220  1  0.100857  0.093037  0.472378  1
  O  O221  1  0.898941  0.093047  0.472383  1
  O  O222  1  0.398941  0.406875  0.472389  1
  O  O223  1  0.600856  0.406894  0.472387  1
  O  O224  1  0.260817  0.370447  0.551307  1
  O  O225  1  0.739008  0.370482  0.551303  1
  O  O226  1  0.239000  0.129448  0.551293  1
  O  O227  1  0.760822  0.129487  0.551305  1
  O  O228  1  0.407399  0.454948  0.554187  1
  O  O229  1  0.592396  0.454947  0.554194  1
  O  O230  1  0.092387  0.044985  0.554191  1
  O  O231  1  0.907391  0.044973  0.554179  1
  O  O232  1  0.249899  0.249949  0.523814  1
  O  O233  1  0.749866  0.249988  0.523817  1
  O  O234  1  0.399668  0.160220  0.527111  1
  O  O235  1  0.600139  0.160232  0.527118  1
  O  O236  1  0.100138  0.339681  0.527123  1
  O  O237  1  0.899667  0.339692  0.527118  1
  O  O238  1  0.499948  0.044052  0.514664  1
  O  O239  1  -0.000000  0.455871  0.514671  1
  O  O240  1  0.499910  0.405388  0.513790  1
  O  O241  1  -0.000000  0.094530  0.513784  1
  O  O242  1  0.499917  0.157187  0.485675  1
  O  O243  1  -0.000000  0.342741  0.485682  1
  O  O244  1  0.499921  0.293971  0.479327  1
  O  O245  1  -0.000000  0.205954  0.479329  1
  O  O246  1  0.753529  0.006214  0.473842  1
  O  O247  1  0.127517  0.499970  0.399569  1
  O  O248  1  0.872373  0.499962  0.399589  1
  Si  Si249  1  0.817024  0.682329  0.368906  1
  Si  Si250  1  0.182985  0.682322  0.368908  1
  Si  Si251  1  0.682984  0.817605  0.368903  1
  Si  Si252  1  0.317033  0.817595  0.368904  1
  Si  Si253  1  0.715117  0.588931  0.325128  1
  Si  Si254  1  0.284894  0.588900  0.325138  1
  Si  Si255  1  0.784913  0.911011  0.325132  1
  Si  Si256  1  0.215134  0.910991  0.325125  1
  Si  Si257  1  0.785654  0.668363  0.272974  1
  Si  Si258  1  0.214356  0.668337  0.272985  1
  Si  Si259  1  0.714373  0.831578  0.272977  1
  Si  Si260  1  0.285662  0.831547  0.272973  1
  Si  Si261  1  -0.000000  0.964690  0.262364  1
  Si  Si262  1  0.499995  0.535218  0.262370  1
  Si  Si263  1  -0.000000  0.630661  0.283309  1
  Si  Si264  1  0.500011  0.869240  0.283302  1
  Si  Si265  1  -0.000000  0.718897  0.335551  1
  Si  Si266  1  0.500009  0.781021  0.335547  1
  Si  Si267  1  0.499999  0.620135  0.315637  1
  Si  Si268  1  0.000000  0.879774  0.315631  1
  Si  Si269  1  -0.000000  0.379776  0.243796  1
  Si  Si270  1  0.500014  0.120136  0.243792  1
  Si  Si271  1  0.388053  0.076481  0.385740  1
  Si  Si272  1  0.611881  0.076477  0.385732  1
  Si  Si273  1  0.111850  0.423451  0.385738  1
  Si  Si274  1  0.888022  0.423455  0.385747  1
  Si  Si275  1  0.809162  0.434939  0.327911  1
  Si  Si276  1  0.190818  0.434919  0.327911  1
  Si  Si277  1  0.690840  0.064992  0.327905  1
  Si  Si278  1  0.309190  0.064980  0.327904  1
  Si  Si279  1  0.785670  0.168364  0.286452  1
  Si  Si280  1  0.214374  0.168343  0.286446  1
  Si  Si281  1  0.714361  0.331573  0.286451  1
  Si  Si282  1  0.285653  0.331559  0.286455  1
  Si  Si283  1  -0.000000  0.464687  0.297064  1
  Si  Si284  1  0.500018  0.035215  0.297058  1
  Si  Si285  1  0.000000  0.130664  0.276121  1
  Si  Si286  1  0.500003  0.369244  0.276124  1
  Si  Si287  1  0.388036  0.576484  0.173689  1
  Si  Si288  1  0.611864  0.576484  0.173693  1
  Si  Si289  1  0.111886  0.923454  0.173689  1
  Si  Si290  1  0.888057  0.923459  0.173684  1
  Si  Si291  1  0.809188  0.934943  0.231520  1
  Si  Si292  1  0.190846  0.934918  0.231517  1
  Si  Si293  1  0.690814  0.564996  0.231521  1
  Si  Si294  1  0.309166  0.564981  0.231524  1
  Si  Si295  1  0.500003  0.281021  0.223879  1
  Si  Si296  1  0.888060  0.076484  0.146010  1
  Si  Si297  1  0.111889  0.076479  0.146013  1
  Si  Si298  1  0.611863  0.423458  0.146019  1
  Si  Si299  1  0.388034  0.423457  0.146015  1
  Si  Si300  1  0.817028  0.182339  0.190521  1
  Si  Si301  1  0.182983  0.182316  0.190523  1
  Si  Si302  1  0.682974  0.317608  0.190523  1
  Si  Si303  1  0.317016  0.317595  0.190526  1
  Si  Si304  1  0.715132  0.088933  0.234297  1
  Si  Si305  1  0.284908  0.088904  0.234292  1
  Si  Si306  1  0.784886  0.411014  0.234297  1
  Si  Si307  1  0.215106  0.410993  0.234303  1
  Si  Si308  1  -0.000000  0.218896  0.223879  1
  Si  Si309  1  0.388036  0.576484  0.653140  1
  Si  Si310  1  0.611864  0.576484  0.653144  1
  Si  Si311  1  0.111886  0.923454  0.653140  1
  Si  Si312  1  0.888057  0.923459  0.653135  1
  Si  Si313  1  0.316943  0.682322  0.608630  1
  Si  Si314  1  0.682896  0.682343  0.608633  1
  Si  Si315  1  0.182897  0.817596  0.608627  1
  Si  Si316  1  0.816941  0.817617  0.608629  1
  Si  Si317  1  0.215024  0.588912  0.564858  1
  Si  Si318  1  0.784800  0.588938  0.564858  1
  Si  Si319  1  0.284795  0.910990  0.564847  1
  Si  Si320  1  0.715017  0.911026  0.564859  1
  Si  Si321  1  0.499918  0.718903  0.575275  1
  Si  Si322  1  -0.000000  0.781029  0.575273  1
  Si  Si323  1  0.888060  0.076484  0.625460  1
  Si  Si324  1  0.111889  0.076479  0.625464  1
  Si  Si325  1  0.611863  0.423458  0.625469  1
  Si  Si326  1  0.388034  0.423457  0.625465  1
  Si  Si327  1  0.309082  0.434925  0.567636  1
  Si  Si328  1  0.690739  0.434951  0.567635  1
  Si  Si329  1  0.190740  0.064980  0.567628  1
  Si  Si330  1  0.809088  0.065009  0.567634  1
  Si  Si331  1  0.000000  0.869253  0.523028  1
  Si  Si332  1  0.499912  0.630670  0.523032  1
  Si  Si333  1  -0.000000  0.535224  0.502096  1
  Si  Si334  1  0.499914  0.879783  0.555357  1
  Si  Si335  1  0.000000  0.620144  0.555362  1
  Si  Si336  1  0.888040  0.576481  0.413422  1
  Si  Si337  1  0.111868  0.576478  0.413412  1
  Si  Si338  1  0.611886  0.923453  0.413408  1
  Si  Si339  1  0.388058  0.923457  0.413415  1
  Si  Si340  1  0.309089  0.934929  0.471242  1
  Si  Si341  1  0.690744  0.934942  0.471244  1
  Si  Si342  1  0.190734  0.564978  0.471247  1
  Si  Si343  1  0.809083  0.565006  0.471249  1
  Si  Si344  1  0.285557  0.668344  0.512703  1
  Si  Si345  1  0.714258  0.668374  0.512705  1
  Si  Si346  1  0.214258  0.831555  0.512694  1
  Si  Si347  1  0.785553  0.831585  0.512706  1
  Si  Si348  1  0.499913  0.964696  0.502090  1
  Si  Si349  1  0.499905  0.379780  0.483522  1
  Si  Si350  1  0.316928  0.182323  0.430245  1
  Si  Si351  1  0.682886  0.182333  0.430247  1
  Si  Si352  1  0.182880  0.317594  0.430249  1
  Si  Si353  1  0.816926  0.317610  0.430253  1
  Si  Si354  1  0.215010  0.088909  0.474014  1
  Si  Si355  1  0.784787  0.088937  0.474027  1
  Si  Si356  1  0.284788  0.410989  0.474028  1
  Si  Si357  1  0.715009  0.411025  0.474023  1
  Si  Si358  1  0.285551  0.168342  0.526169  1
  Si  Si359  1  0.714254  0.168374  0.526180  1
  Si  Si360  1  0.214256  0.331555  0.526182  1
  Si  Si361  1  0.785547  0.331586  0.526176  1
  Si  Si362  1  0.499905  0.464696  0.536789  1
  Si  Si363  1  -0.000000  0.035227  0.536784  1
  Si  Si364  1  0.499912  0.130671  0.515844  1
  Si  Si365  1  0.000000  0.369251  0.515852  1
  Si  Si366  1  0.499901  0.218903  0.463601  1
  Si  Si367  1  -0.000000  0.281029  0.463607  1
  Si  Si368  1  -0.000000  0.120142  0.483517  1
  H  H369  1  0.352075  0.638308  0.136198  1
  H  H370  1  0.647799  0.638311  0.136200  1
  H  H371  1  0.147817  0.861634  0.136193  1
  H  H372  1  0.852099  0.861636  0.136192  1
  H  H373  1  0.832761  0.079993  0.100423  1
  H  H374  1  0.167167  0.079962  0.100423  1
  H  H375  1  0.667143  0.419967  0.100429  1
  H  H376  1  0.332735  0.419950  0.100428  1
  H  H377  1  0.332758  0.579971  0.698730  1
  H  H378  1  0.667156  0.579984  0.698731  1
  H  H379  1  0.167186  0.919941  0.698726  1
  H  H380  1  0.832776  0.919965  0.698724  1
  H  H381  1  0.852126  0.138309  0.662953  1
  H  H382  1  0.147844  0.138306  0.662954  1
  H  H383  1  0.647826  0.361634  0.662960  1
  H  H384  1  0.352101  0.361636  0.662960  1
