# generated using pymatgen
data_Si24H2O49
_symmetry_space_group_name_H-M   'P 1'
_cell_length_a   7.67548774
_cell_length_b   23.17903353
_cell_length_c   67.46182294
_cell_angle_alpha   54.18632819
_cell_angle_beta   90.00000000
_cell_angle_gamma   80.03446768
_symmetry_Int_Tables_number   1
_chemical_formula_structural   Si24H2O49
_chemical_formula_sum   'Si96 H8 O196'
_cell_volume   9508.63280933
_cell_formula_units_Z   4
loop_
 _symmetry_equiv_pos_site_id
 _symmetry_equiv_pos_as_xyz
  1  'x, y, z'
loop_
 _atom_site_type_symbol
 _atom_site_label
 _atom_site_symmetry_multiplicity
 _atom_site_fract_x
 _atom_site_fract_y
 _atom_site_fract_z
 _atom_site_occupancy
  O  O1  1  0.320633  0.313517  0.105481  1
  O  O2  1  0.320628  0.813528  0.105483  1
  O  O3  1  0.177844  0.066855  0.166158  1
  O  O4  1  0.177842  0.566863  0.166157  1
  O  O5  1  0.822009  0.933247  0.193020  1
  O  O6  1  0.822008  0.433256  0.193018  1
  O  O7  1  0.822008  0.933256  0.247460  1
  O  O8  1  0.822008  0.433247  0.247461  1
  O  O9  1  0.177843  0.066863  0.220597  1
  O  O10  1  0.177843  0.566855  0.220600  1
  O  O11  1  0.287399  0.974734  0.211900  1
  O  O12  1  0.287398  0.474734  0.211899  1
  O  O13  1  0.712454  0.025376  0.201717  1
  O  O14  1  0.712452  0.525377  0.201718  1
  O  O15  1  0.278014  0.924137  0.186231  1
  O  O16  1  0.278013  0.424147  0.186226  1
  O  O17  1  0.721839  0.075964  0.155703  1
  O  O18  1  0.721836  0.575974  0.155704  1
  O  O19  1  0.721837  0.075974  0.227387  1
  O  O20  1  0.721838  0.575964  0.227392  1
  O  O21  1  0.278014  0.924147  0.257915  1
  O  O22  1  0.278015  0.424137  0.257914  1
  O  O23  1  0.499927  0.000000  0.180902  1
  O  O24  1  0.499924  0.500059  0.180900  1
  O  O25  1  0.499926  0.000000  0.232716  1
  O  O26  1  0.499926  0.500052  0.232717  1
  O  O27  1  0.903621  0.172567  0.138841  1
  O  O28  1  0.903616  0.672577  0.138843  1
  O  O29  1  0.096236  0.827534  0.208214  1
  O  O30  1  0.096230  0.327544  0.208208  1
  O  O31  1  0.096232  0.827544  0.274776  1
  O  O32  1  0.096235  0.327533  0.274775  1
  O  O33  1  0.903617  0.172577  0.205403  1
  O  O34  1  0.903620  0.672567  0.205409  1
  O  O35  1  0.056120  0.153989  0.175859  1
  O  O36  1  0.056118  0.653989  0.175862  1
  O  O37  1  0.943733  0.846122  0.237759  1
  O  O38  1  0.943732  0.346122  0.237756  1
  O  O39  1  0.230545  0.197925  0.139974  1
  O  O40  1  0.230538  0.697935  0.139976  1
  O  O41  1  0.769313  0.802176  0.219544  1
  O  O42  1  0.769307  0.302185  0.219538  1
  O  O43  1  0.769308  0.802185  0.273643  1
  O  O44  1  0.769313  0.302176  0.273641  1
  O  O45  1  0.230539  0.197935  0.194074  1
  O  O46  1  0.230544  0.697925  0.194080  1
  O  O47  1  0.679226  0.686582  0.231531  1
  O  O48  1  0.679219  0.186593  0.231525  1
  O  O49  1  0.320633  0.313517  0.306532  1
  O  O50  1  0.320628  0.813528  0.306534  1
  O  O51  1  0.320628  0.313528  0.182087  1
  O  O52  1  0.320634  0.813517  0.182093  1
  O  O53  1  0.679218  0.686593  0.107086  1
  O  O54  1  0.679224  0.186582  0.107084  1
  O  O55  1  0.440731  0.795986  0.220510  1
  O  O56  1  0.440723  0.295996  0.220504  1
  O  O57  1  0.559129  0.204115  0.138451  1
  O  O58  1  0.559121  0.704124  0.138454  1
  O  O59  1  0.559122  0.204124  0.193107  1
  O  O60  1  0.559129  0.704115  0.193113  1
  O  O61  1  0.440724  0.795996  0.275166  1
  O  O62  1  0.440729  0.295986  0.275164  1
  O  O63  1  0.646700  0.731380  0.260828  1
  O  O64  1  0.646700  0.231380  0.260824  1
  O  O65  1  0.353152  0.268731  0.152789  1
  O  O66  1  0.353151  0.768731  0.152794  1
  O  O67  1  0.177844  0.066855  0.367208  1
  O  O68  1  0.177842  0.566863  0.367207  1
  O  O69  1  0.822009  0.933247  0.394071  1
  O  O70  1  0.822008  0.433256  0.394068  1
  O  O71  1  0.822008  0.933256  0.448510  1
  O  O72  1  0.822008  0.433247  0.448511  1
  O  O73  1  0.177843  0.066863  0.421648  1
  O  O74  1  0.177843  0.566855  0.421650  1
  O  O75  1  0.287399  0.974734  0.412951  1
  O  O76  1  0.287398  0.474734  0.412949  1
  O  O77  1  0.712454  0.025376  0.402768  1
  O  O78  1  0.712452  0.525377  0.402769  1
  O  O79  1  0.278014  0.924137  0.387281  1
  O  O80  1  0.278013  0.424147  0.387276  1
  O  O81  1  0.721839  0.075964  0.356754  1
  O  O82  1  0.721836  0.575974  0.356754  1
  O  O83  1  0.721837  0.075974  0.428437  1
  O  O84  1  0.721838  0.575964  0.428442  1
  O  O85  1  0.278014  0.924147  0.458965  1
  O  O86  1  0.278015  0.424137  0.458964  1
  O  O87  1  0.499927  0.000000  0.381952  1
  O  O88  1  0.499924  0.500059  0.381951  1
  O  O89  1  0.499926  0.000000  0.433766  1
  O  O90  1  0.499926  0.500052  0.433768  1
  O  O91  1  0.903621  0.172567  0.339892  1
  O  O92  1  0.903616  0.672577  0.339894  1
  O  O93  1  0.096236  0.827534  0.409265  1
  O  O94  1  0.096230  0.327544  0.409259  1
  O  O95  1  0.096232  0.827544  0.475827  1
  O  O96  1  0.096235  0.327533  0.475825  1
  O  O97  1  0.903617  0.172577  0.406454  1
  O  O98  1  0.903620  0.672567  0.406460  1
  O  O99  1  0.056120  0.153989  0.376909  1
  O  O100  1  0.056118  0.653989  0.376913  1
  O  O101  1  0.943733  0.846122  0.438809  1
  O  O102  1  0.943732  0.346122  0.438806  1
  O  O103  1  0.230545  0.197925  0.341025  1
  O  O104  1  0.230538  0.697935  0.341027  1
  O  O105  1  0.769313  0.802176  0.420594  1
  O  O106  1  0.769307  0.302185  0.420589  1
  O  O107  1  0.769308  0.802185  0.474694  1
  O  O108  1  0.769313  0.302176  0.474692  1
  O  O109  1  0.230539  0.197935  0.395124  1
  O  O110  1  0.230544  0.697925  0.395130  1
  O  O111  1  0.679226  0.686582  0.432582  1
  O  O112  1  0.679219  0.186593  0.432575  1
  O  O113  1  0.320633  0.313517  0.507583  1
  O  O114  1  0.320628  0.813528  0.507585  1
  O  O115  1  0.320628  0.313528  0.383137  1
  O  O116  1  0.320634  0.813517  0.383143  1
  O  O117  1  0.679218  0.686593  0.308136  1
  O  O118  1  0.679224  0.186582  0.308134  1
  O  O119  1  0.440731  0.795986  0.421561  1
  O  O120  1  0.440723  0.295996  0.421555  1
  O  O121  1  0.559129  0.204115  0.339502  1
  O  O122  1  0.559121  0.704124  0.339504  1
  O  O123  1  0.559122  0.204124  0.394158  1
  O  O124  1  0.559129  0.704115  0.394164  1
  O  O125  1  0.440724  0.795996  0.476216  1
  O  O126  1  0.440729  0.295986  0.476214  1
  O  O127  1  0.646700  0.731380  0.461879  1
  O  O128  1  0.646700  0.231380  0.461874  1
  O  O129  1  0.353152  0.268731  0.353840  1
  O  O130  1  0.353151  0.768731  0.353844  1
  O  O131  1  0.177844  0.066855  0.568259  1
  O  O132  1  0.177842  0.566863  0.568258  1
  O  O133  1  0.822009  0.933247  0.595122  1
  O  O134  1  0.822008  0.433256  0.595119  1
  O  O135  1  0.822008  0.933256  0.649561  1
  O  O136  1  0.822008  0.433247  0.649562  1
  O  O137  1  0.177843  0.066863  0.622698  1
  O  O138  1  0.177843  0.566855  0.622701  1
  O  O139  1  0.287399  0.974734  0.614002  1
  O  O140  1  0.287398  0.474734  0.614000  1
  O  O141  1  0.712454  0.025376  0.603818  1
  O  O142  1  0.712452  0.525377  0.603820  1
  O  O143  1  0.278014  0.924137  0.588332  1
  O  O144  1  0.278013  0.424147  0.588327  1
  O  O145  1  0.721839  0.075964  0.557804  1
  O  O146  1  0.721836  0.575974  0.557805  1
  O  O147  1  0.721837  0.075974  0.629488  1
  O  O148  1  0.721838  0.575964  0.629493  1
  O  O149  1  0.278014  0.924147  0.660016  1
  O  O150  1  0.278015  0.424137  0.660015  1
  O  O151  1  0.499927  0.000000  0.583003  1
  O  O152  1  0.499924  0.500059  0.583001  1
  O  O153  1  0.499926  0.000000  0.634817  1
  O  O154  1  0.499926  0.500052  0.634818  1
  O  O155  1  0.903621  0.172567  0.540942  1
  O  O156  1  0.903616  0.672577  0.540944  1
  O  O157  1  0.096236  0.827534  0.610315  1
  O  O158  1  0.096230  0.327544  0.610309  1
  O  O159  1  0.096232  0.827544  0.676878  1
  O  O160  1  0.096235  0.327533  0.676876  1
  O  O161  1  0.903617  0.172577  0.607505  1
  O  O162  1  0.903620  0.672567  0.607511  1
  O  O163  1  0.056120  0.153989  0.577960  1
  O  O164  1  0.056118  0.653989  0.577963  1
  O  O165  1  0.943733  0.846122  0.639860  1
  O  O166  1  0.943732  0.346122  0.639857  1
  O  O167  1  0.230545  0.197925  0.542076  1
  O  O168  1  0.230538  0.697935  0.542077  1
  O  O169  1  0.769313  0.802176  0.621645  1
  O  O170  1  0.769307  0.302185  0.621639  1
  O  O171  1  0.769308  0.802185  0.675744  1
  O  O172  1  0.769313  0.302176  0.675742  1
  O  O173  1  0.230539  0.197935  0.596175  1
  O  O174  1  0.230544  0.697925  0.596181  1
  O  O175  1  0.679226  0.686582  0.633633  1
  O  O176  1  0.679219  0.186593  0.633626  1
  O  O177  1  0.320633  0.313517  0.708633  1
  O  O178  1  0.320628  0.813528  0.708635  1
  O  O179  1  0.320628  0.313528  0.584188  1
  O  O180  1  0.320634  0.813517  0.584194  1
  O  O181  1  0.679218  0.686593  0.509187  1
  O  O182  1  0.679224  0.186582  0.509185  1
  O  O183  1  0.440731  0.795986  0.622611  1
  O  O184  1  0.440723  0.295996  0.622605  1
  O  O185  1  0.559129  0.204115  0.540553  1
  O  O186  1  0.559121  0.704124  0.540555  1
  O  O187  1  0.559122  0.204124  0.595208  1
  O  O188  1  0.559129  0.704115  0.595214  1
  O  O189  1  0.440724  0.795996  0.677267  1
  O  O190  1  0.440729  0.295986  0.677265  1
  O  O191  1  0.646700  0.731380  0.662930  1
  O  O192  1  0.646700  0.231380  0.662925  1
  O  O193  1  0.353152  0.268731  0.554890  1
  O  O194  1  0.353151  0.768731  0.554895  1
  O  O195  1  0.679218  0.686593  0.710238  1
  O  O196  1  0.679224  0.186582  0.710235  1
  Si  Si197  1  0.283494  0.841161  0.198646  1
  Si  Si198  1  0.283489  0.341171  0.198640  1
  Si  Si199  1  0.716363  0.158939  0.134753  1
  Si  Si200  1  0.716357  0.658950  0.134755  1
  Si  Si201  1  0.716358  0.158950  0.214971  1
  Si  Si202  1  0.716361  0.658939  0.214978  1
  Si  Si203  1  0.283490  0.841171  0.278865  1
  Si  Si204  1  0.283494  0.341160  0.278863  1
  Si  Si205  1  0.304531  0.990788  0.185812  1
  Si  Si206  1  0.304528  0.490794  0.185810  1
  Si  Si207  1  0.695324  0.009316  0.182086  1
  Si  Si208  1  0.695320  0.509323  0.182086  1
  Si  Si209  1  0.695322  0.009323  0.227805  1
  Si  Si210  1  0.695323  0.509316  0.227808  1
  Si  Si211  1  0.304529  0.990794  0.231531  1
  Si  Si212  1  0.304530  0.490788  0.231531  1
  Si  Si213  1  0.091159  0.149493  0.153902  1
  Si  Si214  1  0.091158  0.649500  0.153904  1
  Si  Si215  1  0.908694  0.850610  0.213996  1
  Si  Si216  1  0.908692  0.350617  0.213992  1
  Si  Si217  1  0.908693  0.850617  0.259715  1
  Si  Si218  1  0.908693  0.350610  0.259714  1
  Si  Si219  1  0.091158  0.149500  0.199622  1
  Si  Si220  1  0.091158  0.649493  0.199626  1
  Si  Si221  1  0.634656  0.751292  0.234026  1
  Si  Si222  1  0.634649  0.251302  0.234020  1
  Si  Si223  1  0.365203  0.248809  0.133996  1
  Si  Si224  1  0.365195  0.748818  0.133998  1
  Si  Si225  1  0.365196  0.248818  0.179592  1
  Si  Si226  1  0.365202  0.748808  0.179598  1
  Si  Si227  1  0.634650  0.751302  0.279622  1
  Si  Si228  1  0.634656  0.251292  0.279620  1
  Si  Si229  1  0.283494  0.841161  0.399697  1
  Si  Si230  1  0.283489  0.341171  0.399691  1
  Si  Si231  1  0.716363  0.158939  0.335803  1
  Si  Si232  1  0.716357  0.658950  0.335805  1
  Si  Si233  1  0.716358  0.158950  0.416022  1
  Si  Si234  1  0.716361  0.658939  0.416028  1
  Si  Si235  1  0.283490  0.841171  0.479915  1
  Si  Si236  1  0.283494  0.341160  0.479914  1
  Si  Si237  1  0.304531  0.990788  0.386863  1
  Si  Si238  1  0.304528  0.490794  0.386861  1
  Si  Si239  1  0.695324  0.009316  0.383137  1
  Si  Si240  1  0.695320  0.509323  0.383136  1
  Si  Si241  1  0.695322  0.009323  0.428856  1
  Si  Si242  1  0.695323  0.509316  0.428858  1
  Si  Si243  1  0.304529  0.990794  0.432582  1
  Si  Si244  1  0.304530  0.490788  0.432582  1
  Si  Si245  1  0.091159  0.149493  0.354953  1
  Si  Si246  1  0.091158  0.649500  0.354955  1
  Si  Si247  1  0.908694  0.850610  0.415047  1
  Si  Si248  1  0.908692  0.350617  0.415042  1
  Si  Si249  1  0.908693  0.850617  0.460766  1
  Si  Si250  1  0.908693  0.350610  0.460764  1
  Si  Si251  1  0.091158  0.149500  0.400672  1
  Si  Si252  1  0.091158  0.649493  0.400677  1
  Si  Si253  1  0.634656  0.751292  0.435076  1
  Si  Si254  1  0.634649  0.251302  0.435070  1
  Si  Si255  1  0.365203  0.248809  0.335046  1
  Si  Si256  1  0.365195  0.748818  0.335048  1
  Si  Si257  1  0.365196  0.248818  0.380642  1
  Si  Si258  1  0.365202  0.748808  0.380648  1
  Si  Si259  1  0.634650  0.751302  0.480672  1
  Si  Si260  1  0.634656  0.251292  0.480670  1
  Si  Si261  1  0.283494  0.841161  0.600747  1
  Si  Si262  1  0.283489  0.341171  0.600741  1
  Si  Si263  1  0.716363  0.158939  0.536854  1
  Si  Si264  1  0.716357  0.658950  0.536856  1
  Si  Si265  1  0.716358  0.158950  0.617072  1
  Si  Si266  1  0.716361  0.658939  0.617079  1
  Si  Si267  1  0.283490  0.841171  0.680966  1
  Si  Si268  1  0.283494  0.341160  0.680964  1
  Si  Si269  1  0.304531  0.990788  0.587914  1
  Si  Si270  1  0.304528  0.490794  0.587911  1
  Si  Si271  1  0.695324  0.009316  0.584187  1
  Si  Si272  1  0.695320  0.509323  0.584187  1
  Si  Si273  1  0.695322  0.009323  0.629906  1
  Si  Si274  1  0.695323  0.509316  0.629909  1
  Si  Si275  1  0.304529  0.990794  0.633633  1
  Si  Si276  1  0.304530  0.490788  0.633633  1
  Si  Si277  1  0.091159  0.149493  0.556004  1
  Si  Si278  1  0.091158  0.649500  0.556005  1
  Si  Si279  1  0.908694  0.850610  0.616097  1
  Si  Si280  1  0.908692  0.350617  0.616093  1
  Si  Si281  1  0.908693  0.850617  0.661817  1
  Si  Si282  1  0.908693  0.350610  0.661815  1
  Si  Si283  1  0.091158  0.149500  0.601723  1
  Si  Si284  1  0.091158  0.649493  0.601727  1
  Si  Si285  1  0.634656  0.751292  0.636127  1
  Si  Si286  1  0.634649  0.251302  0.636121  1
  Si  Si287  1  0.365203  0.248809  0.536097  1
  Si  Si288  1  0.365195  0.748818  0.536099  1
  Si  Si289  1  0.365196  0.248818  0.581693  1
  Si  Si290  1  0.365202  0.748808  0.581699  1
  Si  Si291  1  0.634650  0.751302  0.681723  1
  Si  Si292  1  0.634656  0.251292  0.681721  1
  H  H293  1  0.320633  0.313517  0.092141  1
  H  H294  1  0.320628  0.813528  0.092143  1
  H  H295  1  0.679218  0.686593  0.093745  1
  H  H296  1  0.679224  0.186582  0.093743  1
  H  H297  1  0.320633  0.313517  0.721974  1
  H  H298  1  0.320628  0.813528  0.721976  1
  H  H299  1  0.679218  0.686593  0.723578  1
  H  H300  1  0.679224  0.186582  0.723576  1
