# generated using pymatgen
data_Si29H2O59
_symmetry_space_group_name_H-M   'P 1'
_cell_length_a   13.81540410
_cell_length_b   18.13110130
_cell_length_c   73.66094222
_cell_angle_alpha   90.00000000
_cell_angle_beta   90.00000000
_cell_angle_gamma   90.00000000
_symmetry_Int_Tables_number   1
_chemical_formula_structural   Si29H2O59
_chemical_formula_sum   'Si232 H16 O472'
_cell_volume   18451.2182806
_cell_formula_units_Z   8
loop_
 _symmetry_equiv_pos_site_id
 _symmetry_equiv_pos_as_xyz
  1  'x, y, z'
loop_
 _atom_site_type_symbol
 _atom_site_label
 _atom_site_symmetry_multiplicity
 _atom_site_fract_x
 _atom_site_fract_y
 _atom_site_fract_z
 _atom_site_occupancy
  O  O1  1  0.852103  0.638297  0.266315  1
  O  O2  1  0.147831  0.638308  0.266315  1
  O  O3  1  0.647840  0.861623  0.266311  1
  O  O4  1  0.352124  0.861635  0.266313  1
  O  O5  1  0.750003  0.749967  0.253772  1
  O  O6  1  0.250014  0.749957  0.253773  1
  O  O7  1  0.762327  0.629489  0.236179  1
  O  O8  1  0.237694  0.629465  0.236187  1
  O  O9  1  0.737706  0.870450  0.236182  1
  O  O10  1  0.262334  0.870430  0.236178  1
  O  O11  1  0.907173  0.710771  0.238689  1
  O  O12  1  0.092868  0.710772  0.238682  1
  O  O13  1  0.592868  0.789154  0.238679  1
  O  O14  1  0.407178  0.789153  0.238687  1
  O  O15  1  0.746375  0.506209  0.219887  1
  O  O16  1  0.253654  0.506172  0.219902  1
  O  O17  1  0.753679  0.993740  0.219897  1
  O  O18  1  0.246387  0.993716  0.219888  1
  O  O19  1  0.749805  0.625763  0.201699  1
  O  O20  1  0.250173  0.625716  0.201706  1
  O  O21  1  0.750182  0.874201  0.201701  1
  O  O22  1  0.249847  0.874172  0.201697  1
  O  O23  1  0.600962  0.593041  0.220873  1
  O  O24  1  0.399047  0.593029  0.220876  1
  O  O25  1  0.899066  0.906882  0.220871  1
  O  O26  1  0.100981  0.906872  0.220869  1
  O  O27  1  0.760916  0.870475  0.167529  1
  O  O28  1  0.239106  0.870438  0.167526  1
  O  O29  1  0.739080  0.629474  0.167528  1
  O  O30  1  0.260910  0.629448  0.167535  1
  O  O31  1  0.907535  0.954935  0.165574  1
  O  O32  1  0.092533  0.954947  0.165580  1
  O  O33  1  0.592506  0.544962  0.165584  1
  O  O34  1  0.407510  0.544975  0.165577  1
  O  O35  1  0.750049  0.749979  0.186107  1
  O  O36  1  0.250009  0.749943  0.186111  1
  O  O37  1  0.899769  0.660219  0.183876  1
  O  O38  1  0.100240  0.660211  0.183880  1
  O  O39  1  0.600253  0.839683  0.183876  1
  O  O40  1  0.399781  0.839668  0.183873  1
  O  O41  1  0.000000  0.544041  0.192294  1
  O  O42  1  0.499992  0.955861  0.192289  1
  O  O43  1  0.000000  0.905383  0.192885  1
  O  O44  1  0.499988  0.594522  0.192889  1
  O  O45  1  0.000000  0.657178  0.211888  1
  O  O46  1  0.500002  0.842733  0.211884  1
  O  O47  1  0.000000  0.793964  0.216178  1
  O  O48  1  0.499994  0.705946  0.216179  1
  O  O49  1  0.499966  0.084540  0.257797  1
  O  O50  1  0.000000  0.415395  0.257800  1
  O  O51  1  0.332774  0.079965  0.242134  1
  O  O52  1  0.667171  0.079983  0.242131  1
  O  O53  1  0.167141  0.419930  0.242135  1
  O  O54  1  0.832731  0.419972  0.242141  1
  O  O55  1  0.749841  0.125757  0.176431  1
  O  O56  1  0.250189  0.125723  0.176428  1
  O  O57  1  0.750169  0.374202  0.176432  1
  O  O58  1  0.249814  0.374174  0.176436  1
  O  O59  1  0.760902  0.370466  0.210604  1
  O  O60  1  0.239084  0.370442  0.210606  1
  O  O61  1  0.739104  0.129468  0.210602  1
  O  O62  1  0.260924  0.129448  0.210599  1
  O  O63  1  0.907521  0.454919  0.212562  1
  O  O64  1  0.092518  0.454958  0.212548  1
  O  O65  1  0.592536  0.044951  0.212546  1
  O  O66  1  0.407538  0.044979  0.212556  1
  O  O67  1  0.750034  0.249973  0.192024  1
  O  O68  1  0.250036  0.249947  0.192023  1
  O  O69  1  0.899787  0.160229  0.194256  1
  O  O70  1  0.100256  0.160227  0.194252  1
  O  O71  1  0.600242  0.339686  0.194256  1
  O  O72  1  0.399769  0.339692  0.194259  1
  O  O73  1  0.000000  0.044044  0.185840  1
  O  O74  1  0.499983  0.455864  0.185842  1
  O  O75  1  0.000000  0.405383  0.185247  1
  O  O76  1  0.500010  0.094522  0.185244  1
  O  O77  1  0.000000  0.157177  0.166245  1
  O  O78  1  0.500000  0.342732  0.166247  1
  O  O79  1  0.127545  -0.000000  0.108050  1
  O  O80  1  0.499949  0.584544  0.120335  1
  O  O81  1  0.000000  0.915398  0.120332  1
  O  O82  1  0.352075  0.638308  0.104278  1
  O  O83  1  0.647799  0.638311  0.104279  1
  O  O84  1  0.147817  0.861634  0.104275  1
  O  O85  1  0.852099  0.861636  0.104274  1
  O  O86  1  0.332758  0.579971  0.135998  1
  O  O87  1  0.667156  0.579984  0.135999  1
  O  O88  1  0.167186  0.919941  0.135996  1
  O  O89  1  0.832776  0.919965  0.135995  1
  O  O90  1  0.872401  -0.000000  0.108044  1
  O  O91  1  0.499999  0.205948  0.161953  1
  O  O92  1  -0.000000  0.084540  0.095760  1
  O  O93  1  0.499949  0.415397  0.095764  1
  O  O94  1  0.852126  0.138309  0.111816  1
  O  O95  1  0.147844  0.138306  0.111817  1
  O  O96  1  0.647826  0.361634  0.111821  1
  O  O97  1  0.352101  0.361636  0.111821  1
  O  O98  1  0.832761  0.079993  0.080097  1
  O  O99  1  0.167167  0.079962  0.080097  1
  O  O100  1  0.667143  0.419967  0.080101  1
  O  O101  1  0.332735  0.419950  0.080100  1
  O  O102  1  0.750008  0.249979  0.124359  1
  O  O103  1  0.250006  0.249953  0.124361  1
  O  O104  1  0.762329  0.129495  0.141950  1
  O  O105  1  0.237696  0.129461  0.141947  1
  O  O106  1  0.737679  0.370454  0.141951  1
  O  O107  1  0.262306  0.370427  0.141955  1
  O  O108  1  0.907172  0.210775  0.139445  1
  O  O109  1  0.092864  0.210765  0.139451  1
  O  O110  1  0.592855  0.289149  0.139450  1
  O  O111  1  0.407161  0.289155  0.139447  1
  O  O112  1  0.746391  0.006210  0.158242  1
  O  O113  1  0.253675  0.006174  0.158235  1
  O  O114  1  0.753647  0.493743  0.158236  1
  O  O115  1  0.246360  0.493717  0.158243  1
  O  O116  1  0.600979  0.093045  0.157260  1
  O  O117  1  0.399062  0.093031  0.157257  1
  O  O118  1  0.899039  0.406882  0.157261  1
  O  O119  1  0.100952  0.406879  0.157263  1
  O  O120  1  0.000000  0.293965  0.161954  1
  O  O121  1  0.627520  0.499970  0.108051  1
  O  O122  1  0.372378  0.499972  0.108047  1
  O  O123  1  0.852103  0.638297  0.590389  1
  O  O124  1  0.147831  0.638308  0.590388  1
  O  O125  1  0.647840  0.861623  0.590385  1
  O  O126  1  0.352124  0.861635  0.590386  1
  O  O127  1  0.750003  0.749967  0.577845  1
  O  O128  1  0.250014  0.749957  0.577847  1
  O  O129  1  0.762327  0.629489  0.560253  1
  O  O130  1  0.237694  0.629465  0.560260  1
  O  O131  1  0.737706  0.870450  0.560255  1
  O  O132  1  0.262334  0.870430  0.560251  1
  O  O133  1  0.907173  0.710771  0.562763  1
  O  O134  1  0.092868  0.710772  0.562755  1
  O  O135  1  0.592868  0.789154  0.562752  1
  O  O136  1  0.407178  0.789153  0.562761  1
  O  O137  1  0.746375  0.506209  0.543960  1
  O  O138  1  0.253654  0.506172  0.543975  1
  O  O139  1  0.753679  0.993740  0.543971  1
  O  O140  1  0.246387  0.993716  0.543961  1
  O  O141  1  0.749805  0.625763  0.525772  1
  O  O142  1  0.250173  0.625716  0.525779  1
  O  O143  1  0.750182  0.874201  0.525774  1
  O  O144  1  0.249847  0.874172  0.525770  1
  O  O145  1  0.600962  0.593041  0.544946  1
  O  O146  1  0.399047  0.593029  0.544949  1
  O  O147  1  0.899066  0.906882  0.544944  1
  O  O148  1  0.100981  0.906872  0.544942  1
  O  O149  1  0.760916  0.870475  0.491603  1
  O  O150  1  0.239106  0.870438  0.491600  1
  O  O151  1  0.739080  0.629474  0.491602  1
  O  O152  1  0.260910  0.629448  0.491608  1
  O  O153  1  0.907535  0.954935  0.489648  1
  O  O154  1  0.092533  0.954947  0.489654  1
  O  O155  1  0.592506  0.544962  0.489658  1
  O  O156  1  0.407510  0.544975  0.489650  1
  O  O157  1  0.750049  0.749979  0.510180  1
  O  O158  1  0.250009  0.749943  0.510184  1
  O  O159  1  0.899769  0.660219  0.507949  1
  O  O160  1  0.100240  0.660211  0.507954  1
  O  O161  1  0.600253  0.839683  0.507950  1
  O  O162  1  0.399781  0.839668  0.507947  1
  O  O163  1  0.000000  0.544041  0.516368  1
  O  O164  1  0.499992  0.955861  0.516362  1
  O  O165  1  0.000000  0.905383  0.516958  1
  O  O166  1  0.499988  0.594522  0.516962  1
  O  O167  1  0.000000  0.657178  0.535961  1
  O  O168  1  0.500002  0.842733  0.535957  1
  O  O169  1  0.000000  0.793964  0.540251  1
  O  O170  1  0.499994  0.705946  0.540252  1
  O  O171  1  0.499966  0.084540  0.581871  1
  O  O172  1  0.000000  0.415395  0.581874  1
  O  O173  1  0.332774  0.079965  0.566208  1
  O  O174  1  0.667171  0.079983  0.566204  1
  O  O175  1  0.167141  0.419930  0.566208  1
  O  O176  1  0.832731  0.419972  0.566214  1
  O  O177  1  0.749841  0.125757  0.500505  1
  O  O178  1  0.250189  0.125723  0.500502  1
  O  O179  1  0.750169  0.374202  0.500506  1
  O  O180  1  0.249814  0.374174  0.500509  1
  O  O181  1  0.760902  0.370466  0.534677  1
  O  O182  1  0.239084  0.370442  0.534679  1
  O  O183  1  0.739104  0.129468  0.534675  1
  O  O184  1  0.260924  0.129448  0.534672  1
  O  O185  1  0.907521  0.454919  0.536636  1
  O  O186  1  0.092518  0.454958  0.536622  1
  O  O187  1  0.592536  0.044951  0.536619  1
  O  O188  1  0.407538  0.044979  0.536629  1
  O  O189  1  0.750034  0.249973  0.516098  1
  O  O190  1  0.250036  0.249947  0.516096  1
  O  O191  1  0.899787  0.160229  0.518329  1
  O  O192  1  0.100256  0.160227  0.518326  1
  O  O193  1  0.600242  0.339686  0.518329  1
  O  O194  1  0.399769  0.339692  0.518332  1
  O  O195  1  0.000000  0.044044  0.509913  1
  O  O196  1  0.499983  0.455864  0.509916  1
  O  O197  1  -0.000000  0.405383  0.509321  1
  O  O198  1  0.500010  0.094522  0.509317  1
  O  O199  1  0.000000  0.157177  0.490319  1
  O  O200  1  0.500000  0.342732  0.490321  1
  O  O201  1  0.000000  0.705956  0.378215  1
  O  O202  1  0.127545  -0.000000  0.432123  1
  O  O203  1  0.499949  0.584544  0.444408  1
  O  O204  1  0.000000  0.915398  0.444405  1
  O  O205  1  0.352075  0.638308  0.428351  1
  O  O206  1  0.647799  0.638311  0.428353  1
  O  O207  1  0.147817  0.861634  0.428348  1
  O  O208  1  0.852099  0.861636  0.428348  1
  O  O209  1  0.332758  0.579971  0.460072  1
  O  O210  1  0.667156  0.579984  0.460073  1
  O  O211  1  0.167186  0.919941  0.460070  1
  O  O212  1  0.832776  0.919965  0.460068  1
  O  O213  1  0.249914  0.749957  0.415807  1
  O  O214  1  0.749912  0.749985  0.415810  1
  O  O215  1  0.262240  0.629470  0.398219  1
  O  O216  1  0.737607  0.629501  0.398220  1
  O  O217  1  0.237594  0.870429  0.398212  1
  O  O218  1  0.762223  0.870466  0.398220  1
  O  O219  1  0.407068  0.710774  0.400720  1
  O  O220  1  0.592758  0.710777  0.400723  1
  O  O221  1  0.092745  0.789156  0.400723  1
  O  O222  1  0.907052  0.789161  0.400716  1
  O  O223  1  0.246259  0.506183  0.381933  1
  O  O224  1  0.753540  0.506216  0.381930  1
  O  O225  1  0.253537  0.993713  0.381922  1
  O  O226  1  0.746251  0.993756  0.381935  1
  O  O227  1  0.100871  0.593042  0.382911  1
  O  O228  1  0.898954  0.593049  0.382910  1
  O  O229  1  0.398949  0.906879  0.382905  1
  O  O230  1  0.600864  0.906892  0.382909  1
  O  O231  1  0.499921  0.793972  0.378214  1
  O  O232  1  0.872401  -0.000000  0.432118  1
  O  O233  1  0.499999  0.205948  0.486026  1
  O  O234  1  -0.000000  0.084540  0.419834  1
  O  O235  1  0.499949  0.415397  0.419838  1
  O  O236  1  0.852126  0.138309  0.435890  1
  O  O237  1  0.147844  0.138306  0.435890  1
  O  O238  1  0.647826  0.361634  0.435894  1
  O  O239  1  0.352101  0.361636  0.435894  1
  O  O240  1  0.832761  0.079993  0.404170  1
  O  O241  1  0.167167  0.079962  0.404170  1
  O  O242  1  0.667143  0.419967  0.404174  1
  O  O243  1  0.332735  0.419950  0.404174  1
  O  O244  1  0.750008  0.249979  0.448432  1
  O  O245  1  0.250006  0.249953  0.448434  1
  O  O246  1  0.762329  0.129495  0.466024  1
  O  O247  1  0.237696  0.129461  0.466021  1
  O  O248  1  0.737679  0.370454  0.466024  1
  O  O249  1  0.262306  0.370427  0.466029  1
  O  O250  1  0.907172  0.210775  0.463518  1
  O  O251  1  0.092864  0.210765  0.463524  1
  O  O252  1  0.592855  0.289149  0.463523  1
  O  O253  1  0.407161  0.289155  0.463520  1
  O  O254  1  0.746391  0.006210  0.482315  1
  O  O255  1  0.253675  0.006174  0.482308  1
  O  O256  1  0.753647  0.493743  0.482309  1
  O  O257  1  0.246360  0.493717  0.482316  1
  O  O258  1  0.600979  0.093045  0.481333  1
  O  O259  1  0.399062  0.093031  0.481331  1
  O  O260  1  0.899039  0.406882  0.481334  1
  O  O261  1  0.100952  0.406879  0.481337  1
  O  O262  1  0.000000  0.293965  0.486028  1
  O  O263  1  0.627520  0.499970  0.432125  1
  O  O264  1  0.372378  0.499972  0.432120  1
  O  O265  1  0.372399  -0.000000  0.270087  1
  O  O266  1  -0.000000  0.584540  0.282371  1
  O  O267  1  0.499973  0.915396  0.282369  1
  O  O268  1  0.832752  0.579997  0.298039  1
  O  O269  1  0.167151  0.579957  0.298033  1
  O  O270  1  0.667174  0.919969  0.298030  1
  O  O271  1  0.332764  0.919947  0.298033  1
  O  O272  1  0.249737  0.625729  0.363738  1
  O  O273  1  0.750087  0.625763  0.363739  1
  O  O274  1  0.250092  0.874167  0.363731  1
  O  O275  1  0.749747  0.874217  0.363739  1
  O  O276  1  0.260819  0.870449  0.329561  1
  O  O277  1  0.739008  0.870475  0.329567  1
  O  O278  1  0.239009  0.629446  0.329567  1
  O  O279  1  0.760825  0.629484  0.329568  1
  O  O280  1  0.407388  0.954968  0.327621  1
  O  O281  1  0.592385  0.954925  0.327607  1
  O  O282  1  0.092386  0.544986  0.327613  1
  O  O283  1  0.907388  0.544964  0.327623  1
  O  O284  1  0.249897  0.749948  0.348142  1
  O  O285  1  0.749885  0.749985  0.348148  1
  O  O286  1  0.399675  0.660230  0.345915  1
  O  O287  1  0.600143  0.660235  0.345914  1
  O  O288  1  0.100141  0.839685  0.345909  1
  O  O289  1  0.899672  0.839693  0.345914  1
  O  O290  1  0.499914  0.544050  0.354330  1
  O  O291  1  0.000000  0.955873  0.354327  1
  O  O292  1  0.499922  0.905393  0.354922  1
  O  O293  1  0.000000  0.594531  0.354925  1
  O  O294  1  0.499918  0.657184  0.373924  1
  O  O295  1  0.000000  0.842742  0.373921  1
  O  O296  1  0.627541  0.000000  0.270078  1
  O  O297  1  0.352092  0.138310  0.273853  1
  O  O298  1  0.647822  0.138296  0.273853  1
  O  O299  1  0.147783  0.361634  0.273857  1
  O  O300  1  0.852069  0.361627  0.273859  1
  O  O301  1  0.249894  0.249955  0.286394  1
  O  O302  1  0.749906  0.249973  0.286398  1
  O  O303  1  0.262215  0.129466  0.303981  1
  O  O304  1  0.737576  0.129496  0.303991  1
  O  O305  1  0.237588  0.370426  0.303991  1
  O  O306  1  0.762210  0.370459  0.303989  1
  O  O307  1  0.407036  0.210779  0.301488  1
  O  O308  1  0.592727  0.210772  0.301477  1
  O  O309  1  0.092738  0.289154  0.301483  1
  O  O310  1  0.907045  0.289160  0.301491  1
  O  O311  1  0.246249  0.006180  0.320268  1
  O  O312  1  0.253531  0.493712  0.320280  1
  O  O313  1  0.746243  0.493755  0.320272  1
  O  O314  1  0.249732  0.125727  0.338463  1
  O  O315  1  0.750101  0.125768  0.338471  1
  O  O316  1  0.250077  0.374173  0.338473  1
  O  O317  1  0.749739  0.374215  0.338469  1
  O  O318  1  0.100857  0.093037  0.319293  1
  O  O319  1  0.898941  0.093047  0.319296  1
  O  O320  1  0.398941  0.406875  0.319300  1
  O  O321  1  0.600856  0.406894  0.319299  1
  O  O322  1  0.260817  0.370447  0.372643  1
  O  O323  1  0.739008  0.370482  0.372640  1
  O  O324  1  0.239000  0.129448  0.372634  1
  O  O325  1  0.760822  0.129487  0.372642  1
  O  O326  1  0.407399  0.454948  0.374590  1
  O  O327  1  0.592396  0.454947  0.374594  1
  O  O328  1  0.092387  0.044985  0.374593  1
  O  O329  1  0.907391  0.044973  0.374584  1
  O  O330  1  0.249899  0.249949  0.354060  1
  O  O331  1  0.749866  0.249988  0.354062  1
  O  O332  1  0.399668  0.160220  0.356288  1
  O  O333  1  0.600139  0.160232  0.356293  1
  O  O334  1  0.100138  0.339681  0.356296  1
  O  O335  1  0.899667  0.339692  0.356293  1
  O  O336  1  0.499948  0.044052  0.347875  1
  O  O337  1  0.000000  0.455871  0.347880  1
  O  O338  1  0.499910  0.405388  0.347285  1
  O  O339  1  0.000000  0.094530  0.347280  1
  O  O340  1  0.499917  0.157187  0.328281  1
  O  O341  1  0.000000  0.342741  0.328286  1
  O  O342  1  0.499921  0.293971  0.323990  1
  O  O343  1  -0.000000  0.205954  0.323991  1
  O  O344  1  0.753529  0.006214  0.320282  1
  O  O345  1  0.127517  0.499970  0.270080  1
  O  O346  1  0.872373  0.499962  0.270093  1
  O  O347  1  -0.000000  0.705956  0.702288  1
  O  O348  1  0.127545  -0.000000  0.756197  1
  O  O349  1  0.499949  0.584544  0.768481  1
  O  O350  1  -0.000000  0.915398  0.768479  1
  O  O351  1  0.352075  0.638308  0.752425  1
  O  O352  1  0.647799  0.638311  0.752426  1
  O  O353  1  0.147817  0.861634  0.752422  1
  O  O354  1  0.852099  0.861636  0.752421  1
  O  O355  1  0.332758  0.579971  0.784145  1
  O  O356  1  0.667156  0.579984  0.784146  1
  O  O357  1  0.167186  0.919941  0.784143  1
  O  O358  1  0.832776  0.919965  0.784142  1
  O  O359  1  0.249914  0.749957  0.739881  1
  O  O360  1  0.749912  0.749985  0.739884  1
  O  O361  1  0.262240  0.629470  0.722293  1
  O  O362  1  0.737607  0.629501  0.722293  1
  O  O363  1  0.237594  0.870429  0.722285  1
  O  O364  1  0.762223  0.870466  0.722293  1
  O  O365  1  0.407068  0.710774  0.724793  1
  O  O366  1  0.592758  0.710777  0.724796  1
  O  O367  1  0.092745  0.789156  0.724797  1
  O  O368  1  0.907052  0.789161  0.724789  1
  O  O369  1  0.246259  0.506183  0.706007  1
  O  O370  1  0.753540  0.506216  0.706003  1
  O  O371  1  0.253537  0.993713  0.705995  1
  O  O372  1  0.746251  0.993756  0.706009  1
  O  O373  1  0.100871  0.593042  0.706985  1
  O  O374  1  0.898954  0.593049  0.706983  1
  O  O375  1  0.398949  0.906879  0.706978  1
  O  O376  1  0.600864  0.906892  0.706982  1
  O  O377  1  0.499921  0.793972  0.702288  1
  O  O378  1  0.872401  0.000000  0.756191  1
  O  O379  1  -0.000000  0.084540  0.743907  1
  O  O380  1  0.499949  0.415397  0.743911  1
  O  O381  1  0.852126  0.138309  0.759963  1
  O  O382  1  0.147844  0.138306  0.759964  1
  O  O383  1  0.647826  0.361634  0.759968  1
  O  O384  1  0.352101  0.361636  0.759968  1
  O  O385  1  0.832761  0.079993  0.728243  1
  O  O386  1  0.167167  0.079962  0.728244  1
  O  O387  1  0.667143  0.419967  0.728248  1
  O  O388  1  0.332735  0.419950  0.728247  1
  O  O389  1  0.627520  0.499970  0.756198  1
  O  O390  1  0.372378  0.499972  0.756194  1
  O  O391  1  0.372399  -0.000000  0.594160  1
  O  O392  1  0.000000  0.584540  0.606444  1
  O  O393  1  0.499973  0.915396  0.606442  1
  O  O394  1  0.832752  0.579997  0.622112  1
  O  O395  1  0.167151  0.579957  0.622106  1
  O  O396  1  0.667174  0.919969  0.622104  1
  O  O397  1  0.332764  0.919947  0.622107  1
  O  O398  1  0.249737  0.625729  0.687812  1
  O  O399  1  0.750087  0.625763  0.687812  1
  O  O400  1  0.250092  0.874167  0.687804  1
  O  O401  1  0.749747  0.874217  0.687812  1
  O  O402  1  0.260819  0.870449  0.653634  1
  O  O403  1  0.739008  0.870475  0.653641  1
  O  O404  1  0.239009  0.629446  0.653640  1
  O  O405  1  0.760825  0.629484  0.653642  1
  O  O406  1  0.407388  0.954968  0.651694  1
  O  O407  1  0.592385  0.954925  0.651681  1
  O  O408  1  0.092386  0.544986  0.651686  1
  O  O409  1  0.907388  0.544964  0.651696  1
  O  O410  1  0.249897  0.749948  0.672215  1
  O  O411  1  0.749885  0.749985  0.672222  1
  O  O412  1  0.399675  0.660230  0.669988  1
  O  O413  1  0.600143  0.660235  0.669987  1
  O  O414  1  0.100141  0.839685  0.669983  1
  O  O415  1  0.899672  0.839693  0.669987  1
  O  O416  1  0.499914  0.544050  0.678403  1
  O  O417  1  0.000000  0.955873  0.678400  1
  O  O418  1  0.499922  0.905393  0.678995  1
  O  O419  1  -0.000000  0.594531  0.678999  1
  O  O420  1  0.499918  0.657184  0.697997  1
  O  O421  1  0.000000  0.842742  0.697994  1
  O  O422  1  0.627541  -0.000000  0.594151  1
  O  O423  1  0.352092  0.138310  0.597927  1
  O  O424  1  0.647822  0.138296  0.597926  1
  O  O425  1  0.147783  0.361634  0.597931  1
  O  O426  1  0.852069  0.361627  0.597932  1
  O  O427  1  0.249894  0.249955  0.610468  1
  O  O428  1  0.749906  0.249973  0.610472  1
  O  O429  1  0.262215  0.129466  0.628055  1
  O  O430  1  0.737576  0.129496  0.628064  1
  O  O431  1  0.237588  0.370426  0.628065  1
  O  O432  1  0.762210  0.370459  0.628062  1
  O  O433  1  0.407036  0.210779  0.625561  1
  O  O434  1  0.592727  0.210772  0.625551  1
  O  O435  1  0.092738  0.289154  0.625557  1
  O  O436  1  0.907045  0.289160  0.625564  1
  O  O437  1  0.246249  0.006180  0.644342  1
  O  O438  1  0.253531  0.493712  0.644354  1
  O  O439  1  0.746243  0.493755  0.644345  1
  O  O440  1  0.249732  0.125727  0.662536  1
  O  O441  1  0.750101  0.125768  0.662545  1
  O  O442  1  0.250077  0.374173  0.662546  1
  O  O443  1  0.749739  0.374215  0.662543  1
  O  O444  1  0.100857  0.093037  0.643366  1
  O  O445  1  0.898941  0.093047  0.643370  1
  O  O446  1  0.398941  0.406875  0.643374  1
  O  O447  1  0.600856  0.406894  0.643372  1
  O  O448  1  0.260817  0.370447  0.696717  1
  O  O449  1  0.739008  0.370482  0.696714  1
  O  O450  1  0.239000  0.129448  0.696707  1
  O  O451  1  0.760822  0.129487  0.696715  1
  O  O452  1  0.407399  0.454948  0.698663  1
  O  O453  1  0.592396  0.454947  0.698668  1
  O  O454  1  0.092387  0.044985  0.698666  1
  O  O455  1  0.907391  0.044973  0.698658  1
  O  O456  1  0.249899  0.249949  0.678133  1
  O  O457  1  0.749866  0.249988  0.678135  1
  O  O458  1  0.399668  0.160220  0.680362  1
  O  O459  1  0.600139  0.160232  0.680366  1
  O  O460  1  0.100138  0.339681  0.680370  1
  O  O461  1  0.899667  0.339692  0.680366  1
  O  O462  1  0.499948  0.044052  0.671948  1
  O  O463  1  0.000000  0.455871  0.671954  1
  O  O464  1  0.499910  0.405388  0.671358  1
  O  O465  1  0.000000  0.094530  0.671354  1
  O  O466  1  0.499917  0.157187  0.652354  1
  O  O467  1  0.000000  0.342741  0.652359  1
  O  O468  1  0.499921  0.293971  0.648064  1
  O  O469  1  0.000000  0.205954  0.648064  1
  O  O470  1  0.753529  0.006214  0.644356  1
  O  O471  1  0.127517  0.499970  0.594153  1
  O  O472  1  0.872373  0.499962  0.594166  1
  Si  Si473  1  0.817024  0.682329  0.249353  1
  Si  Si474  1  0.182985  0.682322  0.249354  1
  Si  Si475  1  0.682984  0.817605  0.249351  1
  Si  Si476  1  0.317033  0.817595  0.249352  1
  Si  Si477  1  0.715117  0.588931  0.219763  1
  Si  Si478  1  0.284894  0.588900  0.219770  1
  Si  Si479  1  0.784913  0.911011  0.219765  1
  Si  Si480  1  0.215134  0.910991  0.219761  1
  Si  Si481  1  0.785654  0.668363  0.184510  1
  Si  Si482  1  0.214356  0.668337  0.184518  1
  Si  Si483  1  0.714373  0.831578  0.184513  1
  Si  Si484  1  0.285662  0.831547  0.184510  1
  Si  Si485  1  0.000000  0.964690  0.177339  1
  Si  Si486  1  0.499995  0.535218  0.177343  1
  Si  Si487  1  0.000000  0.630661  0.191496  1
  Si  Si488  1  0.500011  0.869240  0.191491  1
  Si  Si489  1  -0.000000  0.718897  0.226808  1
  Si  Si490  1  0.500009  0.781021  0.226805  1
  Si  Si491  1  0.499999  0.620135  0.213347  1
  Si  Si492  1  -0.000000  0.879774  0.213344  1
  Si  Si493  1  0.000000  0.379776  0.164788  1
  Si  Si494  1  0.500014  0.120136  0.164785  1
  Si  Si495  1  0.388053  0.076481  0.260732  1
  Si  Si496  1  0.611881  0.076477  0.260727  1
  Si  Si497  1  0.111850  0.423451  0.260730  1
  Si  Si498  1  0.888022  0.423455  0.260737  1
  Si  Si499  1  0.809162  0.434939  0.221644  1
  Si  Si500  1  0.190818  0.434919  0.221644  1
  Si  Si501  1  0.690840  0.064992  0.221640  1
  Si  Si502  1  0.309190  0.064980  0.221639  1
  Si  Si503  1  0.785670  0.168364  0.193620  1
  Si  Si504  1  0.214374  0.168343  0.193616  1
  Si  Si505  1  0.714361  0.331573  0.193620  1
  Si  Si506  1  0.285653  0.331559  0.193623  1
  Si  Si507  1  -0.000000  0.464687  0.200793  1
  Si  Si508  1  0.500018  0.035215  0.200789  1
  Si  Si509  1  0.000000  0.130664  0.186637  1
  Si  Si510  1  0.500003  0.369244  0.186640  1
  Si  Si511  1  0.388036  0.576484  0.117401  1
  Si  Si512  1  0.611864  0.576484  0.117404  1
  Si  Si513  1  0.111886  0.923454  0.117401  1
  Si  Si514  1  0.888057  0.923459  0.117398  1
  Si  Si515  1  0.809188  0.934943  0.156490  1
  Si  Si516  1  0.190846  0.934918  0.156489  1
  Si  Si517  1  0.690814  0.564996  0.156491  1
  Si  Si518  1  0.309166  0.564981  0.156493  1
  Si  Si519  1  0.500003  0.281021  0.151326  1
  Si  Si520  1  0.888060  0.076484  0.098692  1
  Si  Si521  1  0.111889  0.076479  0.098694  1
  Si  Si522  1  0.611863  0.423458  0.098698  1
  Si  Si523  1  0.388034  0.423457  0.098695  1
  Si  Si524  1  0.817028  0.182339  0.128778  1
  Si  Si525  1  0.182983  0.182316  0.128779  1
  Si  Si526  1  0.682974  0.317608  0.128780  1
  Si  Si527  1  0.317016  0.317595  0.128782  1
  Si  Si528  1  0.715132  0.088933  0.158368  1
  Si  Si529  1  0.284908  0.088904  0.158364  1
  Si  Si530  1  0.784886  0.411014  0.158368  1
  Si  Si531  1  0.215106  0.410993  0.158371  1
  Si  Si532  1  0.000000  0.218896  0.151325  1
  Si  Si533  1  0.817024  0.682329  0.573426  1
  Si  Si534  1  0.182985  0.682322  0.573428  1
  Si  Si535  1  0.682984  0.817605  0.573425  1
  Si  Si536  1  0.317033  0.817595  0.573426  1
  Si  Si537  1  0.715117  0.588931  0.543836  1
  Si  Si538  1  0.284894  0.588900  0.543843  1
  Si  Si539  1  0.784913  0.911011  0.543839  1
  Si  Si540  1  0.215134  0.910991  0.543834  1
  Si  Si541  1  0.785654  0.668363  0.508584  1
  Si  Si542  1  0.214356  0.668337  0.508591  1
  Si  Si543  1  0.714373  0.831578  0.508586  1
  Si  Si544  1  0.285662  0.831547  0.508583  1
  Si  Si545  1  0.000000  0.964690  0.501413  1
  Si  Si546  1  0.499995  0.535218  0.501416  1
  Si  Si547  1  0.000000  0.630661  0.515569  1
  Si  Si548  1  0.500011  0.869240  0.515564  1
  Si  Si549  1  0.000000  0.718897  0.550881  1
  Si  Si550  1  0.500009  0.781021  0.550879  1
  Si  Si551  1  0.499999  0.620135  0.537421  1
  Si  Si552  1  0.000000  0.879774  0.537417  1
  Si  Si553  1  0.000000  0.379776  0.488861  1
  Si  Si554  1  0.500014  0.120136  0.488859  1
  Si  Si555  1  0.388053  0.076481  0.584805  1
  Si  Si556  1  0.611881  0.076477  0.584800  1
  Si  Si557  1  0.111850  0.423451  0.584804  1
  Si  Si558  1  0.888022  0.423455  0.584810  1
  Si  Si559  1  0.809162  0.434939  0.545717  1
  Si  Si560  1  0.190818  0.434919  0.545717  1
  Si  Si561  1  0.690840  0.064992  0.545713  1
  Si  Si562  1  0.309190  0.064980  0.545712  1
  Si  Si563  1  0.785670  0.168364  0.517694  1
  Si  Si564  1  0.214374  0.168343  0.517690  1
  Si  Si565  1  0.714361  0.331573  0.517693  1
  Si  Si566  1  0.285653  0.331559  0.517696  1
  Si  Si567  1  -0.000000  0.464687  0.524867  1
  Si  Si568  1  0.500018  0.035215  0.524862  1
  Si  Si569  1  0.000000  0.130664  0.510711  1
  Si  Si570  1  0.500003  0.369244  0.510713  1
  Si  Si571  1  0.388036  0.576484  0.441475  1
  Si  Si572  1  0.611864  0.576484  0.441477  1
  Si  Si573  1  0.111886  0.923454  0.441475  1
  Si  Si574  1  0.888057  0.923459  0.441471  1
  Si  Si575  1  0.316943  0.682322  0.411389  1
  Si  Si576  1  0.682896  0.682343  0.411391  1
  Si  Si577  1  0.182897  0.817596  0.411387  1
  Si  Si578  1  0.816941  0.817617  0.411389  1
  Si  Si579  1  0.215024  0.588912  0.381803  1
  Si  Si580  1  0.784800  0.588938  0.381802  1
  Si  Si581  1  0.284795  0.910990  0.381795  1
  Si  Si582  1  0.715017  0.911026  0.381803  1
  Si  Si583  1  0.809188  0.934943  0.480564  1
  Si  Si584  1  0.190846  0.934918  0.480562  1
  Si  Si585  1  0.690814  0.564996  0.480565  1
  Si  Si586  1  0.309166  0.564981  0.480567  1
  Si  Si587  1  0.499918  0.718903  0.388843  1
  Si  Si588  1  0.000000  0.781029  0.388842  1
  Si  Si589  1  0.500003  0.281021  0.475399  1
  Si  Si590  1  0.888060  0.076484  0.422765  1
  Si  Si591  1  0.111889  0.076479  0.422768  1
  Si  Si592  1  0.611863  0.423458  0.422771  1
  Si  Si593  1  0.388034  0.423457  0.422769  1
  Si  Si594  1  0.817028  0.182339  0.452851  1
  Si  Si595  1  0.182983  0.182316  0.452853  1
  Si  Si596  1  0.682974  0.317608  0.452853  1
  Si  Si597  1  0.317016  0.317595  0.452855  1
  Si  Si598  1  0.715132  0.088933  0.482441  1
  Si  Si599  1  0.284908  0.088904  0.482438  1
  Si  Si600  1  0.784886  0.411014  0.482441  1
  Si  Si601  1  0.215106  0.410993  0.482445  1
  Si  Si602  1  0.309082  0.434925  0.383681  1
  Si  Si603  1  0.690739  0.434951  0.383680  1
  Si  Si604  1  0.190740  0.064980  0.383675  1
  Si  Si605  1  0.809088  0.065009  0.383679  1
  Si  Si606  1  0.000000  0.218896  0.475399  1
  Si  Si607  1  0.000000  0.869253  0.353528  1
  Si  Si608  1  0.499912  0.630670  0.353531  1
  Si  Si609  1  0.000000  0.535224  0.339380  1
  Si  Si610  1  0.499914  0.879783  0.375381  1
  Si  Si611  1  0.000000  0.620144  0.375384  1
  Si  Si612  1  0.888040  0.576481  0.279443  1
  Si  Si613  1  0.111868  0.576478  0.279436  1
  Si  Si614  1  0.611886  0.923453  0.279434  1
  Si  Si615  1  0.388058  0.923457  0.279438  1
  Si  Si616  1  0.309089  0.934929  0.318525  1
  Si  Si617  1  0.690744  0.934942  0.318527  1
  Si  Si618  1  0.190734  0.564978  0.318529  1
  Si  Si619  1  0.809083  0.565006  0.318530  1
  Si  Si620  1  0.285557  0.668344  0.346550  1
  Si  Si621  1  0.714258  0.668374  0.346551  1
  Si  Si622  1  0.214258  0.831555  0.346543  1
  Si  Si623  1  0.785553  0.831585  0.346551  1
  Si  Si624  1  0.499913  0.964696  0.339376  1
  Si  Si625  1  0.499905  0.379780  0.326825  1
  Si  Si626  1  0.316928  0.182323  0.290814  1
  Si  Si627  1  0.682886  0.182333  0.290816  1
  Si  Si628  1  0.182880  0.317594  0.290817  1
  Si  Si629  1  0.816926  0.317610  0.290820  1
  Si  Si630  1  0.215010  0.088909  0.320399  1
  Si  Si631  1  0.784787  0.088937  0.320407  1
  Si  Si632  1  0.284788  0.410989  0.320408  1
  Si  Si633  1  0.715009  0.411025  0.320405  1
  Si  Si634  1  0.285551  0.168342  0.355651  1
  Si  Si635  1  0.714254  0.168374  0.355659  1
  Si  Si636  1  0.214256  0.331555  0.355661  1
  Si  Si637  1  0.785547  0.331586  0.355657  1
  Si  Si638  1  0.499905  0.464696  0.362830  1
  Si  Si639  1  -0.000000  0.035227  0.362826  1
  Si  Si640  1  0.499912  0.130671  0.348673  1
  Si  Si641  1  -0.000000  0.369251  0.348678  1
  Si  Si642  1  0.499901  0.218903  0.313360  1
  Si  Si643  1  0.000000  0.281029  0.313364  1
  Si  Si644  1  0.000000  0.120142  0.326822  1
  Si  Si645  1  0.388036  0.576484  0.765548  1
  Si  Si646  1  0.611864  0.576484  0.765550  1
  Si  Si647  1  0.111886  0.923454  0.765548  1
  Si  Si648  1  0.888057  0.923459  0.765545  1
  Si  Si649  1  0.316943  0.682322  0.735463  1
  Si  Si650  1  0.682896  0.682343  0.735465  1
  Si  Si651  1  0.182897  0.817596  0.735460  1
  Si  Si652  1  0.816941  0.817617  0.735462  1
  Si  Si653  1  0.215024  0.588912  0.705876  1
  Si  Si654  1  0.784800  0.588938  0.705876  1
  Si  Si655  1  0.284795  0.910990  0.705868  1
  Si  Si656  1  0.715017  0.911026  0.705877  1
  Si  Si657  1  0.499918  0.718903  0.712917  1
  Si  Si658  1  0.000000  0.781029  0.712915  1
  Si  Si659  1  0.888060  0.076484  0.746838  1
  Si  Si660  1  0.111889  0.076479  0.746841  1
  Si  Si661  1  0.611863  0.423458  0.746845  1
  Si  Si662  1  0.388034  0.423457  0.746842  1
  Si  Si663  1  0.309082  0.434925  0.707754  1
  Si  Si664  1  0.690739  0.434951  0.707753  1
  Si  Si665  1  0.190740  0.064980  0.707748  1
  Si  Si666  1  0.809088  0.065009  0.707752  1
  Si  Si667  1  -0.000000  0.869253  0.677602  1
  Si  Si668  1  0.499912  0.630670  0.677605  1
  Si  Si669  1  0.000000  0.535224  0.663453  1
  Si  Si670  1  0.499914  0.879783  0.699454  1
  Si  Si671  1  0.000000  0.620144  0.699457  1
  Si  Si672  1  0.888040  0.576481  0.603516  1
  Si  Si673  1  0.111868  0.576478  0.603510  1
  Si  Si674  1  0.611886  0.923453  0.603507  1
  Si  Si675  1  0.388058  0.923457  0.603512  1
  Si  Si676  1  0.309089  0.934929  0.642598  1
  Si  Si677  1  0.690744  0.934942  0.642600  1
  Si  Si678  1  0.190734  0.564978  0.642602  1
  Si  Si679  1  0.809083  0.565006  0.642603  1
  Si  Si680  1  0.285557  0.668344  0.670623  1
  Si  Si681  1  0.714258  0.668374  0.670624  1
  Si  Si682  1  0.214258  0.831555  0.670617  1
  Si  Si683  1  0.785553  0.831585  0.670625  1
  Si  Si684  1  0.499913  0.964696  0.663449  1
  Si  Si685  1  0.499905  0.379780  0.650899  1
  Si  Si686  1  0.316928  0.182323  0.614887  1
  Si  Si687  1  0.682886  0.182333  0.614889  1
  Si  Si688  1  0.182880  0.317594  0.614890  1
  Si  Si689  1  0.816926  0.317610  0.614893  1
  Si  Si690  1  0.215010  0.088909  0.644472  1
  Si  Si691  1  0.784787  0.088937  0.644481  1
  Si  Si692  1  0.284788  0.410989  0.644482  1
  Si  Si693  1  0.715009  0.411025  0.644478  1
  Si  Si694  1  0.285551  0.168342  0.679725  1
  Si  Si695  1  0.714254  0.168374  0.679732  1
  Si  Si696  1  0.214256  0.331555  0.679734  1
  Si  Si697  1  0.785547  0.331586  0.679730  1
  Si  Si698  1  0.499905  0.464696  0.686903  1
  Si  Si699  1  0.000000  0.035227  0.686900  1
  Si  Si700  1  0.499912  0.130671  0.672746  1
  Si  Si701  1  0.000000  0.369251  0.672752  1
  Si  Si702  1  0.499901  0.218903  0.637434  1
  Si  Si703  1  -0.000000  0.281029  0.637438  1
  Si  Si704  1  -0.000000  0.120142  0.650895  1
  H  H705  1  0.352075  0.638308  0.092060  1
  H  H706  1  0.647799  0.638311  0.092061  1
  H  H707  1  0.147817  0.861634  0.092057  1
  H  H708  1  0.852099  0.861636  0.092056  1
  H  H709  1  0.832761  0.079993  0.067879  1
  H  H710  1  0.167167  0.079962  0.067879  1
  H  H711  1  0.667143  0.419967  0.067883  1
  H  H712  1  0.332735  0.419950  0.067882  1
  H  H713  1  0.332758  0.579971  0.796363  1
  H  H714  1  0.667156  0.579984  0.796364  1
  H  H715  1  0.167186  0.919941  0.796361  1
  H  H716  1  0.832776  0.919965  0.796360  1
  H  H717  1  0.852126  0.138309  0.772181  1
  H  H718  1  0.147844  0.138306  0.772182  1
  H  H719  1  0.647826  0.361634  0.772186  1
  H  H720  1  0.352101  0.361636  0.772186  1
