# generated using pymatgen
data_Si19(HO10)4
_symmetry_space_group_name_H-M   'P 1'
_cell_length_a   19.41225325
_cell_length_b   11.34454198
_cell_length_c   38.14941656
_cell_angle_alpha   90.00000000
_cell_angle_beta   120.00000000
_cell_angle_gamma   90.00000000
_symmetry_Int_Tables_number   1
_chemical_formula_structural   Si19(HO10)4
_chemical_formula_sum   'Si38 H8 O80'
_cell_volume   7275.81163612
_cell_formula_units_Z   2
loop_
 _symmetry_equiv_pos_site_id
 _symmetry_equiv_pos_as_xyz
  1  'x, y, z'
loop_
 _atom_site_type_symbol
 _atom_site_label
 _atom_site_symmetry_multiplicity
 _atom_site_fract_x
 _atom_site_fract_y
 _atom_site_fract_z
 _atom_site_occupancy
  O  O1  1  0.458346  0.702740  0.246673  1
  O  O2  1  0.458399  0.297034  0.246771  1
  O  O3  1  0.457542  0.297342  0.175105  1
  O  O4  1  0.457518  0.703216  0.175011  1
  O  O5  1  0.700080  0.297075  0.174999  1
  O  O6  1  0.840813  0.296645  0.246244  1
  O  O7  1  0.840805  0.702937  0.246160  1
  O  O8  1  0.700057  0.703212  0.174931  1
  O  O9  1  0.511945  0.882558  0.224632  1
  O  O10  1  0.580211  0.314263  0.241729  1
  O  O11  1  0.709984  0.316425  0.241904  1
  O  O12  1  0.709947  0.683524  0.241824  1
  O  O13  1  0.580164  0.685841  0.241620  1
  O  O14  1  0.743233  0.882140  0.224623  1
  O  O15  1  0.624749  -0.000000  0.221635  1
  O  O16  1  0.743034  0.117826  0.224546  1
  O  O17  1  0.511950  0.117572  0.224528  1
  O  O18  1  0.664839  0.500082  0.263930  1
  O  O19  1  0.256604  0.882134  0.355325  1
  O  O20  1  0.256803  0.117832  0.355349  1
  O  O21  1  0.299780  0.297032  0.327640  1
  O  O22  1  0.159046  0.296644  0.327253  1
  O  O23  1  0.159055  0.702937  0.327173  1
  O  O24  1  0.299803  0.703256  0.327584  1
  O  O25  1  0.461904  0.499901  0.276717  1
  O  O26  1  0.358490  0.500143  0.329288  1
  O  O27  1  0.103322  0.500326  0.420549  1
  O  O28  1  0.103244  0.499723  0.328549  1
  O  O29  1  0.404345  0.338448  0.300050  1
  O  O30  1  0.375037  -0.000000  0.412630  1
  O  O31  1  0.404311  0.661586  0.299958  1
  O  O32  1  0.449803  0.342304  0.374829  1
  O  O33  1  0.101364  0.342089  0.374184  1
  O  O34  1  0.449859  0.658133  0.374750  1
  O  O35  1  0.101465  0.657979  0.374010  1
  O  O36  1  0.289874  0.316507  0.389496  1
  O  O37  1  0.289912  0.683443  0.389434  1
  O  O38  1  0.250666  -0.000000  0.412523  1
  O  O39  1  0.743589  0.882558  0.342238  1
  O  O40  1  0.841139  0.297302  0.369760  1
  O  O41  1  0.701072  0.297103  0.370086  1
  O  O42  1  0.701274  0.702938  0.370083  1
  O  O43  1  0.841177  0.703406  0.369587  1
  O  O44  1  0.896476  0.500326  0.367899  1
  O  O45  1  0.539321  0.500276  0.421267  1
  O  O46  1  0.642558  0.500103  0.368667  1
  O  O47  1  0.896595  0.499724  0.275945  1
  O  O48  1  0.000000  0.338852  0.397334  1
  O  O49  1  0.596792  0.338498  0.397986  1
  O  O50  1  0.596844  0.661859  0.397907  1
  O  O51  1  0.000000  0.338023  0.299371  1
  O  O52  1  0.743751  0.117821  0.342264  1
  O  O53  1  0.551333  0.341949  0.323177  1
  O  O54  1  0.898462  0.342097  0.322535  1
  O  O55  1  0.551267  0.658023  0.323087  1
  O  O56  1  0.898361  0.657972  0.322309  1
  O  O57  1  0.709705  0.315248  0.307775  1
  O  O58  1  0.709614  0.685172  0.307687  1
  O  O59  1  0.749106  -0.000000  0.284824  1
  O  O60  1  0.624913  -0.000000  0.284948  1
  O  O61  1  0.000000  0.661865  0.397109  1
  O  O62  1  0.000000  0.661429  0.299202  1
  O  O63  1  0.158653  0.297338  0.450590  1
  O  O64  1  0.298727  0.297143  0.522212  1
  O  O65  1  0.298526  0.702899  0.522105  1
  O  O66  1  0.158616  0.703369  0.450398  1
  O  O67  1  0.487795  0.882523  0.473004  1
  O  O68  1  0.290129  0.314943  0.455502  1
  O  O69  1  0.419636  0.314484  0.455364  1
  O  O70  1  0.419684  0.685618  0.455281  1
  O  O71  1  0.290222  0.685475  0.455461  1
  O  O72  1  0.374860  -0.000000  0.475853  1
  O  O73  1  0.255985  0.117781  0.472699  1
  O  O74  1  0.487790  0.117606  0.472899  1
  O  O75  1  0.256146  0.882598  0.472755  1
  O  O76  1  0.334623  0.500081  0.434565  1
  O  O77  1  0.541476  0.702734  0.522321  1
  O  O78  1  0.541422  0.297041  0.522391  1
  O  O79  1  0.542273  0.297303  0.451163  1
  O  O80  1  0.542297  0.703254  0.451080  1
  Si  Si81  1  0.496784  0.746000  0.220678  1
  Si  Si82  1  0.496813  0.254134  0.220725  1
  Si  Si83  1  0.750955  0.254284  0.220630  1
  Si  Si84  1  0.751014  0.745686  0.220602  1
  Si  Si85  1  0.718490  0.000000  0.237099  1
  Si  Si86  1  0.561560  0.000000  0.237220  1
  Si  Si87  1  0.666355  0.362459  0.263816  1
  Si  Si88  1  0.666315  0.637701  0.263760  1
  Si  Si89  1  0.466347  0.363881  0.285240  1
  Si  Si90  1  0.375249  0.364116  0.331588  1
  Si  Si91  1  0.090998  0.364265  0.412120  1
  Si  Si92  1  0.091006  0.363727  0.330944  1
  Si  Si93  1  0.091006  0.635791  0.330788  1
  Si  Si94  1  0.466313  0.635964  0.285159  1
  Si  Si95  1  0.375275  0.636159  0.331535  1
  Si  Si96  1  0.091006  0.636318  0.411951  1
  Si  Si97  1  0.248904  0.254280  0.347386  1
  Si  Si98  1  0.248846  0.745689  0.347327  1
  Si  Si99  1  0.281303  0.000000  0.380388  1
  Si  Si100  1  0.333475  0.637700  0.433584  1
  Si  Si101  1  0.333435  0.362459  0.433619  1
  Si  Si102  1  0.908814  0.364268  0.365743  1
  Si  Si103  1  0.534765  0.364219  0.412773  1
  Si  Si104  1  0.625819  0.364068  0.366401  1
  Si  Si105  1  0.908831  0.363727  0.284569  1
  Si  Si106  1  0.534812  0.636288  0.412703  1
  Si  Si107  1  0.625850  0.636150  0.366323  1
  Si  Si108  1  0.908831  0.635792  0.284414  1
  Si  Si109  1  0.908806  0.636317  0.365570  1
  Si  Si110  1  0.751513  0.254335  0.350087  1
  Si  Si111  1  0.751511  0.746029  0.350010  1
  Si  Si112  1  0.718743  -0.000000  0.317076  1
  Si  Si113  1  0.248260  0.254312  0.476552  1
  Si  Si114  1  0.248263  0.746051  0.476476  1
  Si  Si115  1  0.281023  0.000000  0.460229  1
  Si  Si116  1  0.438218  -0.000000  0.460370  1
  Si  Si117  1  0.503004  0.745974  0.476761  1
  Si  Si118  1  0.502974  0.254159  0.476792  1
  H  H119  1  0.457542  0.297342  0.151514  1
  H  H120  1  0.457518  0.703216  0.151419  1
  H  H121  1  0.700080  0.297075  0.151407  1
  H  H122  1  0.700057  0.703212  0.151339  1
  H  H123  1  0.298727  0.297143  0.545803  1
  H  H124  1  0.298526  0.702899  0.545697  1
  H  H125  1  0.541476  0.702734  0.545912  1
  H  H126  1  0.541422  0.297041  0.545982  1
