# generated using pymatgen
data_Si24H2O49
_symmetry_space_group_name_H-M   'P 1'
_cell_length_a   14.22215015
_cell_length_b   20.03147368
_cell_length_c   59.81716898
_cell_angle_alpha   90.00000000
_cell_angle_beta   90.00000000
_cell_angle_gamma   90.00000000
_symmetry_Int_Tables_number   1
_chemical_formula_structural   Si24H2O49
_chemical_formula_sum   'Si192 H16 O392'
_cell_volume   17041.350741
_cell_formula_units_Z   8
loop_
 _symmetry_equiv_pos_site_id
 _symmetry_equiv_pos_as_xyz
  1  'x, y, z'
loop_
 _atom_site_type_symbol
 _atom_site_label
 _atom_site_symmetry_multiplicity
 _atom_site_fract_x
 _atom_site_fract_y
 _atom_site_fract_z
 _atom_site_occupancy
  O  O1  1  0.000000  0.749964  0.685044  1
  O  O2  1  0.909978  0.845628  0.703879  1
  O  O3  1  0.090041  0.845801  0.703807  1
  O  O4  1  0.090071  0.654124  0.703807  1
  O  O5  1  0.910011  0.654218  0.703868  1
  O  O6  1  -0.000000  0.873132  0.669067  1
  O  O7  1  0.000000  0.626833  0.669061  1
  O  O8  1  0.903425  0.557445  0.641908  1
  O  O9  1  0.096021  0.558717  0.641699  1
  O  O10  1  0.095947  0.941251  0.641702  1
  O  O11  1  0.903359  0.942594  0.641927  1
  O  O12  1  0.786715  0.845482  0.734190  1
  O  O13  1  0.213151  0.845428  0.734161  1
  O  O14  1  0.213179  0.654537  0.734159  1
  O  O15  1  0.786719  0.654502  0.734167  1
  O  O16  1  0.739843  0.848103  0.691712  1
  O  O17  1  0.260240  0.848071  0.691719  1
  O  O18  1  0.260272  0.651915  0.691717  1
  O  O19  1  0.739921  0.651912  0.691684  1
  O  O20  1  0.812621  0.949935  0.710593  1
  O  O21  1  0.187522  0.949988  0.710617  1
  O  O22  1  0.187668  0.549973  0.710624  1
  O  O23  1  0.812402  0.549997  0.710601  1
  O  O24  1  0.759789  0.948924  0.614677  1
  O  O25  1  0.240483  0.949030  0.614738  1
  O  O26  1  0.240540  0.550911  0.614742  1
  O  O27  1  0.759779  0.550870  0.614697  1
  O  O28  1  0.747940  -0.000000  0.652570  1
  O  O29  1  0.754423  0.873743  0.650291  1
  O  O30  1  0.246104  0.874024  0.650359  1
  O  O31  1  0.246176  0.625967  0.650353  1
  O  O32  1  0.754539  0.626424  0.650238  1
  O  O33  1  0.594903  0.837406  0.664894  1
  O  O34  1  0.405256  0.837349  0.664931  1
  O  O35  1  0.405309  0.662681  0.664938  1
  O  O36  1  0.594985  0.662638  0.664878  1
  O  O37  1  0.725804  0.750050  0.664371  1
  O  O38  1  0.274375  0.749996  0.664352  1
  O  O39  1  0.590807  0.948978  0.602762  1
  O  O40  1  0.409378  0.949190  0.602865  1
  O  O41  1  0.409403  0.550835  0.602858  1
  O  O42  1  0.590835  0.551076  0.602772  1
  O  O43  1  0.500071  0.750017  0.644666  1
  O  O44  1  0.499928  0.874950  0.630893  1
  O  O45  1  0.499914  0.625079  0.630897  1
  O  O46  1  0.000000  0.500162  0.670744  1
  O  O47  1  0.000000  0.000000  0.670754  1
  O  O48  1  0.748080  0.500670  0.652723  1
  O  O49  1  0.500000  0.249971  0.620292  1
  O  O50  1  0.409948  0.345680  0.601468  1
  O  O51  1  0.590012  0.345780  0.601523  1
  O  O52  1  0.589976  0.154077  0.601533  1
  O  O53  1  0.409914  0.154264  0.601470  1
  O  O54  1  0.499598  0.373152  0.636266  1
  O  O55  1  0.499515  0.126835  0.636276  1
  O  O56  1  0.403351  0.057389  0.663414  1
  O  O57  1  0.595943  0.058718  0.663640  1
  O  O58  1  0.596008  0.441328  0.663619  1
  O  O59  1  0.403422  0.442582  0.663410  1
  O  O60  1  0.239855  0.348097  0.613644  1
  O  O61  1  0.760245  0.348085  0.613606  1
  O  O62  1  0.760169  0.151933  0.613637  1
  O  O63  1  0.239819  0.151889  0.613647  1
  O  O64  1  0.312558  0.449974  0.594749  1
  O  O65  1  0.687499  0.449984  0.594721  1
  O  O66  1  0.687722  0.049967  0.594710  1
  O  O67  1  0.312444  0.049998  0.594744  1
  O  O68  1  0.259816  0.449044  0.690642  1
  O  O69  1  0.740522  0.448993  0.690599  1
  O  O70  1  0.740516  0.050783  0.690582  1
  O  O71  1  0.259773  0.050881  0.690640  1
  O  O72  1  0.247953  -0.000000  0.652649  1
  O  O73  1  0.248009  0.499457  0.652673  1
  O  O74  1  0.254504  0.373643  0.655076  1
  O  O75  1  0.746148  0.374102  0.654958  1
  O  O76  1  0.746036  0.126068  0.655014  1
  O  O77  1  0.254439  0.126347  0.655083  1
  O  O78  1  0.094925  0.337377  0.640451  1
  O  O79  1  0.905276  0.337360  0.640403  1
  O  O80  1  0.905197  0.162662  0.640426  1
  O  O81  1  0.094875  0.162642  0.640446  1
  O  O82  1  0.225770  0.249995  0.640974  1
  O  O83  1  0.774329  0.250047  0.640984  1
  O  O84  1  0.090849  0.448947  0.702556  1
  O  O85  1  0.909420  0.449245  0.702479  1
  O  O86  1  0.909375  0.050799  0.702470  1
  O  O87  1  0.090833  0.051086  0.702558  1
  O  O88  1  0.214825  0.444821  0.733692  1
  O  O89  1  0.785492  0.444788  0.733645  1
  O  O90  1  0.785441  0.055106  0.733640  1
  O  O91  1  0.214811  0.055109  0.733695  1
  O  O92  1  -0.000000  0.250009  0.660676  1
  O  O93  1  0.000000  0.374946  0.674442  1
  O  O94  1  0.000000  0.125061  0.674442  1
  O  O95  1  0.500750  0.499850  0.634575  1
  O  O96  1  0.500761  -0.000000  0.634582  1
  O  O97  1  0.407454  0.955436  0.353525  1
  O  O98  1  0.592412  0.955411  0.353520  1
  O  O99  1  0.592417  0.544527  0.353517  1
  O  O100  1  0.407457  0.544550  0.353518  1
  O  O101  1  0.499926  0.500913  0.511340  1
  O  O102  1  0.499898  0.000000  0.511337  1
  O  O103  1  0.499867  0.876010  0.327281  1
  O  O104  1  0.499978  0.623943  0.327274  1
  O  O105  1  0.592690  0.838319  0.293062  1
  O  O106  1  0.407115  0.838293  0.293042  1
  O  O107  1  0.407166  0.661642  0.293054  1
  O  O108  1  0.592740  0.661664  0.293038  1
  O  O109  1  0.499925  0.749976  0.313682  1
  O  O110  1  0.000000  0.858044  0.481332  1
  O  O111  1  -0.000000  0.641935  0.481330  1
  O  O112  1  0.094001  0.842861  0.517014  1
  O  O113  1  0.905878  0.842830  0.516987  1
  O  O114  1  0.905901  0.657130  0.516991  1
  O  O115  1  0.094021  0.657107  0.517012  1
  O  O116  1  0.000000  0.948252  0.510461  1
  O  O117  1  0.000000  0.551718  0.510456  1
  O  O118  1  0.000000  0.948230  0.452593  1
  O  O119  1  -0.000000  0.551745  0.452592  1
  O  O120  1  0.910048  0.841501  0.444525  1
  O  O121  1  0.089726  0.841501  0.444505  1
  O  O122  1  0.089745  0.658461  0.444505  1
  O  O123  1  0.910066  0.658479  0.444519  1
  O  O124  1  0.260798  0.948803  0.379823  1
  O  O125  1  0.739038  0.948845  0.379830  1
  O  O126  1  0.739086  0.551169  0.379810  1
  O  O127  1  0.260838  0.551137  0.379831  1
  O  O128  1  0.294639  0.553082  0.475821  1
  O  O129  1  0.705146  0.553046  0.475811  1
  O  O130  1  0.705155  0.946922  0.475820  1
  O  O131  1  0.294653  0.946891  0.475821  1
  O  O132  1  0.245250  0.949364  0.336563  1
  O  O133  1  0.754667  0.949399  0.336580  1
  O  O134  1  0.754610  0.550595  0.336551  1
  O  O135  1  0.245201  0.550568  0.336579  1
  O  O136  1  0.286644  0.845379  0.261643  1
  O  O137  1  0.713094  0.845545  0.261679  1
  O  O138  1  0.713182  0.654599  0.261635  1
  O  O139  1  0.286738  0.654438  0.261672  1
  O  O140  1  0.239620  0.874574  0.301944  1
  O  O141  1  0.760212  0.874588  0.301974  1
  O  O142  1  0.760246  0.625381  0.301932  1
  O  O143  1  0.239652  0.625365  0.301968  1
  O  O144  1  0.279888  0.749958  0.290302  1
  O  O145  1  0.719963  0.749999  0.290300  1
  O  O146  1  0.784245  0.749971  0.522924  1
  O  O147  1  0.215606  0.749988  0.522964  1
  O  O148  1  0.747807  0.873669  0.535489  1
  O  O149  1  0.252027  0.873685  0.535547  1
  O  O150  1  0.252051  0.626290  0.535546  1
  O  O151  1  0.747842  0.626271  0.535498  1
  O  O152  1  0.755251  0.841577  0.494767  1
  O  O153  1  0.244637  0.841596  0.494812  1
  O  O154  1  0.244659  0.658386  0.494811  1
  O  O155  1  0.755265  0.658354  0.494773  1
  O  O156  1  0.738734  0.844671  0.452066  1
  O  O157  1  0.261003  0.844620  0.452098  1
  O  O158  1  0.261023  0.655354  0.452096  1
  O  O159  1  0.738760  0.655309  0.452070  1
  O  O160  1  0.802004  0.874130  0.412948  1
  O  O161  1  0.197909  0.874131  0.412961  1
  O  O162  1  0.197917  0.625836  0.412960  1
  O  O163  1  0.801993  0.625848  0.412947  1
  O  O164  1  0.807318  0.749988  0.428271  1
  O  O165  1  0.192503  0.749984  0.428275  1
  O  O166  1  0.089398  0.946963  0.388742  1
  O  O167  1  0.910469  0.946968  0.388726  1
  O  O168  1  0.910486  0.553007  0.388733  1
  O  O169  1  0.089415  0.553021  0.388728  1
  O  O170  1  0.201004  -0.000000  0.416418  1
  O  O171  1  0.094877  0.948955  0.314272  1
  O  O172  1  0.905044  0.948926  0.314284  1
  O  O173  1  0.904995  0.551011  0.314267  1
  O  O174  1  0.094829  0.551031  0.314280  1
  O  O175  1  0.714769  0.944818  0.571630  1
  O  O176  1  0.285432  0.944820  0.571695  1
  O  O177  1  0.285434  0.555136  0.571692  1
  O  O178  1  0.714803  0.555102  0.571637  1
  O  O179  1  0.594463  0.939744  0.540274  1
  O  O180  1  0.405381  0.939736  0.540288  1
  O  O181  1  0.405393  0.560220  0.540287  1
  O  O182  1  0.594475  0.560222  0.540281  1
  O  O183  1  0.591932  0.846854  0.477804  1
  O  O184  1  0.407866  0.846833  0.477810  1
  O  O185  1  0.407887  0.653118  0.477811  1
  O  O186  1  0.591952  0.653117  0.477806  1
  O  O187  1  -0.000000  0.961504  0.350833  1
  O  O188  1  -0.000000  0.538469  0.350830  1
  O  O189  1  0.499907  0.871842  0.512216  1
  O  O190  1  0.499929  0.628112  0.512217  1
  O  O191  1  0.499928  0.749978  0.495770  1
  O  O192  1  0.798917  0.000000  0.416416  1
  O  O193  1  0.249113  0.500454  0.534396  1
  O  O194  1  0.750724  0.500426  0.534345  1
  O  O195  1  0.750744  -0.000000  0.534344  1
  O  O196  1  0.249121  -0.000000  0.534399  1
  O  O197  1  0.407418  0.455440  0.479307  1
  O  O198  1  0.592375  0.455403  0.479302  1
  O  O199  1  0.592383  0.044563  0.479306  1
  O  O200  1  0.407421  0.044544  0.479309  1
  O  O201  1  0.499926  0.000000  0.321487  1
  O  O202  1  0.499926  0.499043  0.321483  1
  O  O203  1  0.499881  0.376008  0.505547  1
  O  O204  1  0.499896  0.123945  0.505556  1
  O  O205  1  0.592678  0.338310  0.539774  1
  O  O206  1  0.407103  0.338306  0.539777  1
  O  O207  1  0.407100  0.161661  0.539784  1
  O  O208  1  0.592674  0.161648  0.539788  1
  O  O209  1  0.499894  0.249974  0.519148  1
  O  O210  1  0.000000  0.358029  0.351492  1
  O  O211  1  0.000000  0.141944  0.351492  1
  O  O212  1  0.093973  0.342818  0.315830  1
  O  O213  1  0.905853  0.342866  0.315811  1
  O  O214  1  0.905892  0.157146  0.315827  1
  O  O215  1  0.094012  0.157100  0.315816  1
  O  O216  1  -0.000000  0.448243  0.322366  1
  O  O217  1  -0.000000  0.051723  0.322368  1
  O  O218  1  -0.000000  0.448221  0.380231  1
  O  O219  1  0.000000  0.051756  0.380232  1
  O  O220  1  0.910110  0.341502  0.388314  1
  O  O221  1  0.089790  0.341491  0.388306  1
  O  O222  1  0.089771  0.158479  0.388315  1
  O  O223  1  0.910089  0.158476  0.388308  1
  O  O224  1  0.260761  0.448818  0.453011  1
  O  O225  1  0.739000  0.448812  0.452988  1
  O  O226  1  0.739020  0.051158  0.452997  1
  O  O227  1  0.260774  0.051158  0.453012  1
  O  O228  1  0.294657  0.053055  0.357011  1
  O  O229  1  0.705156  0.053083  0.357005  1
  O  O230  1  0.705214  0.446909  0.357001  1
  O  O231  1  0.294702  0.446890  0.357010  1
  O  O232  1  0.245213  0.449421  0.496269  1
  O  O233  1  0.754631  0.449339  0.496240  1
  O  O234  1  0.754623  0.050645  0.496249  1
  O  O235  1  0.245213  0.050547  0.496270  1
  O  O236  1  0.286653  0.345486  0.571167  1
  O  O237  1  0.713100  0.345463  0.571164  1
  O  O238  1  0.713087  0.154554  0.571188  1
  O  O239  1  0.286622  0.154503  0.571168  1
  O  O240  1  0.239607  0.374601  0.530871  1
  O  O241  1  0.760197  0.374562  0.530864  1
  O  O242  1  0.760191  0.125383  0.530887  1
  O  O243  1  0.239607  0.125373  0.530872  1
  O  O244  1  0.279836  0.249988  0.542527  1
  O  O245  1  0.719911  0.249974  0.542529  1
  O  O246  1  0.784253  0.250001  0.309872  1
  O  O247  1  0.215619  0.249962  0.309882  1
  O  O248  1  0.747818  0.373696  0.297276  1
  O  O249  1  0.252028  0.373661  0.297323  1
  O  O250  1  0.252055  0.126265  0.297289  1
  O  O251  1  0.747842  0.126293  0.297318  1
  O  O252  1  0.755211  0.341626  0.338013  1
  O  O253  1  0.244606  0.341559  0.338048  1
  O  O254  1  0.244641  0.158336  0.338025  1
  O  O255  1  0.755251  0.158415  0.338041  1
  O  O256  1  0.738828  0.344627  0.380725  1
  O  O257  1  0.261096  0.344641  0.380751  1
  O  O258  1  0.261054  0.155336  0.380737  1
  O  O259  1  0.738785  0.155330  0.380746  1
  O  O260  1  0.801941  0.374136  0.419860  1
  O  O261  1  0.197871  0.374127  0.419875  1
  O  O262  1  0.197908  0.125838  0.419871  1
  O  O263  1  0.801981  0.125848  0.419871  1
  O  O264  1  0.807337  0.249990  0.404549  1
  O  O265  1  0.192534  0.249983  0.404556  1
  O  O266  1  0.089358  0.446957  0.444089  1
  O  O267  1  0.910427  0.446952  0.444092  1
  O  O268  1  0.910452  0.053032  0.444102  1
  O  O269  1  0.089382  0.053016  0.444089  1
  O  O270  1  0.798869  0.499992  0.416405  1
  O  O271  1  0.094835  0.448959  0.518555  1
  O  O272  1  0.905003  0.448918  0.518541  1
  O  O273  1  0.905004  0.051063  0.518544  1
  O  O274  1  0.094839  0.051005  0.518560  1
  O  O275  1  0.714494  0.444895  0.261138  1
  O  O276  1  0.285150  0.444761  0.261174  1
  O  O277  1  0.285334  0.055066  0.261149  1
  O  O278  1  0.714699  0.055172  0.261174  1
  O  O279  1  0.594451  0.439746  0.292532  1
  O  O280  1  0.405368  0.439734  0.292543  1
  O  O281  1  0.405418  0.060216  0.292536  1
  O  O282  1  0.594501  0.060216  0.292547  1
  O  O283  1  0.591974  0.346851  0.355009  1
  O  O284  1  0.407910  0.346836  0.355016  1
  O  O285  1  0.407892  0.153112  0.355015  1
  O  O286  1  0.591958  0.153140  0.355016  1
  O  O287  1  -0.000000  0.461495  0.481991  1
  O  O288  1  0.000000  0.038474  0.481996  1
  O  O289  1  0.499929  0.371846  0.320603  1
  O  O290  1  0.499933  0.128111  0.320606  1
  O  O291  1  0.499922  0.249982  0.337049  1
  O  O292  1  0.200967  0.499982  0.416417  1
  O  O293  1  0.249174  0.000000  0.298446  1
  O  O294  1  0.750784  -0.000000  0.298464  1
  O  O295  1  0.750709  0.499532  0.298434  1
  O  O296  1  0.249092  0.499502  0.298464  1
  O  O297  1  0.499883  0.749981  0.212531  1
  O  O298  1  0.409999  0.845740  0.231360  1
  O  O299  1  0.590058  0.845745  0.231304  1
  O  O300  1  0.589814  0.654229  0.231354  1
  O  O301  1  0.409754  0.654172  0.231296  1
  O  O302  1  0.499663  0.873151  0.196559  1
  O  O303  1  0.500175  0.626830  0.196550  1
  O  O304  1  0.403885  0.558548  0.169207  1
  O  O305  1  0.596481  0.557568  0.169385  1
  O  O306  1  0.595945  0.941456  0.169218  1
  O  O307  1  0.403348  0.942409  0.169397  1
  O  O308  1  0.239984  0.847784  0.219150  1
  O  O309  1  0.760350  0.848337  0.219249  1
  O  O310  1  0.759829  0.652181  0.219142  1
  O  O311  1  0.239463  0.651620  0.219243  1
  O  O312  1  0.312250  0.949867  0.238075  1
  O  O313  1  0.687283  0.950075  0.238111  1
  O  O314  1  0.687580  0.550105  0.238071  1
  O  O315  1  0.312453  0.549877  0.238118  1
  O  O316  1  0.259642  0.949027  0.142204  1
  O  O317  1  0.740364  0.949027  0.142211  1
  O  O318  1  0.740195  0.550940  0.142193  1
  O  O319  1  0.259458  0.550878  0.142212  1
  O  O320  1  0.247988  0.998908  0.180293  1
  O  O321  1  0.254654  0.873188  0.177700  1
  O  O322  1  0.746292  0.874485  0.177908  1
  O  O323  1  0.745163  0.626795  0.177689  1
  O  O324  1  0.253517  0.625502  0.177895  1
  O  O325  1  0.095101  0.837191  0.192361  1
  O  O326  1  0.905434  0.837497  0.192444  1
  O  O327  1  0.904713  0.662777  0.192352  1
  O  O328  1  0.094381  0.662480  0.192437  1
  O  O329  1  0.225625  0.749529  0.191847  1
  O  O330  1  0.774193  0.750447  0.191846  1
  O  O331  1  0.090695  0.948859  0.130286  1
  O  O332  1  0.909270  0.949271  0.130337  1
  O  O333  1  0.909146  0.551114  0.130278  1
  O  O334  1  0.090577  0.550717  0.130327  1
  O  O335  1  0.214713  0.944746  0.099145  1
  O  O336  1  0.785389  0.944854  0.099170  1
  O  O337  1  0.785177  0.555180  0.099133  1
  O  O338  1  0.214526  0.555051  0.099167  1
  O  O339  1  0.000000  0.749991  0.172155  1
  O  O340  1  0.000000  0.874929  0.158389  1
  O  O341  1  -0.000000  0.625055  0.158380  1
  O  O342  1  0.499328  0.500143  0.198235  1
  O  O343  1  0.500490  0.000000  0.198245  1
  O  O344  1  0.751835  0.501075  0.180285  1
  O  O345  1  -0.000000  0.249976  0.147776  1
  O  O346  1  0.909770  0.345773  0.129011  1
  O  O347  1  0.089827  0.345721  0.128950  1
  O  O348  1  0.090071  0.154177  0.129014  1
  O  O349  1  0.910012  0.154187  0.128959  1
  O  O350  1  -0.000000  0.373141  0.163754  1
  O  O351  1  -0.000000  0.126833  0.163761  1
  O  O352  1  0.903352  0.057592  0.190929  1
  O  O353  1  0.095944  0.058550  0.191107  1
  O  O354  1  0.096482  0.442407  0.190918  1
  O  O355  1  0.903889  0.441434  0.191095  1
  O  O356  1  0.786760  0.345526  0.098634  1
  O  O357  1  0.213210  0.345364  0.098671  1
  O  O358  1  0.213125  0.154420  0.098641  1
  O  O359  1  0.786668  0.154586  0.098677  1
  O  O360  1  0.739476  0.348340  0.141064  1
  O  O361  1  0.259838  0.347786  0.141165  1
  O  O362  1  0.260357  0.151615  0.141071  1
  O  O363  1  0.739996  0.152172  0.141170  1
  O  O364  1  0.812499  0.450081  0.122195  1
  O  O365  1  0.187561  0.449857  0.122238  1
  O  O366  1  0.187363  0.049870  0.122196  1
  O  O367  1  0.812195  0.050080  0.122235  1
  O  O368  1  0.759458  0.449077  0.218095  1
  O  O369  1  0.240184  0.449017  0.218113  1
  O  O370  1  0.240368  0.050901  0.218105  1
  O  O371  1  0.759624  0.050903  0.218111  1
  O  O372  1  0.748056  0.001092  0.180002  1
  O  O373  1  0.251851  0.498912  0.180030  1
  O  O374  1  0.753527  0.374479  0.182408  1
  O  O375  1  0.245172  0.373189  0.182615  1
  O  O376  1  0.246308  0.125503  0.182418  1
  O  O377  1  0.754655  0.126802  0.182626  1
  O  O378  1  0.594389  0.337499  0.167869  1
  O  O379  1  0.404721  0.337193  0.167952  1
  O  O380  1  0.405440  0.162483  0.167874  1
  O  O381  1  0.595109  0.162779  0.167959  1
  O  O382  1  0.725629  0.250447  0.168465  1
  O  O383  1  0.274194  0.249530  0.168466  1
  O  O384  1  0.590566  0.449265  0.229976  1
  O  O385  1  0.409136  0.448867  0.230029  1
  O  O386  1  0.409254  0.050721  0.229987  1
  O  O387  1  0.590687  0.051132  0.230034  1
  O  O388  1  0.499917  0.249994  0.188157  1
  O  O389  1  0.499794  0.374929  0.201926  1
  O  O390  1  0.500014  0.125063  0.201933  1
  O  O391  1  0.000000  0.000000  0.162080  1
  O  O392  1  0.000000  0.499835  0.162070  1
  Si  Si393  1  0.500087  0.673681  0.651544  1
  Si  Si394  1  0.500046  0.826355  0.651543  1
  Si  Si395  1  0.810074  0.872213  0.710248  1
  Si  Si396  1  0.189929  0.872257  0.710226  1
  Si  Si397  1  0.189981  0.627704  0.710223  1
  Si  Si398  1  0.810051  0.627723  0.710229  1
  Si  Si399  1  0.793014  0.940050  0.639580  1
  Si  Si400  1  0.206532  0.939841  0.639555  1
  Si  Si401  1  0.206607  0.560135  0.639557  1
  Si  Si402  1  0.793066  0.560004  0.639577  1
  Si  Si403  1  0.691459  0.972165  0.595584  1
  Si  Si404  1  0.308764  0.972214  0.595645  1
  Si  Si405  1  0.308805  0.527758  0.595642  1
  Si  Si406  1  0.691435  0.527778  0.595593  1
  Si  Si407  1  0.704625  0.826961  0.667817  1
  Si  Si408  1  0.295524  0.826933  0.667833  1
  Si  Si409  1  0.295564  0.673063  0.667832  1
  Si  Si410  1  0.704707  0.673118  0.667794  1
  Si  Si411  1  -0.000000  0.561477  0.654702  1
  Si  Si412  1  -0.000000  0.938499  0.654713  1
  Si  Si413  1  0.500197  0.558100  0.617304  1
  Si  Si414  1  0.500196  0.941933  0.617302  1
  Si  Si415  1  0.000000  0.827110  0.690193  1
  Si  Si416  1  -0.000000  0.672817  0.690195  1
  Si  Si417  1  0.000000  0.173673  0.653800  1
  Si  Si418  1  0.000000  0.326344  0.653797  1
  Si  Si419  1  0.310033  0.372248  0.595104  1
  Si  Si420  1  0.689895  0.372255  0.595104  1
  Si  Si421  1  0.689918  0.127698  0.595124  1
  Si  Si422  1  0.309982  0.127725  0.595106  1
  Si  Si423  1  0.293071  0.440020  0.665753  1
  Si  Si424  1  0.706589  0.439898  0.665775  1
  Si  Si425  1  0.706538  0.060155  0.665780  1
  Si  Si426  1  0.293000  0.059954  0.665751  1
  Si  Si427  1  0.191464  0.472176  0.709741  1
  Si  Si428  1  0.808775  0.472213  0.709696  1
  Si  Si429  1  0.808784  0.027712  0.709689  1
  Si  Si430  1  0.191419  0.027786  0.709742  1
  Si  Si431  1  0.204651  0.326917  0.637537  1
  Si  Si432  1  0.795542  0.326972  0.637493  1
  Si  Si433  1  0.795468  0.173102  0.637519  1
  Si  Si434  1  0.204613  0.173077  0.637538  1
  Si  Si435  1  0.499819  0.061463  0.650628  1
  Si  Si436  1  0.499874  0.438531  0.650615  1
  Si  Si437  1  -0.000000  0.058066  0.688027  1
  Si  Si438  1  0.000000  0.441942  0.688027  1
  Si  Si439  1  0.499934  0.327119  0.615142  1
  Si  Si440  1  0.499905  0.172823  0.615142  1
  Si  Si441  1  0.000000  0.525639  0.324909  1
  Si  Si442  1  -0.000000  0.974327  0.324912  1
  Si  Si443  1  -0.000000  0.525439  0.376721  1
  Si  Si444  1  0.000000  0.974538  0.376724  1
  Si  Si445  1  0.000000  0.628966  0.455569  1
  Si  Si446  1  0.302065  0.975330  0.357210  1
  Si  Si447  1  0.697773  0.975356  0.357215  1
  Si  Si448  1  0.697807  0.524634  0.357199  1
  Si  Si449  1  0.302092  0.524617  0.357216  1
  Si  Si450  1  0.189160  0.941062  0.399520  1
  Si  Si451  1  0.810728  0.941074  0.399514  1
  Si  Si452  1  0.810720  0.558913  0.399507  1
  Si  Si453  1  0.189159  0.558905  0.399518  1
  Si  Si454  1  0.702567  0.938171  0.545635  1
  Si  Si455  1  0.297321  0.938180  0.545690  1
  Si  Si456  1  0.297331  0.561787  0.545687  1
  Si  Si457  1  0.702581  0.561773  0.545642  1
  Si  Si458  1  0.696685  0.869419  0.474739  1
  Si  Si459  1  0.303100  0.869389  0.474763  1
  Si  Si460  1  0.303112  0.630583  0.474762  1
  Si  Si461  1  0.696702  0.630549  0.474740  1
  Si  Si462  1  0.797988  0.826540  0.518348  1
  Si  Si463  1  0.201890  0.826563  0.518392  1
  Si  Si464  1  0.201907  0.673412  0.518391  1
  Si  Si465  1  0.798002  0.673400  0.518353  1
  Si  Si466  1  0.812501  0.826539  0.433620  1
  Si  Si467  1  0.187322  0.826533  0.433628  1
  Si  Si468  1  0.187336  0.673433  0.433627  1
  Si  Si469  1  0.812509  0.673436  0.433619  1
  Si  Si470  1  0.205131  0.942284  0.312334  1
  Si  Si471  1  0.794783  0.942292  0.312353  1
  Si  Si472  1  0.794742  0.557674  0.312323  1
  Si  Si473  1  0.205091  0.557665  0.312351  1
  Si  Si474  1  0.300274  0.826682  0.286907  1
  Si  Si475  1  0.699534  0.826728  0.286931  1
  Si  Si476  1  0.699576  0.673278  0.286900  1
  Si  Si477  1  0.300318  0.673232  0.286926  1
  Si  Si478  1  0.499923  0.945073  0.339720  1
  Si  Si479  1  0.499937  0.554883  0.339716  1
  Si  Si480  1  0.499902  0.936557  0.526884  1
  Si  Si481  1  0.499923  0.563399  0.526886  1
  Si  Si482  1  0.499913  0.827105  0.490712  1
  Si  Si483  1  0.499928  0.672851  0.490714  1
  Si  Si484  1  0.499883  0.826403  0.306969  1
  Si  Si485  1  0.499967  0.673553  0.306964  1
  Si  Si486  1  0.000000  0.871196  0.507169  1
  Si  Si487  1  0.000000  0.628776  0.507167  1
  Si  Si488  1  0.000000  0.871010  0.455570  1
  Si  Si489  1  0.000000  0.025649  0.507918  1
  Si  Si490  1  0.000000  0.474322  0.507913  1
  Si  Si491  1  0.000000  0.025448  0.456105  1
  Si  Si492  1  0.000000  0.474527  0.456100  1
  Si  Si493  1  -0.000000  0.128976  0.377255  1
  Si  Si494  1  0.302040  0.475358  0.475621  1
  Si  Si495  1  0.697748  0.475318  0.475606  1
  Si  Si496  1  0.697759  0.024651  0.475613  1
  Si  Si497  1  0.302046  0.024616  0.475623  1
  Si  Si498  1  0.189126  0.441061  0.433315  1
  Si  Si499  1  0.810686  0.441065  0.433301  1
  Si  Si500  1  0.810712  0.058917  0.433312  1
  Si  Si501  1  0.189150  0.058910  0.433314  1
  Si  Si502  1  0.702521  0.438198  0.287138  1
  Si  Si503  1  0.297274  0.438155  0.287173  1
  Si  Si504  1  0.297341  0.061763  0.287149  1
  Si  Si505  1  0.702591  0.061794  0.287173  1
  Si  Si506  1  0.696738  0.369408  0.358061  1
  Si  Si507  1  0.303151  0.369387  0.358079  1
  Si  Si508  1  0.303131  0.130556  0.358071  1
  Si  Si509  1  0.696718  0.130587  0.358075  1
  Si  Si510  1  0.797961  0.326583  0.314433  1
  Si  Si511  1  0.201865  0.326526  0.314465  1
  Si  Si512  1  0.201906  0.173380  0.314444  1
  Si  Si513  1  0.798000  0.173438  0.314459  1
  Si  Si514  1  0.812517  0.326537  0.399193  1
  Si  Si515  1  0.187348  0.326533  0.399205  1
  Si  Si516  1  0.187353  0.173434  0.399202  1
  Si  Si517  1  0.812521  0.173438  0.399201  1
  Si  Si518  1  0.205092  0.442325  0.520496  1
  Si  Si519  1  0.794745  0.442251  0.520469  1
  Si  Si520  1  0.794745  0.057717  0.520477  1
  Si  Si521  1  0.205096  0.057646  0.520498  1
  Si  Si522  1  0.300256  0.326712  0.545909  1
  Si  Si523  1  0.699517  0.326703  0.545907  1
  Si  Si524  1  0.699509  0.173252  0.545926  1
  Si  Si525  1  0.300250  0.173263  0.545911  1
  Si  Si526  1  0.499900  0.445072  0.493106  1
  Si  Si527  1  0.499903  0.054896  0.493109  1
  Si  Si528  1  0.499924  0.436560  0.305935  1
  Si  Si529  1  0.499944  0.063396  0.305939  1
  Si  Si530  1  0.499936  0.327109  0.342107  1
  Si  Si531  1  0.499921  0.172855  0.342108  1
  Si  Si532  1  0.499887  0.326402  0.525858  1
  Si  Si533  1  0.499895  0.173552  0.525868  1
  Si  Si534  1  0.000000  0.371186  0.325655  1
  Si  Si535  1  -0.000000  0.128781  0.325655  1
  Si  Si536  1  0.000000  0.371001  0.377254  1
  Si  Si537  1  0.000000  0.826326  0.179036  1
  Si  Si538  1  -0.000000  0.673652  0.179029  1
  Si  Si539  1  0.309971  0.872137  0.237701  1
  Si  Si540  1  0.689852  0.872349  0.237744  1
  Si  Si541  1  0.689846  0.627834  0.237693  1
  Si  Si542  1  0.309947  0.627603  0.237738  1
  Si  Si543  1  0.292983  0.939727  0.167071  1
  Si  Si544  1  0.706513  0.940140  0.167054  1
  Si  Si545  1  0.706846  0.560251  0.167059  1
  Si  Si546  1  0.293311  0.559833  0.167050  1
  Si  Si547  1  0.191300  0.972081  0.123097  1
  Si  Si548  1  0.808635  0.972289  0.123120  1
  Si  Si549  1  0.808549  0.527872  0.123090  1
  Si  Si550  1  0.191199  0.527646  0.123116  1
  Si  Si551  1  0.204791  0.826518  0.195265  1
  Si  Si552  1  0.795664  0.827309  0.195356  1
  Si  Si553  1  0.795024  0.673455  0.195256  1
  Si  Si554  1  0.204153  0.672664  0.195350  1
  Si  Si555  1  0.500043  0.561464  0.182195  1
  Si  Si556  1  0.499789  0.938521  0.182207  1
  Si  Si557  1  0.000000  0.558067  0.144792  1
  Si  Si558  1  0.000000  0.941918  0.144801  1
  Si  Si559  1  0.499958  0.827127  0.217684  1
  Si  Si560  1  0.499845  0.672833  0.217681  1
  Si  Si561  1  0.500151  0.173655  0.181282  1
  Si  Si562  1  0.499677  0.326329  0.181277  1
  Si  Si563  1  0.809969  0.372355  0.122569  1
  Si  Si564  1  0.189854  0.372127  0.122611  1
  Si  Si565  1  0.189879  0.127596  0.122575  1
  Si  Si566  1  0.809973  0.127810  0.122619  1
  Si  Si567  1  0.793317  0.440143  0.193256  1
  Si  Si568  1  0.206845  0.439725  0.193246  1
  Si  Si569  1  0.206516  0.059839  0.193266  1
  Si  Si570  1  0.792982  0.060250  0.193249  1
  Si  Si571  1  0.691194  0.472316  0.237189  1
  Si  Si572  1  0.308530  0.472086  0.237218  1
  Si  Si573  1  0.308630  0.027657  0.237199  1
  Si  Si574  1  0.691279  0.027864  0.237218  1
  Si  Si575  1  0.704159  0.327310  0.164957  1
  Si  Si576  1  0.295031  0.326519  0.165050  1
  Si  Si577  1  0.295668  0.172665  0.164962  1
  Si  Si578  1  0.704798  0.173455  0.165054  1
  Si  Si579  1  0.000000  0.061471  0.178118  1
  Si  Si580  1  0.000000  0.438510  0.178107  1
  Si  Si581  1  0.499994  0.058077  0.215522  1
  Si  Si582  1  0.499819  0.441916  0.215515  1
  Si  Si583  1  0.000000  0.327123  0.142627  1
  Si  Si584  1  -0.000000  0.172827  0.142629  1
  H  H585  1  0.786715  0.845482  0.749236  1
  H  H586  1  0.213151  0.845428  0.749207  1
  H  H587  1  0.213179  0.654537  0.749205  1
  H  H588  1  0.786719  0.654502  0.749213  1
  H  H589  1  0.214825  0.444821  0.748738  1
  H  H590  1  0.785492  0.444788  0.748691  1
  H  H591  1  0.785441  0.055106  0.748686  1
  H  H592  1  0.214811  0.055109  0.748741  1
  H  H593  1  0.214713  0.944746  0.084099  1
  H  H594  1  0.785389  0.944854  0.084124  1
  H  H595  1  0.785177  0.555180  0.084087  1
  H  H596  1  0.214526  0.555051  0.084121  1
  H  H597  1  0.786760  0.345526  0.083588  1
  H  H598  1  0.213210  0.345364  0.083625  1
  H  H599  1  0.213125  0.154420  0.083596  1
  H  H600  1  0.786668  0.154586  0.083632  1
