# generated using pymatgen
data_Si48H2O97
_symmetry_space_group_name_H-M   'P 1'
_cell_length_a   16.21908833
_cell_length_b   9.78145438
_cell_length_c   90.59937564
_cell_angle_alpha   90.00000000
_cell_angle_beta   90.00000000
_cell_angle_gamma   90.00000000
_symmetry_Int_Tables_number   1
_chemical_formula_structural   Si48H2O97
_chemical_formula_sum   'Si192 H8 O388'
_cell_volume   14373.2532436
_cell_formula_units_Z   4
loop_
 _symmetry_equiv_pos_site_id
 _symmetry_equiv_pos_as_xyz
  1  'x, y, z'
loop_
 _atom_site_type_symbol
 _atom_site_label
 _atom_site_symmetry_multiplicity
 _atom_site_fract_x
 _atom_site_fract_y
 _atom_site_fract_z
 _atom_site_occupancy
  O  O1  1  0.613925  0.051013  0.065122  1
  O  O2  1  0.613925  0.551013  0.065122  1
  O  O3  1  0.409411  0.172750  0.112734  1
  O  O4  1  0.590737  0.327129  0.112728  1
  O  O5  1  0.909429  0.077137  0.144083  1
  O  O6  1  0.090743  0.422766  0.144086  1
  O  O7  1  0.590689  0.326900  0.270644  1
  O  O8  1  0.409372  0.172515  0.270651  1
  O  O9  1  0.090682  0.422515  0.239300  1
  O  O10  1  0.909379  0.076893  0.239298  1
  O  O11  1  0.500087  0.000000  0.125840  1
  O  O12  1  -0.000000  0.250005  0.130975  1
  O  O13  1  0.500030  0.000000  0.257538  1
  O  O14  1  -0.000000  0.249674  0.252410  1
  O  O15  1  0.500086  0.249969  0.133274  1
  O  O16  1  0.000000  -0.000000  0.123540  1
  O  O17  1  0.500016  0.249697  0.250103  1
  O  O18  1  0.000000  0.000000  0.259844  1
  O  O19  1  0.370140  0.089202  0.137749  1
  O  O20  1  0.630037  0.410730  0.137743  1
  O  O21  1  0.870138  0.160734  0.119066  1
  O  O22  1  0.130025  0.339210  0.119070  1
  O  O23  1  0.629974  0.410445  0.245628  1
  O  O24  1  0.370070  0.088921  0.245637  1
  O  O25  1  0.129970  0.338921  0.264318  1
  O  O26  1  0.870076  0.160440  0.264313  1
  O  O27  1  0.268199  0.423066  0.126443  1
  O  O28  1  0.731957  0.076936  0.126440  1
  O  O29  1  0.768216  0.326936  0.130366  1
  O  O30  1  0.231962  0.173067  0.130377  1
  O  O31  1  0.731907  0.076590  0.256936  1
  O  O32  1  0.268151  0.422724  0.256943  1
  O  O33  1  0.231891  0.172725  0.253015  1
  O  O34  1  0.768148  0.326589  0.253004  1
  O  O35  1  0.230898  0.002192  0.151479  1
  O  O36  1  0.769277  0.497724  0.151474  1
  O  O37  1  0.730893  0.247734  0.105334  1
  O  O38  1  0.269258  0.252196  0.105342  1
  O  O39  1  0.769231  0.497447  0.231901  1
  O  O40  1  0.230837  0.001911  0.231909  1
  O  O41  1  0.269211  0.251895  0.278047  1
  O  O42  1  0.730831  0.247439  0.278039  1
  O  O43  1  0.500060  0.000000  0.082791  1
  O  O44  1  0.000000  0.249966  0.174028  1
  O  O45  1  0.500020  0.000000  0.300589  1
  O  O46  1  0.000000  0.249658  0.209354  1
  O  O47  1  0.643621  0.417280  0.088853  1
  O  O48  1  0.356513  0.082706  0.088852  1
  O  O49  1  0.143637  0.332688  0.167968  1
  O  O50  1  0.856536  0.167245  0.167960  1
  O  O51  1  0.356460  0.082285  0.294521  1
  O  O52  1  0.643566  0.416912  0.294528  1
  O  O53  1  0.856509  0.166943  0.215413  1
  O  O54  1  0.143608  0.332329  0.215429  1
  O  O55  1  0.608385  0.168086  0.090433  1
  O  O56  1  0.391773  0.331909  0.090455  1
  O  O57  1  0.108387  0.081889  0.166370  1
  O  O58  1  0.891770  0.418052  0.166378  1
  O  O59  1  0.391713  0.331479  0.292952  1
  O  O60  1  0.608306  0.167708  0.292923  1
  O  O61  1  0.891761  0.417742  0.217014  1
  O  O62  1  0.108358  0.081522  0.217000  1
  O  O63  1  0.613925  0.051013  0.318244  1
  O  O64  1  0.386148  0.448629  0.065136  1
  O  O65  1  0.113969  0.198657  0.191690  1
  O  O66  1  0.886187  0.300999  0.191693  1
  O  O67  1  0.409411  0.672749  0.112734  1
  O  O68  1  0.590737  0.827128  0.112728  1
  O  O69  1  0.909429  0.577137  0.144083  1
  O  O70  1  0.090743  0.922765  0.144086  1
  O  O71  1  0.590688  0.826900  0.270644  1
  O  O72  1  0.409372  0.672516  0.270651  1
  O  O73  1  0.090682  0.922515  0.239300  1
  O  O74  1  0.909379  0.576893  0.239298  1
  O  O75  1  0.500087  0.499965  0.125840  1
  O  O76  1  -0.000000  0.750005  0.130975  1
  O  O77  1  0.500030  0.499702  0.257538  1
  O  O78  1  0.000000  0.749674  0.252410  1
  O  O79  1  0.500086  0.749969  0.133275  1
  O  O80  1  -0.000000  0.500007  0.123540  1
  O  O81  1  0.500016  0.749697  0.250103  1
  O  O82  1  0.000000  0.499671  0.259844  1
  O  O83  1  0.370141  0.589201  0.137749  1
  O  O84  1  0.630037  0.910729  0.137743  1
  O  O85  1  0.870138  0.660734  0.119066  1
  O  O86  1  0.130025  0.839210  0.119070  1
  O  O87  1  0.629974  0.910445  0.245628  1
  O  O88  1  0.370070  0.588922  0.245637  1
  O  O89  1  0.129970  0.838921  0.264318  1
  O  O90  1  0.870076  0.660440  0.264313  1
  O  O91  1  0.268199  0.923066  0.126443  1
  O  O92  1  0.731957  0.576936  0.126440  1
  O  O93  1  0.768216  0.826936  0.130366  1
  O  O94  1  0.231962  0.673067  0.130377  1
  O  O95  1  0.731907  0.576590  0.256936  1
  O  O96  1  0.268151  0.922724  0.256943  1
  O  O97  1  0.231891  0.672725  0.253015  1
  O  O98  1  0.768148  0.826589  0.253004  1
  O  O99  1  0.230899  0.502193  0.151479  1
  O  O100  1  0.769277  0.997723  0.151474  1
  O  O101  1  0.730893  0.747734  0.105334  1
  O  O102  1  0.269258  0.752196  0.105342  1
  O  O103  1  0.769231  0.997448  0.231901  1
  O  O104  1  0.230838  0.501911  0.231909  1
  O  O105  1  0.269211  0.751896  0.278047  1
  O  O106  1  0.730831  0.747439  0.278039  1
  O  O107  1  0.500060  0.499984  0.082791  1
  O  O108  1  0.000000  0.749967  0.174028  1
  O  O109  1  0.500020  0.499630  0.300589  1
  O  O110  1  0.000000  0.749659  0.209354  1
  O  O111  1  0.643622  0.917280  0.088853  1
  O  O112  1  0.356513  0.582706  0.088852  1
  O  O113  1  0.143637  0.832688  0.167968  1
  O  O114  1  0.856537  0.667245  0.167960  1
  O  O115  1  0.356459  0.582285  0.294521  1
  O  O116  1  0.643566  0.916912  0.294528  1
  O  O117  1  0.856509  0.666943  0.215413  1
  O  O118  1  0.143608  0.832329  0.215429  1
  O  O119  1  0.608385  0.668086  0.090433  1
  O  O120  1  0.391773  0.831909  0.090455  1
  O  O121  1  0.108388  0.581889  0.166370  1
  O  O122  1  0.891770  0.918052  0.166378  1
  O  O123  1  0.391713  0.831479  0.292952  1
  O  O124  1  0.608305  0.667708  0.292923  1
  O  O125  1  0.891761  0.917743  0.217014  1
  O  O126  1  0.108358  0.581522  0.217000  1
  O  O127  1  0.613925  0.551013  0.318244  1
  O  O128  1  0.386148  0.948629  0.065136  1
  O  O129  1  0.113969  0.698657  0.191690  1
  O  O130  1  0.886187  0.801000  0.191693  1
  O  O131  1  0.409411  0.172750  0.365856  1
  O  O132  1  0.590737  0.327129  0.365850  1
  O  O133  1  0.909429  0.077137  0.397205  1
  O  O134  1  0.090743  0.422766  0.397208  1
  O  O135  1  0.590689  0.326900  0.523766  1
  O  O136  1  0.409372  0.172515  0.523773  1
  O  O137  1  0.090682  0.422515  0.492423  1
  O  O138  1  0.909379  0.076893  0.492420  1
  O  O139  1  0.500087  -0.000000  0.378962  1
  O  O140  1  0.000000  0.250005  0.384097  1
  O  O141  1  0.500030  0.000000  0.510660  1
  O  O142  1  0.000000  0.249674  0.505532  1
  O  O143  1  0.500086  0.249969  0.386397  1
  O  O144  1  0.000000  0.000000  0.376662  1
  O  O145  1  0.500016  0.249697  0.503226  1
  O  O146  1  0.000000  -0.000000  0.512966  1
  O  O147  1  0.370140  0.089202  0.390872  1
  O  O148  1  0.630037  0.410730  0.390865  1
  O  O149  1  0.870138  0.160734  0.372188  1
  O  O150  1  0.130025  0.339210  0.372192  1
  O  O151  1  0.629974  0.410445  0.498750  1
  O  O152  1  0.370070  0.088921  0.498760  1
  O  O153  1  0.129970  0.338921  0.517440  1
  O  O154  1  0.870076  0.160440  0.517435  1
  O  O155  1  0.268199  0.423066  0.379565  1
  O  O156  1  0.731957  0.076936  0.379562  1
  O  O157  1  0.768216  0.326936  0.383488  1
  O  O158  1  0.231962  0.173067  0.383500  1
  O  O159  1  0.731907  0.076590  0.510058  1
  O  O160  1  0.268151  0.422724  0.510065  1
  O  O161  1  0.231891  0.172725  0.506137  1
  O  O162  1  0.768148  0.326589  0.506126  1
  O  O163  1  0.230898  0.002192  0.404601  1
  O  O164  1  0.769277  0.497724  0.404596  1
  O  O165  1  0.730893  0.247734  0.358456  1
  O  O166  1  0.269258  0.252196  0.358464  1
  O  O167  1  0.769231  0.497447  0.485023  1
  O  O168  1  0.230837  0.001911  0.485031  1
  O  O169  1  0.269211  0.251895  0.531170  1
  O  O170  1  0.730831  0.247439  0.531161  1
  O  O171  1  0.500060  0.000000  0.335913  1
  O  O172  1  -0.000000  0.249966  0.427151  1
  O  O173  1  0.500020  0.000000  0.553711  1
  O  O174  1  -0.000000  0.249658  0.462476  1
  O  O175  1  0.643621  0.417280  0.341975  1
  O  O176  1  0.356513  0.082706  0.341974  1
  O  O177  1  0.143637  0.332688  0.421090  1
  O  O178  1  0.856536  0.167245  0.421082  1
  O  O179  1  0.356460  0.082285  0.547643  1
  O  O180  1  0.643566  0.416912  0.547651  1
  O  O181  1  0.856509  0.166943  0.468535  1
  O  O182  1  0.143608  0.332329  0.468551  1
  O  O183  1  0.608385  0.168086  0.343555  1
  O  O184  1  0.391773  0.331909  0.343577  1
  O  O185  1  0.108387  0.081889  0.419493  1
  O  O186  1  0.891770  0.418052  0.419500  1
  O  O187  1  0.391713  0.331479  0.546074  1
  O  O188  1  0.608306  0.167708  0.546045  1
  O  O189  1  0.891761  0.417742  0.470136  1
  O  O190  1  0.108358  0.081522  0.470122  1
  O  O191  1  0.613925  0.051013  0.571366  1
  O  O192  1  0.386148  0.448629  0.318258  1
  O  O193  1  0.113969  0.198657  0.444812  1
  O  O194  1  0.886187  0.300999  0.444815  1
  O  O195  1  0.409411  0.672749  0.365856  1
  O  O196  1  0.590737  0.827128  0.365850  1
  O  O197  1  0.909429  0.577137  0.397205  1
  O  O198  1  0.090743  0.922765  0.397208  1
  O  O199  1  0.590688  0.826900  0.523766  1
  O  O200  1  0.409372  0.672516  0.523773  1
  O  O201  1  0.090682  0.922515  0.492423  1
  O  O202  1  0.909379  0.576893  0.492420  1
  O  O203  1  0.500087  0.499965  0.378962  1
  O  O204  1  -0.000000  0.750005  0.384097  1
  O  O205  1  0.500030  0.499702  0.510660  1
  O  O206  1  -0.000000  0.749674  0.505532  1
  O  O207  1  0.500086  0.749969  0.386397  1
  O  O208  1  -0.000000  0.500007  0.376662  1
  O  O209  1  0.500016  0.749697  0.503226  1
  O  O210  1  -0.000000  0.499671  0.512967  1
  O  O211  1  0.370141  0.589201  0.390872  1
  O  O212  1  0.630037  0.910729  0.390865  1
  O  O213  1  0.870138  0.660734  0.372188  1
  O  O214  1  0.130025  0.839210  0.372192  1
  O  O215  1  0.629974  0.910445  0.498750  1
  O  O216  1  0.370070  0.588922  0.498760  1
  O  O217  1  0.129970  0.838921  0.517440  1
  O  O218  1  0.870076  0.660440  0.517435  1
  O  O219  1  0.268199  0.923066  0.379565  1
  O  O220  1  0.731957  0.576936  0.379562  1
  O  O221  1  0.768216  0.826936  0.383488  1
  O  O222  1  0.231962  0.673067  0.383500  1
  O  O223  1  0.731907  0.576590  0.510058  1
  O  O224  1  0.268151  0.922724  0.510065  1
  O  O225  1  0.231891  0.672725  0.506137  1
  O  O226  1  0.768148  0.826589  0.506126  1
  O  O227  1  0.230899  0.502193  0.404601  1
  O  O228  1  0.769277  0.997723  0.404596  1
  O  O229  1  0.730893  0.747734  0.358456  1
  O  O230  1  0.269258  0.752196  0.358464  1
  O  O231  1  0.769231  0.997448  0.485023  1
  O  O232  1  0.230838  0.501911  0.485031  1
  O  O233  1  0.269211  0.751896  0.531170  1
  O  O234  1  0.730831  0.747439  0.531161  1
  O  O235  1  0.500060  0.499984  0.335913  1
  O  O236  1  -0.000000  0.749967  0.427151  1
  O  O237  1  0.500020  0.499630  0.553711  1
  O  O238  1  -0.000000  0.749659  0.462476  1
  O  O239  1  0.643622  0.917280  0.341975  1
  O  O240  1  0.356513  0.582706  0.341974  1
  O  O241  1  0.143637  0.832688  0.421090  1
  O  O242  1  0.856537  0.667245  0.421082  1
  O  O243  1  0.356459  0.582285  0.547643  1
  O  O244  1  0.643566  0.916912  0.547651  1
  O  O245  1  0.856509  0.666943  0.468535  1
  O  O246  1  0.143608  0.832329  0.468551  1
  O  O247  1  0.608385  0.668086  0.343555  1
  O  O248  1  0.391773  0.831909  0.343577  1
  O  O249  1  0.108388  0.581889  0.419493  1
  O  O250  1  0.891770  0.918052  0.419500  1
  O  O251  1  0.391713  0.831479  0.546074  1
  O  O252  1  0.608305  0.667708  0.546045  1
  O  O253  1  0.891761  0.917743  0.470136  1
  O  O254  1  0.108358  0.581522  0.470122  1
  O  O255  1  0.613925  0.551013  0.571366  1
  O  O256  1  0.386148  0.948629  0.318258  1
  O  O257  1  0.113969  0.698657  0.444812  1
  O  O258  1  0.886187  0.801000  0.444815  1
  O  O259  1  0.409411  0.172750  0.618978  1
  O  O260  1  0.590737  0.327129  0.618973  1
  O  O261  1  0.909429  0.077137  0.650327  1
  O  O262  1  0.090743  0.422766  0.650330  1
  O  O263  1  0.590689  0.326900  0.776889  1
  O  O264  1  0.409372  0.172515  0.776895  1
  O  O265  1  0.090682  0.422515  0.745545  1
  O  O266  1  0.909379  0.076893  0.745542  1
  O  O267  1  0.500087  0.000000  0.632084  1
  O  O268  1  -0.000000  0.250005  0.637219  1
  O  O269  1  0.500030  0.000000  0.763782  1
  O  O270  1  0.000000  0.249674  0.758654  1
  O  O271  1  0.500086  0.249969  0.639519  1
  O  O272  1  -0.000000  0.000000  0.629784  1
  O  O273  1  0.500016  0.249697  0.756348  1
  O  O274  1  0.000000  0.000000  0.766088  1
  O  O275  1  0.370140  0.089202  0.643994  1
  O  O276  1  0.630037  0.410730  0.643988  1
  O  O277  1  0.870138  0.160734  0.625310  1
  O  O278  1  0.130025  0.339210  0.625314  1
  O  O279  1  0.629974  0.410445  0.751873  1
  O  O280  1  0.370070  0.088921  0.751882  1
  O  O281  1  0.129970  0.338921  0.770562  1
  O  O282  1  0.870076  0.160440  0.770557  1
  O  O283  1  0.268199  0.423066  0.632687  1
  O  O284  1  0.731957  0.076936  0.632684  1
  O  O285  1  0.768216  0.326936  0.636611  1
  O  O286  1  0.231962  0.173067  0.636622  1
  O  O287  1  0.731907  0.076590  0.763180  1
  O  O288  1  0.268151  0.422724  0.763188  1
  O  O289  1  0.231891  0.172725  0.759259  1
  O  O290  1  0.768148  0.326589  0.759248  1
  O  O291  1  0.230898  0.002192  0.657723  1
  O  O292  1  0.769277  0.497724  0.657718  1
  O  O293  1  0.730893  0.247734  0.611578  1
  O  O294  1  0.269258  0.252196  0.611586  1
  O  O295  1  0.769231  0.497447  0.738145  1
  O  O296  1  0.230837  0.001911  0.738154  1
  O  O297  1  0.269211  0.251895  0.784292  1
  O  O298  1  0.730831  0.247439  0.784283  1
  O  O299  1  0.500060  0.000000  0.589035  1
  O  O300  1  -0.000000  0.249966  0.680273  1
  O  O301  1  0.500020  0.000000  0.806833  1
  O  O302  1  0.000000  0.249658  0.715599  1
  O  O303  1  0.643621  0.417280  0.595098  1
  O  O304  1  0.356513  0.082706  0.595096  1
  O  O305  1  0.143637  0.332688  0.674212  1
  O  O306  1  0.856536  0.167245  0.674204  1
  O  O307  1  0.356460  0.082285  0.800766  1
  O  O308  1  0.643566  0.416912  0.800773  1
  O  O309  1  0.856509  0.166943  0.721657  1
  O  O310  1  0.143608  0.332329  0.721673  1
  O  O311  1  0.608385  0.168086  0.596677  1
  O  O312  1  0.391773  0.331909  0.596699  1
  O  O313  1  0.108387  0.081889  0.672615  1
  O  O314  1  0.891770  0.418052  0.672622  1
  O  O315  1  0.391713  0.331479  0.799196  1
  O  O316  1  0.608306  0.167708  0.799167  1
  O  O317  1  0.891761  0.417742  0.723259  1
  O  O318  1  0.108358  0.081522  0.723244  1
  O  O319  1  0.613925  0.051013  0.824488  1
  O  O320  1  0.386148  0.448629  0.571380  1
  O  O321  1  0.113969  0.198657  0.697934  1
  O  O322  1  0.886187  0.300999  0.697937  1
  O  O323  1  0.409411  0.672749  0.618978  1
  O  O324  1  0.590737  0.827128  0.618973  1
  O  O325  1  0.909429  0.577137  0.650327  1
  O  O326  1  0.090743  0.922765  0.650330  1
  O  O327  1  0.590688  0.826900  0.776889  1
  O  O328  1  0.409372  0.672516  0.776895  1
  O  O329  1  0.090682  0.922515  0.745545  1
  O  O330  1  0.909379  0.576893  0.745542  1
  O  O331  1  0.500087  0.499965  0.632084  1
  O  O332  1  0.000000  0.750005  0.637219  1
  O  O333  1  0.500030  0.499702  0.763782  1
  O  O334  1  0.000000  0.749674  0.758654  1
  O  O335  1  0.500086  0.749969  0.639519  1
  O  O336  1  0.000000  0.500007  0.629784  1
  O  O337  1  0.500016  0.749697  0.756348  1
  O  O338  1  0.000000  0.499671  0.766089  1
  O  O339  1  0.370141  0.589201  0.643994  1
  O  O340  1  0.630037  0.910729  0.643988  1
  O  O341  1  0.870138  0.660734  0.625310  1
  O  O342  1  0.130025  0.839210  0.625314  1
  O  O343  1  0.629974  0.910445  0.751873  1
  O  O344  1  0.370070  0.588922  0.751882  1
  O  O345  1  0.129970  0.838921  0.770562  1
  O  O346  1  0.870076  0.660440  0.770557  1
  O  O347  1  0.268199  0.923066  0.632687  1
  O  O348  1  0.731957  0.576936  0.632684  1
  O  O349  1  0.768216  0.826936  0.636611  1
  O  O350  1  0.231962  0.673067  0.636622  1
  O  O351  1  0.731907  0.576590  0.763180  1
  O  O352  1  0.268151  0.922724  0.763188  1
  O  O353  1  0.231891  0.672725  0.759259  1
  O  O354  1  0.768148  0.826589  0.759248  1
  O  O355  1  0.230899  0.502193  0.657723  1
  O  O356  1  0.769277  0.997723  0.657718  1
  O  O357  1  0.730893  0.747734  0.611578  1
  O  O358  1  0.269258  0.752196  0.611586  1
  O  O359  1  0.769231  0.997448  0.738145  1
  O  O360  1  0.230838  0.501911  0.738154  1
  O  O361  1  0.269211  0.751896  0.784292  1
  O  O362  1  0.730831  0.747439  0.784283  1
  O  O363  1  0.500060  0.499984  0.589035  1
  O  O364  1  0.000000  0.749967  0.680273  1
  O  O365  1  0.500020  0.499630  0.806833  1
  O  O366  1  0.000000  0.749659  0.715599  1
  O  O367  1  0.643622  0.917280  0.595098  1
  O  O368  1  0.356513  0.582706  0.595096  1
  O  O369  1  0.143637  0.832688  0.674212  1
  O  O370  1  0.856537  0.667245  0.674204  1
  O  O371  1  0.356459  0.582285  0.800766  1
  O  O372  1  0.643566  0.916912  0.800773  1
  O  O373  1  0.856509  0.666943  0.721657  1
  O  O374  1  0.143608  0.832329  0.721673  1
  O  O375  1  0.608385  0.668086  0.596677  1
  O  O376  1  0.391773  0.831909  0.596699  1
  O  O377  1  0.108388  0.581889  0.672615  1
  O  O378  1  0.891770  0.918052  0.672622  1
  O  O379  1  0.391713  0.831479  0.799196  1
  O  O380  1  0.608305  0.667708  0.799167  1
  O  O381  1  0.891761  0.917743  0.723259  1
  O  O382  1  0.108358  0.581522  0.723244  1
  O  O383  1  0.613925  0.551013  0.824488  1
  O  O384  1  0.386148  0.948629  0.571380  1
  O  O385  1  0.113969  0.698657  0.697934  1
  O  O386  1  0.886187  0.801000  0.697937  1
  O  O387  1  0.386148  0.448629  0.824502  1
  O  O388  1  0.386148  0.948629  0.824502  1
  Si  Si389  1  0.445383  0.128920  0.128085  1
  Si  Si390  1  0.554786  0.370999  0.128080  1
  Si  Si391  1  0.945378  0.121028  0.128731  1
  Si  Si392  1  0.054781  0.378948  0.128733  1
  Si  Si393  1  0.554728  0.370739  0.255292  1
  Si  Si394  1  0.445323  0.128660  0.255299  1
  Si  Si395  1  0.054730  0.378639  0.254653  1
  Si  Si396  1  0.945327  0.120720  0.254651  1
  Si  Si397  1  0.277978  0.047095  0.137388  1
  Si  Si398  1  0.722198  0.452879  0.137383  1
  Si  Si399  1  0.777983  0.202876  0.119425  1
  Si  Si400  1  0.222187  0.297093  0.119432  1
  Si  Si401  1  0.722136  0.452555  0.245991  1
  Si  Si402  1  0.277911  0.046774  0.246000  1
  Si  Si403  1  0.222126  0.296776  0.263958  1
  Si  Si404  1  0.777917  0.202555  0.263949  1
  Si  Si405  1  0.594044  0.033500  0.081573  1
  Si  Si406  1  0.406078  0.466422  0.081581  1
  Si  Si407  1  0.094070  0.216414  0.175242  1
  Si  Si408  1  0.906099  0.283480  0.175242  1
  Si  Si409  1  0.406039  0.466097  0.301807  1
  Si  Si410  1  0.594000  0.033205  0.301798  1
  Si  Si411  1  0.906080  0.283224  0.208141  1
  Si  Si412  1  0.094047  0.216126  0.208141  1
  Si  Si413  1  0.354309  0.208529  0.099073  1
  Si  Si414  1  0.645835  0.291399  0.099065  1
  Si  Si415  1  0.854329  0.041375  0.157745  1
  Si  Si416  1  0.145846  0.458524  0.157747  1
  Si  Si417  1  0.645774  0.291099  0.284306  1
  Si  Si418  1  0.354263  0.208200  0.284314  1
  Si  Si419  1  0.145793  0.458232  0.225639  1
  Si  Si420  1  0.854292  0.041116  0.225635  1
  Si  Si421  1  0.445384  0.628919  0.128085  1
  Si  Si422  1  0.554789  0.871001  0.128081  1
  Si  Si423  1  0.945381  0.621027  0.128731  1
  Si  Si424  1  0.054779  0.878948  0.128733  1
  Si  Si425  1  0.554727  0.870738  0.255292  1
  Si  Si426  1  0.445324  0.628661  0.255299  1
  Si  Si427  1  0.054726  0.878642  0.254653  1
  Si  Si428  1  0.945328  0.620722  0.254651  1
  Si  Si429  1  0.277975  0.547093  0.137388  1
  Si  Si430  1  0.722194  0.952877  0.137382  1
  Si  Si431  1  0.777979  0.702878  0.119424  1
  Si  Si432  1  0.222189  0.797092  0.119431  1
  Si  Si433  1  0.722137  0.952556  0.245991  1
  Si  Si434  1  0.277911  0.546774  0.246000  1
  Si  Si435  1  0.222130  0.796773  0.263958  1
  Si  Si436  1  0.777914  0.702557  0.263949  1
  Si  Si437  1  0.594044  0.533499  0.081573  1
  Si  Si438  1  0.406078  0.966423  0.081581  1
  Si  Si439  1  0.094070  0.716415  0.175242  1
  Si  Si440  1  0.906099  0.783481  0.175242  1
  Si  Si441  1  0.406039  0.966098  0.301807  1
  Si  Si442  1  0.594000  0.533204  0.301798  1
  Si  Si443  1  0.906080  0.783224  0.208141  1
  Si  Si444  1  0.094047  0.716126  0.208141  1
  Si  Si445  1  0.354308  0.708530  0.099073  1
  Si  Si446  1  0.645837  0.791397  0.099066  1
  Si  Si447  1  0.854328  0.541374  0.157745  1
  Si  Si448  1  0.145844  0.958522  0.157748  1
  Si  Si449  1  0.645776  0.791097  0.284306  1
  Si  Si450  1  0.354261  0.708201  0.284314  1
  Si  Si451  1  0.145793  0.958232  0.225639  1
  Si  Si452  1  0.854293  0.541116  0.225634  1
  Si  Si453  1  0.445383  0.128920  0.381207  1
  Si  Si454  1  0.554786  0.370999  0.381203  1
  Si  Si455  1  0.945378  0.121028  0.381853  1
  Si  Si456  1  0.054781  0.378948  0.381855  1
  Si  Si457  1  0.554728  0.370739  0.508414  1
  Si  Si458  1  0.445323  0.128660  0.508421  1
  Si  Si459  1  0.054730  0.378639  0.507775  1
  Si  Si460  1  0.945327  0.120720  0.507773  1
  Si  Si461  1  0.277978  0.047095  0.390510  1
  Si  Si462  1  0.722198  0.452879  0.390505  1
  Si  Si463  1  0.777983  0.202876  0.372547  1
  Si  Si464  1  0.222187  0.297093  0.372554  1
  Si  Si465  1  0.722136  0.452555  0.499113  1
  Si  Si466  1  0.277911  0.046774  0.499122  1
  Si  Si467  1  0.222126  0.296776  0.517080  1
  Si  Si468  1  0.777917  0.202555  0.517071  1
  Si  Si469  1  0.594044  0.033500  0.334695  1
  Si  Si470  1  0.406078  0.466422  0.334703  1
  Si  Si471  1  0.094070  0.216414  0.428364  1
  Si  Si472  1  0.906099  0.283480  0.428364  1
  Si  Si473  1  0.406039  0.466097  0.554929  1
  Si  Si474  1  0.594000  0.033205  0.554920  1
  Si  Si475  1  0.906080  0.283224  0.461263  1
  Si  Si476  1  0.094047  0.216126  0.461263  1
  Si  Si477  1  0.354309  0.208529  0.352195  1
  Si  Si478  1  0.645835  0.291399  0.352187  1
  Si  Si479  1  0.854329  0.041375  0.410867  1
  Si  Si480  1  0.145846  0.458524  0.410869  1
  Si  Si481  1  0.645774  0.291099  0.537428  1
  Si  Si482  1  0.354263  0.208200  0.537436  1
  Si  Si483  1  0.145793  0.458232  0.478761  1
  Si  Si484  1  0.854292  0.041116  0.478757  1
  Si  Si485  1  0.445384  0.628919  0.381207  1
  Si  Si486  1  0.554789  0.871001  0.381203  1
  Si  Si487  1  0.945381  0.621027  0.381853  1
  Si  Si488  1  0.054779  0.878948  0.381855  1
  Si  Si489  1  0.554727  0.870738  0.508414  1
  Si  Si490  1  0.445324  0.628661  0.508421  1
  Si  Si491  1  0.054726  0.878642  0.507775  1
  Si  Si492  1  0.945328  0.620722  0.507773  1
  Si  Si493  1  0.277975  0.547093  0.390511  1
  Si  Si494  1  0.722194  0.952877  0.390505  1
  Si  Si495  1  0.777979  0.702878  0.372547  1
  Si  Si496  1  0.222189  0.797092  0.372554  1
  Si  Si497  1  0.722137  0.952556  0.499113  1
  Si  Si498  1  0.277911  0.546774  0.499122  1
  Si  Si499  1  0.222130  0.796773  0.517080  1
  Si  Si500  1  0.777914  0.702557  0.517071  1
  Si  Si501  1  0.594044  0.533499  0.334695  1
  Si  Si502  1  0.406078  0.966423  0.334703  1
  Si  Si503  1  0.094070  0.716415  0.428364  1
  Si  Si504  1  0.906099  0.783481  0.428364  1
  Si  Si505  1  0.406039  0.966098  0.554929  1
  Si  Si506  1  0.594000  0.533204  0.554920  1
  Si  Si507  1  0.906080  0.783224  0.461263  1
  Si  Si508  1  0.094047  0.716126  0.461263  1
  Si  Si509  1  0.354308  0.708530  0.352195  1
  Si  Si510  1  0.645837  0.791397  0.352188  1
  Si  Si511  1  0.854328  0.541374  0.410867  1
  Si  Si512  1  0.145844  0.958522  0.410870  1
  Si  Si513  1  0.645776  0.791097  0.537428  1
  Si  Si514  1  0.354261  0.708201  0.537436  1
  Si  Si515  1  0.145793  0.958232  0.478761  1
  Si  Si516  1  0.854293  0.541116  0.478757  1
  Si  Si517  1  0.445383  0.128920  0.634329  1
  Si  Si518  1  0.554786  0.370999  0.634325  1
  Si  Si519  1  0.945378  0.121028  0.634975  1
  Si  Si520  1  0.054781  0.378948  0.634977  1
  Si  Si521  1  0.554728  0.370739  0.761536  1
  Si  Si522  1  0.445323  0.128660  0.761543  1
  Si  Si523  1  0.054730  0.378639  0.760897  1
  Si  Si524  1  0.945327  0.120720  0.760896  1
  Si  Si525  1  0.277978  0.047095  0.643632  1
  Si  Si526  1  0.722198  0.452879  0.643627  1
  Si  Si527  1  0.777983  0.202876  0.625669  1
  Si  Si528  1  0.222187  0.297093  0.625676  1
  Si  Si529  1  0.722136  0.452555  0.752235  1
  Si  Si530  1  0.277911  0.046774  0.752245  1
  Si  Si531  1  0.222126  0.296776  0.770202  1
  Si  Si532  1  0.777917  0.202555  0.770193  1
  Si  Si533  1  0.594044  0.033500  0.587817  1
  Si  Si534  1  0.406078  0.466422  0.587825  1
  Si  Si535  1  0.094070  0.216414  0.681486  1
  Si  Si536  1  0.906099  0.283480  0.681486  1
  Si  Si537  1  0.406039  0.466097  0.808051  1
  Si  Si538  1  0.594000  0.033205  0.808042  1
  Si  Si539  1  0.906080  0.283224  0.714385  1
  Si  Si540  1  0.094047  0.216126  0.714385  1
  Si  Si541  1  0.354309  0.208529  0.605317  1
  Si  Si542  1  0.645835  0.291399  0.605309  1
  Si  Si543  1  0.854329  0.041375  0.663989  1
  Si  Si544  1  0.145846  0.458524  0.663992  1
  Si  Si545  1  0.645774  0.291099  0.790551  1
  Si  Si546  1  0.354263  0.208200  0.790558  1
  Si  Si547  1  0.145793  0.458232  0.731883  1
  Si  Si548  1  0.854292  0.041116  0.731879  1
  Si  Si549  1  0.445384  0.628919  0.634329  1
  Si  Si550  1  0.554789  0.871001  0.634325  1
  Si  Si551  1  0.945381  0.621027  0.634975  1
  Si  Si552  1  0.054779  0.878948  0.634977  1
  Si  Si553  1  0.554727  0.870738  0.761536  1
  Si  Si554  1  0.445324  0.628661  0.761543  1
  Si  Si555  1  0.054726  0.878642  0.760897  1
  Si  Si556  1  0.945328  0.620722  0.760895  1
  Si  Si557  1  0.277975  0.547093  0.643633  1
  Si  Si558  1  0.722194  0.952877  0.643627  1
  Si  Si559  1  0.777979  0.702878  0.625669  1
  Si  Si560  1  0.222189  0.797092  0.625676  1
  Si  Si561  1  0.722137  0.952556  0.752235  1
  Si  Si562  1  0.277911  0.546774  0.752245  1
  Si  Si563  1  0.222130  0.796773  0.770202  1
  Si  Si564  1  0.777914  0.702557  0.770193  1
  Si  Si565  1  0.594044  0.533499  0.587817  1
  Si  Si566  1  0.406078  0.966423  0.587826  1
  Si  Si567  1  0.094070  0.716415  0.681486  1
  Si  Si568  1  0.906099  0.783481  0.681486  1
  Si  Si569  1  0.406039  0.966098  0.808051  1
  Si  Si570  1  0.594000  0.533204  0.808042  1
  Si  Si571  1  0.906080  0.783224  0.714385  1
  Si  Si572  1  0.094047  0.716126  0.714385  1
  Si  Si573  1  0.354308  0.708530  0.605318  1
  Si  Si574  1  0.645837  0.791397  0.605310  1
  Si  Si575  1  0.854328  0.541374  0.663989  1
  Si  Si576  1  0.145844  0.958522  0.663992  1
  Si  Si577  1  0.645776  0.791097  0.790550  1
  Si  Si578  1  0.354261  0.708201  0.790558  1
  Si  Si579  1  0.145793  0.958232  0.731883  1
  Si  Si580  1  0.854293  0.541116  0.731879  1
  H  H581  1  0.613925  0.051013  0.055188  1
  H  H582  1  0.613925  0.551013  0.055188  1
  H  H583  1  0.386148  0.448629  0.055202  1
  H  H584  1  0.386148  0.948629  0.055202  1
  H  H585  1  0.613925  0.051013  0.834422  1
  H  H586  1  0.613925  0.551013  0.834422  1
  H  H587  1  0.386148  0.448629  0.834436  1
  H  H588  1  0.386148  0.948629  0.834436  1
