# generated using pymatgen
data_Si21(HO11)4
_symmetry_space_group_name_H-M   'P 1'
_cell_length_a   26.79739289
_cell_length_b   12.91472158
_cell_length_c   40.99032135
_cell_angle_alpha   90.00000000
_cell_angle_beta   90.00000000
_cell_angle_gamma   90.00000000
_symmetry_Int_Tables_number   1
_chemical_formula_structural   Si21(HO11)4
_chemical_formula_sum   'Si84 H16 O176'
_cell_volume   14185.9660019
_cell_formula_units_Z   4
loop_
 _symmetry_equiv_pos_site_id
 _symmetry_equiv_pos_as_xyz
  1  'x, y, z'
loop_
 _atom_site_type_symbol
 _atom_site_label
 _atom_site_symmetry_multiplicity
 _atom_site_fract_x
 _atom_site_fract_y
 _atom_site_fract_z
 _atom_site_occupancy
  O  O1  1  0.171724  0.500053  0.333346  1
  O  O2  1  0.068335  0.000000  0.265756  1
  O  O3  1  0.238131  0.641926  0.333586  1
  O  O4  1  0.067961  0.858162  0.222335  1
  O  O5  1  0.238139  0.358148  0.333584  1
  O  O6  1  0.067960  0.141927  0.222339  1
  O  O7  1  0.141931  0.692338  0.322957  1
  O  O8  1  0.084214  0.807742  0.285234  1
  O  O9  1  0.141925  0.307726  0.322964  1
  O  O10  1  0.084223  0.192347  0.285233  1
  O  O11  1  0.091915  0.826879  0.158172  1
  O  O12  1  0.091914  0.173221  0.158176  1
  O  O13  1  0.301754  0.500060  0.335967  1
  O  O14  1  0.064335  -0.000000  0.180743  1
  O  O15  1  0.047822  0.669080  0.324811  1
  O  O16  1  0.081400  0.831009  0.346752  1
  O  O17  1  0.047819  0.331024  0.324805  1
  O  O18  1  0.081397  0.169065  0.346753  1
  O  O19  1  0.568327  0.500055  0.163419  1
  O  O20  1  0.431628  0.500048  0.163411  1
  O  O21  1  0.663692  0.326880  0.317931  1
  O  O22  1  0.499984  0.631494  0.164333  1
  O  O23  1  0.499986  0.368613  0.164337  1
  O  O24  1  0.567960  0.641936  0.206837  1
  O  O25  1  0.432048  0.358153  0.206836  1
  O  O26  1  0.567966  0.358163  0.206839  1
  O  O27  1  0.432050  0.641936  0.206835  1
  O  O28  1  0.584209  0.692352  0.143938  1
  O  O29  1  0.415755  0.307740  0.143940  1
  O  O30  1  0.584209  0.307755  0.143940  1
  O  O31  1  0.415754  0.692352  0.143936  1
  O  O32  1  0.591908  0.673224  0.270997  1
  O  O33  1  0.408055  0.326877  0.270996  1
  O  O34  1  0.591910  0.326887  0.270999  1
  O  O35  1  0.408058  0.673220  0.270999  1
  O  O36  1  0.564329  0.500057  0.248426  1
  O  O37  1  0.435634  0.500051  0.248430  1
  O  O38  1  0.499990  0.640966  0.250185  1
  O  O39  1  0.499991  0.359128  0.250190  1
  O  O40  1  0.432226  0.000000  0.333722  1
  O  O41  1  0.567754  0.000000  0.333722  1
  O  O42  1  0.336288  0.673212  0.317936  1
  O  O43  1  0.499993  0.863371  0.334722  1
  O  O44  1  0.663690  0.673210  0.317927  1
  O  O45  1  0.499989  0.136730  0.334721  1
  O  O46  1  0.411607  0.799751  0.320247  1
  O  O47  1  0.588377  0.799770  0.320243  1
  O  O48  1  0.588370  0.200333  0.320241  1
  O  O49  1  0.411603  0.200322  0.320246  1
  O  O50  1  0.421072  0.602930  0.326438  1
  O  O51  1  0.578903  0.602942  0.326432  1
  O  O52  1  0.578906  0.397163  0.326434  1
  O  O53  1  0.421074  0.397158  0.326439  1
  O  O54  1  0.336294  0.326848  0.317927  1
  O  O55  1  0.499991  0.500037  0.334611  1
  O  O56  1  0.931643  -0.000000  0.265752  1
  O  O57  1  0.828252  0.500038  0.333339  1
  O  O58  1  0.932018  0.141939  0.222335  1
  O  O59  1  0.761848  0.358167  0.333593  1
  O  O60  1  0.932013  0.858160  0.222333  1
  O  O61  1  0.761839  0.641923  0.333586  1
  O  O62  1  0.915759  0.192357  0.285232  1
  O  O63  1  0.858053  0.307741  0.322955  1
  O  O64  1  0.915757  0.807740  0.285232  1
  O  O65  1  0.858055  0.692353  0.322956  1
  O  O66  1  0.908062  0.173225  0.158171  1
  O  O67  1  0.908056  0.826886  0.158173  1
  O  O68  1  0.935641  -0.000000  0.180740  1
  O  O69  1  0.698226  0.500043  0.335960  1
  O  O70  1  -0.000000  0.859133  0.178986  1
  O  O71  1  0.918587  0.169079  0.346752  1
  O  O72  1  0.952158  0.331013  0.324805  1
  O  O73  1  0.918581  0.831010  0.346753  1
  O  O74  1  0.952155  0.669080  0.324806  1
  O  O75  1  -0.000000  0.140969  0.178989  1
  O  O76  1  -0.000000  0.500045  0.333168  1
  O  O77  1  0.000000  0.131485  0.264862  1
  O  O78  1  -0.000000  0.868606  0.264863  1
  O  O79  1  0.068343  -0.000000  0.490282  1
  O  O80  1  0.171713  0.499984  0.422713  1
  O  O81  1  0.173029  0.368628  0.378011  1
  O  O82  1  0.067966  0.141940  0.533709  1
  O  O83  1  0.238143  0.358171  0.422500  1
  O  O84  1  0.067925  0.858152  0.533701  1
  O  O85  1  0.238108  0.641940  0.422380  1
  O  O86  1  0.084219  0.192368  0.470806  1
  O  O87  1  0.141933  0.307788  0.433087  1
  O  O88  1  0.084226  0.807739  0.470815  1
  O  O89  1  0.141918  0.692390  0.433098  1
  O  O90  1  0.091917  0.173239  0.597874  1
  O  O91  1  0.091913  0.826879  0.597871  1
  O  O92  1  0.064339  -0.000000  0.575299  1
  O  O93  1  0.301754  0.500063  0.420095  1
  O  O94  1  0.068605  -0.000000  0.378025  1
  O  O95  1  0.081395  0.169088  0.409295  1
  O  O96  1  0.047822  0.331010  0.431241  1
  O  O97  1  0.081394  0.831021  0.409287  1
  O  O98  1  0.047812  0.669063  0.431239  1
  O  O99  1  0.304450  0.359133  0.378021  1
  O  O100  1  0.304430  0.640966  0.378025  1
  O  O101  1  0.173185  0.631516  0.378039  1
  O  O102  1  0.431634  0.500056  0.592627  1
  O  O103  1  0.568340  0.500067  0.592628  1
  O  O104  1  0.499986  0.631518  0.591732  1
  O  O105  1  0.566223  0.136738  0.378017  1
  O  O106  1  0.499990  0.368612  0.591740  1
  O  O107  1  0.432011  0.641955  0.549206  1
  O  O108  1  0.567967  0.358174  0.549206  1
  O  O109  1  0.432014  0.358170  0.549205  1
  O  O110  1  0.567960  0.641967  0.549204  1
  O  O111  1  0.415747  0.692369  0.612099  1
  O  O112  1  0.584225  0.307765  0.612094  1
  O  O113  1  0.415756  0.307759  0.612100  1
  O  O114  1  0.584219  0.692391  0.612104  1
  O  O115  1  0.408066  0.673231  0.485041  1
  O  O116  1  0.591910  0.326892  0.485041  1
  O  O117  1  0.408066  0.326877  0.485045  1
  O  O118  1  0.591915  0.673241  0.485036  1
  O  O119  1  0.435644  0.500051  0.507618  1
  O  O120  1  0.564335  0.500059  0.507611  1
  O  O121  1  0.499988  0.640983  0.505858  1
  O  O122  1  0.499993  0.359150  0.505863  1
  O  O123  1  0.567753  -0.000000  0.422322  1
  O  O124  1  0.432227  -0.000000  0.422322  1
  O  O125  1  0.499994  0.863387  0.421326  1
  O  O126  1  0.499989  0.136732  0.421321  1
  O  O127  1  0.588375  0.799796  0.435803  1
  O  O128  1  0.411613  0.799793  0.435805  1
  O  O129  1  0.411604  0.200320  0.435801  1
  O  O130  1  0.588363  0.200342  0.435801  1
  O  O131  1  0.578899  0.602949  0.429611  1
  O  O132  1  0.421080  0.602934  0.429611  1
  O  O133  1  0.421078  0.397175  0.429612  1
  O  O134  1  0.578899  0.397189  0.429613  1
  O  O135  1  0.433588  0.500039  0.378020  1
  O  O136  1  0.499992  0.500067  0.421433  1
  O  O137  1  0.336266  0.673233  0.438121  1
  O  O138  1  0.663701  0.673229  0.438116  1
  O  O139  1  0.663693  0.326895  0.438117  1
  O  O140  1  0.336284  0.326881  0.438124  1
  O  O141  1  0.566393  0.500058  0.378018  1
  O  O142  1  0.566230  0.863384  0.378018  1
  O  O143  1  0.433759  0.863377  0.378018  1
  O  O144  1  0.433752  0.136725  0.378018  1
  O  O145  1  0.828264  0.500060  0.422709  1
  O  O146  1  0.931642  -0.000000  0.490286  1
  O  O147  1  0.826843  0.368602  0.378025  1
  O  O148  1  0.761830  0.641949  0.422468  1
  O  O149  1  0.932014  0.858168  0.533709  1
  O  O150  1  0.761862  0.358177  0.422416  1
  O  O151  1  0.932014  0.141936  0.533707  1
  O  O152  1  0.858050  0.692350  0.433087  1
  O  O153  1  0.915763  0.807759  0.470813  1
  O  O154  1  0.858052  0.307737  0.433096  1
  O  O155  1  0.915752  0.192360  0.470814  1
  O  O156  1  0.826918  0.631481  0.378008  1
  O  O157  1  0.908071  0.826882  0.597868  1
  O  O158  1  0.908070  0.173235  0.597870  1
  O  O159  1  0.698211  0.500050  0.420089  1
  O  O160  1  0.935644  -0.000000  0.575297  1
  O  O161  1  0.000000  0.868590  0.491201  1
  O  O162  1  -0.000000  0.859137  0.577054  1
  O  O163  1  0.952153  0.669075  0.431243  1
  O  O164  1  0.918587  0.831018  0.409289  1
  O  O165  1  0.952156  0.331030  0.431239  1
  O  O166  1  0.918580  0.169085  0.409289  1
  O  O167  1  0.000000  0.500046  0.422879  1
  O  O168  1  0.000000  0.368545  0.378023  1
  O  O169  1  0.695543  0.640968  0.378012  1
  O  O170  1  -0.000000  0.631554  0.378022  1
  O  O171  1  -0.000000  0.131489  0.491177  1
  O  O172  1  0.695550  0.359136  0.378021  1
  O  O173  1  0.931380  0.000000  0.378024  1
  O  O174  1  -0.000000  0.868546  0.378022  1
  O  O175  1  0.000000  0.131546  0.378027  1
  O  O176  1  0.000000  0.140964  0.577053  1
  Si  Si177  1  0.057496  0.119809  0.184900  1
  Si  Si178  1  0.090469  0.250049  0.318871  1
  Si  Si179  1  0.090475  0.750039  0.318868  1
  Si  Si180  1  0.295410  0.380286  0.340423  1
  Si  Si181  1  0.057495  0.880280  0.184897  1
  Si  Si182  1  0.180844  0.619193  0.340260  1
  Si  Si183  1  0.057761  0.880895  0.259791  1
  Si  Si184  1  0.180842  0.380901  0.340243  1
  Si  Si185  1  0.057764  0.119191  0.259793  1
  Si  Si186  1  0.295397  0.619824  0.340429  1
  Si  Si187  1  0.442536  0.500044  0.340460  1
  Si  Si188  1  0.557446  0.500048  0.340457  1
  Si  Si189  1  0.557761  0.619202  0.169383  1
  Si  Si190  1  0.442204  0.380895  0.169382  1
  Si  Si191  1  0.557765  0.380908  0.169385  1
  Si  Si192  1  0.442204  0.619203  0.169380  1
  Si  Si193  1  0.557495  0.619826  0.244274  1
  Si  Si194  1  0.442486  0.380286  0.244276  1
  Si  Si195  1  0.557496  0.380285  0.244276  1
  Si  Si196  1  0.442485  0.619812  0.244276  1
  Si  Si197  1  0.442485  0.880904  0.340423  1
  Si  Si198  1  0.557500  0.880917  0.340423  1
  Si  Si199  1  0.557496  0.119189  0.340423  1
  Si  Si200  1  0.442482  0.119180  0.340425  1
  Si  Si201  1  0.392829  0.691155  0.307969  1
  Si  Si202  1  0.607148  0.691169  0.307964  1
  Si  Si203  1  0.607149  0.308933  0.307966  1
  Si  Si204  1  0.392839  0.308922  0.307967  1
  Si  Si205  1  0.942209  0.119192  0.259791  1
  Si  Si206  1  0.819140  0.380896  0.340253  1
  Si  Si207  1  0.942208  0.880896  0.259789  1
  Si  Si208  1  0.819134  0.619187  0.340234  1
  Si  Si209  1  0.942481  0.119813  0.184895  1
  Si  Si210  1  0.704580  0.380275  0.340426  1
  Si  Si211  1  0.942479  0.880285  0.184896  1
  Si  Si212  1  0.704574  0.619811  0.340419  1
  Si  Si213  1  0.909507  0.250047  0.318869  1
  Si  Si214  1  0.909505  0.750047  0.318869  1
  Si  Si215  1  -0.000000  0.381265  0.339905  1
  Si  Si216  1  0.000000  0.618831  0.339902  1
  Si  Si217  1  0.090488  0.250071  0.437172  1
  Si  Si218  1  0.058296  0.881267  0.378018  1
  Si  Si219  1  0.090456  0.750055  0.437175  1
  Si  Si220  1  0.057764  0.119217  0.496250  1
  Si  Si221  1  0.180855  0.380863  0.415785  1
  Si  Si222  1  0.057775  0.880910  0.496249  1
  Si  Si223  1  0.180813  0.619138  0.415810  1
  Si  Si224  1  0.057499  0.119817  0.571150  1
  Si  Si225  1  0.295408  0.380297  0.415621  1
  Si  Si226  1  0.057498  0.880283  0.571143  1
  Si  Si227  1  0.295381  0.619820  0.415616  1
  Si  Si228  1  0.058297  0.118836  0.378027  1
  Si  Si229  1  0.442536  0.500054  0.415582  1
  Si  Si230  1  0.557447  0.500067  0.415580  1
  Si  Si231  1  0.442208  0.619205  0.586662  1
  Si  Si232  1  0.557766  0.380923  0.586659  1
  Si  Si233  1  0.442212  0.380913  0.586661  1
  Si  Si234  1  0.557763  0.619217  0.586663  1
  Si  Si235  1  0.442480  0.619815  0.511768  1
  Si  Si236  1  0.557502  0.380296  0.511768  1
  Si  Si237  1  0.442484  0.380290  0.511768  1
  Si  Si238  1  0.557498  0.619826  0.511763  1
  Si  Si239  1  0.557501  0.880927  0.415614  1
  Si  Si240  1  0.442487  0.880926  0.415614  1
  Si  Si241  1  0.442483  0.119198  0.415614  1
  Si  Si242  1  0.557495  0.119203  0.415613  1
  Si  Si243  1  0.607151  0.691183  0.448070  1
  Si  Si244  1  0.392830  0.691168  0.448070  1
  Si  Si245  1  0.392835  0.308931  0.448076  1
  Si  Si246  1  0.607145  0.308946  0.448074  1
  Si  Si247  1  0.941683  0.118830  0.378022  1
  Si  Si248  1  0.909508  0.250049  0.437175  1
  Si  Si249  1  0.909505  0.750054  0.437175  1
  Si  Si250  1  0.819130  0.619209  0.415780  1
  Si  Si251  1  0.942216  0.880903  0.496255  1
  Si  Si252  1  0.819150  0.380911  0.415800  1
  Si  Si253  1  0.942208  0.119194  0.496250  1
  Si  Si254  1  0.704566  0.619809  0.415608  1
  Si  Si255  1  0.942484  0.880282  0.571147  1
  Si  Si256  1  0.704585  0.380294  0.415616  1
  Si  Si257  1  0.942481  0.119820  0.571145  1
  Si  Si258  1  0.941681  0.881262  0.378019  1
  Si  Si259  1  0.000000  0.381264  0.416142  1
  Si  Si260  1  -0.000000  0.618825  0.416141  1
  H  H261  1  0.091915  0.826879  0.136216  1
  H  H262  1  0.091914  0.173221  0.136219  1
  H  H263  1  0.584209  0.692352  0.121982  1
  H  H264  1  0.415755  0.307740  0.121983  1
  H  H265  1  0.584209  0.307755  0.121984  1
  H  H266  1  0.415754  0.692352  0.121980  1
  H  H267  1  0.908062  0.173225  0.136215  1
  H  H268  1  0.908056  0.826886  0.136217  1
  H  H269  1  0.091917  0.173239  0.619830  1
  H  H270  1  0.091913  0.826879  0.619827  1
  H  H271  1  0.415747  0.692369  0.634055  1
  H  H272  1  0.584225  0.307765  0.634050  1
  H  H273  1  0.415756  0.307759  0.634057  1
  H  H274  1  0.584219  0.692391  0.634060  1
  H  H275  1  0.908071  0.826882  0.619825  1
  H  H276  1  0.908070  0.173235  0.619827  1
