# generated using pymatgen
data_Si13H2O27
_symmetry_space_group_name_H-M   'P 1'
_cell_length_a   13.81540410
_cell_length_b   18.13110130
_cell_length_c   45.11634542
_cell_angle_alpha   90.00000000
_cell_angle_beta   90.00000000
_cell_angle_gamma   90.00000000
_symmetry_Int_Tables_number   1
_chemical_formula_structural   Si13H2O27
_chemical_formula_sum   'Si104 H16 O216'
_cell_volume   11301.1252948
_cell_formula_units_Z   8
loop_
 _symmetry_equiv_pos_site_id
 _symmetry_equiv_pos_as_xyz
  1  'x, y, z'
loop_
 _atom_site_type_symbol
 _atom_site_label
 _atom_site_symmetry_multiplicity
 _atom_site_fract_x
 _atom_site_fract_y
 _atom_site_fract_z
 _atom_site_occupancy
  O  O1  1  0.852103  0.638297  0.647578  1
  O  O2  1  0.147831  0.638308  0.647577  1
  O  O3  1  0.647840  0.861623  0.647571  1
  O  O4  1  0.352124  0.861635  0.647573  1
  O  O5  1  0.750003  0.749967  0.627098  1
  O  O6  1  0.250014  0.749957  0.627100  1
  O  O7  1  0.762327  0.629489  0.598375  1
  O  O8  1  0.237694  0.629465  0.598387  1
  O  O9  1  0.737706  0.870450  0.598379  1
  O  O10  1  0.262334  0.870430  0.598372  1
  O  O11  1  0.907173  0.710771  0.602473  1
  O  O12  1  0.092868  0.710772  0.602461  1
  O  O13  1  0.592868  0.789154  0.602456  1
  O  O14  1  0.407178  0.789153  0.602470  1
  O  O15  1  0.746375  0.506209  0.571774  1
  O  O16  1  0.253654  0.506172  0.571799  1
  O  O17  1  0.753679  0.993740  0.571792  1
  O  O18  1  0.246387  0.993716  0.571776  1
  O  O19  1  0.749805  0.625763  0.542079  1
  O  O20  1  0.250173  0.625716  0.542090  1
  O  O21  1  0.750182  0.874201  0.542082  1
  O  O22  1  0.249847  0.874172  0.542075  1
  O  O23  1  0.600962  0.593041  0.573384  1
  O  O24  1  0.399047  0.593029  0.573389  1
  O  O25  1  0.899066  0.906882  0.573381  1
  O  O26  1  0.100981  0.906872  0.573377  1
  O  O27  1  0.760916  0.870475  0.486291  1
  O  O28  1  0.239106  0.870438  0.486286  1
  O  O29  1  0.739080  0.629474  0.486289  1
  O  O30  1  0.260910  0.629448  0.486300  1
  O  O31  1  0.907535  0.954935  0.483099  1
  O  O32  1  0.092533  0.954947  0.483109  1
  O  O33  1  0.592506  0.544962  0.483115  1
  O  O34  1  0.407510  0.544975  0.483103  1
  O  O35  1  0.750049  0.749979  0.516622  1
  O  O36  1  0.250009  0.749943  0.516629  1
  O  O37  1  0.899769  0.660219  0.512979  1
  O  O38  1  0.100240  0.660211  0.512987  1
  O  O39  1  0.600253  0.839683  0.512980  1
  O  O40  1  0.399781  0.839668  0.512976  1
  O  O41  1  0.000000  0.544041  0.526724  1
  O  O42  1  0.499992  0.955861  0.526715  1
  O  O43  1  0.000000  0.905383  0.527688  1
  O  O44  1  0.499988  0.594522  0.527695  1
  O  O45  1  0.000000  0.657178  0.558715  1
  O  O46  1  0.500002  0.842733  0.558708  1
  O  O47  1  -0.000000  0.793964  0.565719  1
  O  O48  1  0.499994  0.705946  0.565720  1
  O  O49  1  0.332774  0.079965  0.608098  1
  O  O50  1  0.667171  0.079983  0.608092  1
  O  O51  1  0.167141  0.419930  0.608098  1
  O  O52  1  0.832731  0.419972  0.608108  1
  O  O53  1  0.749841  0.125757  0.500825  1
  O  O54  1  0.250189  0.125723  0.500820  1
  O  O55  1  0.750169  0.374202  0.500827  1
  O  O56  1  0.249814  0.374174  0.500832  1
  O  O57  1  0.760902  0.370466  0.556618  1
  O  O58  1  0.239084  0.370442  0.556622  1
  O  O59  1  0.739104  0.129468  0.556615  1
  O  O60  1  0.260924  0.129448  0.556610  1
  O  O61  1  0.907521  0.454919  0.559816  1
  O  O62  1  0.092518  0.454958  0.559793  1
  O  O63  1  0.592536  0.044951  0.559789  1
  O  O64  1  0.407538  0.044979  0.559805  1
  O  O65  1  0.750034  0.249973  0.526283  1
  O  O66  1  0.250036  0.249947  0.526281  1
  O  O67  1  0.899787  0.160229  0.529927  1
  O  O68  1  0.100256  0.160227  0.529921  1
  O  O69  1  0.600242  0.339686  0.529927  1
  O  O70  1  0.399769  0.339692  0.529932  1
  O  O71  1  0.000000  0.044044  0.516186  1
  O  O72  1  0.499983  0.455864  0.516190  1
  O  O73  1  0.000000  0.405383  0.515219  1
  O  O74  1  0.500010  0.094522  0.515213  1
  O  O75  1  0.000000  0.157177  0.484194  1
  O  O76  1  0.500000  0.342732  0.484198  1
  O  O77  1  0.000000  0.705956  0.301164  1
  O  O78  1  0.127545  -0.000000  0.389180  1
  O  O79  1  0.499949  0.584544  0.409237  1
  O  O80  1  0.000000  0.915398  0.409232  1
  O  O81  1  0.352075  0.638308  0.383021  1
  O  O82  1  0.647799  0.638311  0.383023  1
  O  O83  1  0.147817  0.861634  0.383016  1
  O  O84  1  0.852099  0.861636  0.383015  1
  O  O85  1  0.332758  0.579971  0.434811  1
  O  O86  1  0.667156  0.579984  0.434812  1
  O  O87  1  0.167186  0.919941  0.434807  1
  O  O88  1  0.832776  0.919965  0.434805  1
  O  O89  1  0.249914  0.749957  0.362541  1
  O  O90  1  0.749912  0.749985  0.362546  1
  O  O91  1  0.262240  0.629470  0.333825  1
  O  O92  1  0.737607  0.629501  0.333826  1
  O  O93  1  0.237594  0.870429  0.333812  1
  O  O94  1  0.762223  0.870466  0.333826  1
  O  O95  1  0.407068  0.710774  0.337908  1
  O  O96  1  0.592758  0.710777  0.337913  1
  O  O97  1  0.092745  0.789156  0.337913  1
  O  O98  1  0.907052  0.789161  0.337901  1
  O  O99  1  0.246259  0.506183  0.307235  1
  O  O100  1  0.753540  0.506216  0.307229  1
  O  O101  1  0.253537  0.993713  0.307216  1
  O  O102  1  0.746251  0.993756  0.307238  1
  O  O103  1  0.100871  0.593042  0.308832  1
  O  O104  1  0.898954  0.593049  0.308829  1
  O  O105  1  0.398949  0.906879  0.308821  1
  O  O106  1  0.600864  0.906892  0.308828  1
  O  O107  1  0.499921  0.793972  0.301163  1
  O  O108  1  0.872401  0.000000  0.389170  1
  O  O109  1  0.499999  0.205948  0.477187  1
  O  O110  1  -0.000000  0.084540  0.369115  1
  O  O111  1  0.499949  0.415397  0.369121  1
  O  O112  1  0.852126  0.138309  0.395329  1
  O  O113  1  0.147844  0.138306  0.395330  1
  O  O114  1  0.647826  0.361634  0.395336  1
  O  O115  1  0.352101  0.361636  0.395336  1
  O  O116  1  0.832761  0.079993  0.343541  1
  O  O117  1  0.167167  0.079962  0.343541  1
  O  O118  1  0.667143  0.419967  0.343548  1
  O  O119  1  0.332735  0.419950  0.343546  1
  O  O120  1  0.750008  0.249979  0.415807  1
  O  O121  1  0.250006  0.249953  0.415810  1
  O  O122  1  0.762329  0.129495  0.444528  1
  O  O123  1  0.237696  0.129461  0.444524  1
  O  O124  1  0.737679  0.370454  0.444529  1
  O  O125  1  0.262306  0.370427  0.444536  1
  O  O126  1  0.907172  0.210775  0.440437  1
  O  O127  1  0.092864  0.210765  0.440447  1
  O  O128  1  0.592855  0.289149  0.440446  1
  O  O129  1  0.407161  0.289155  0.440441  1
  O  O130  1  0.746391  0.006210  0.471127  1
  O  O131  1  0.253675  0.006174  0.471116  1
  O  O132  1  0.753647  0.493743  0.471118  1
  O  O133  1  0.246360  0.493717  0.471129  1
  O  O134  1  0.600979  0.093045  0.469524  1
  O  O135  1  0.399062  0.093031  0.469520  1
  O  O136  1  0.899039  0.406882  0.469526  1
  O  O137  1  0.100952  0.406879  0.469529  1
  O  O138  1  0.000000  0.293965  0.477189  1
  O  O139  1  0.627520  0.499970  0.389182  1
  O  O140  1  0.372378  0.499972  0.389175  1
  O  O141  1  0.832752  0.579997  0.170261  1
  O  O142  1  0.167151  0.579957  0.170252  1
  O  O143  1  0.667174  0.919969  0.170247  1
  O  O144  1  0.332764  0.919947  0.170253  1
  O  O145  1  0.249737  0.625729  0.277528  1
  O  O146  1  0.750087  0.625763  0.277529  1
  O  O147  1  0.250092  0.874167  0.277516  1
  O  O148  1  0.749747  0.874217  0.277529  1
  O  O149  1  0.260819  0.870449  0.221727  1
  O  O150  1  0.739008  0.870475  0.221738  1
  O  O151  1  0.239009  0.629446  0.221737  1
  O  O152  1  0.760825  0.629484  0.221739  1
  O  O153  1  0.407388  0.954968  0.218559  1
  O  O154  1  0.592385  0.954925  0.218538  1
  O  O155  1  0.092386  0.544986  0.218546  1
  O  O156  1  0.907388  0.544964  0.218563  1
  O  O157  1  0.249897  0.749948  0.252064  1
  O  O158  1  0.749885  0.749985  0.252074  1
  O  O159  1  0.399675  0.660230  0.248428  1
  O  O160  1  0.600143  0.660235  0.248426  1
  O  O161  1  0.100141  0.839685  0.248419  1
  O  O162  1  0.899672  0.839693  0.248427  1
  O  O163  1  0.499914  0.544050  0.262167  1
  O  O164  1  0.000000  0.955873  0.262162  1
  O  O165  1  0.499922  0.905393  0.263134  1
  O  O166  1  0.000000  0.594531  0.263139  1
  O  O167  1  0.499918  0.657184  0.294158  1
  O  O168  1  0.000000  0.842742  0.294153  1
  O  O169  1  0.352092  0.138310  0.130774  1
  O  O170  1  0.647822  0.138296  0.130773  1
  O  O171  1  0.147783  0.361634  0.130780  1
  O  O172  1  0.852069  0.361627  0.130783  1
  O  O173  1  0.249894  0.249955  0.151250  1
  O  O174  1  0.749906  0.249973  0.151256  1
  O  O175  1  0.262215  0.129466  0.179963  1
  O  O176  1  0.737576  0.129496  0.179979  1
  O  O177  1  0.237588  0.370426  0.179980  1
  O  O178  1  0.762210  0.370459  0.179976  1
  O  O179  1  0.407036  0.210779  0.175892  1
  O  O180  1  0.592727  0.210772  0.175875  1
  O  O181  1  0.092738  0.289154  0.175885  1
  O  O182  1  0.907045  0.289160  0.175898  1
  O  O183  1  0.246249  0.006180  0.206555  1
  O  O184  1  0.253531  0.493712  0.206574  1
  O  O185  1  0.746243  0.493755  0.206561  1
  O  O186  1  0.249732  0.125727  0.236261  1
  O  O187  1  0.750101  0.125768  0.236275  1
  O  O188  1  0.250077  0.374173  0.236277  1
  O  O189  1  0.749739  0.374215  0.236272  1
  O  O190  1  0.100857  0.093037  0.204963  1
  O  O191  1  0.898941  0.093047  0.204968  1
  O  O192  1  0.398941  0.406875  0.204975  1
  O  O193  1  0.600856  0.406894  0.204972  1
  O  O194  1  0.260817  0.370447  0.292067  1
  O  O195  1  0.739008  0.370482  0.292062  1
  O  O196  1  0.239000  0.129448  0.292052  1
  O  O197  1  0.760822  0.129487  0.292065  1
  O  O198  1  0.407399  0.454948  0.295245  1
  O  O199  1  0.592396  0.454947  0.295252  1
  O  O200  1  0.092387  0.044985  0.295250  1
  O  O201  1  0.907391  0.044973  0.295236  1
  O  O202  1  0.249899  0.249949  0.261726  1
  O  O203  1  0.749866  0.249988  0.261730  1
  O  O204  1  0.399668  0.160220  0.265365  1
  O  O205  1  0.600139  0.160232  0.265372  1
  O  O206  1  0.100138  0.339681  0.265378  1
  O  O207  1  0.899667  0.339692  0.265372  1
  O  O208  1  0.499948  0.044052  0.251628  1
  O  O209  1  0.000000  0.455871  0.251637  1
  O  O210  1  0.499910  0.405388  0.250664  1
  O  O211  1  0.000000  0.094530  0.250657  1
  O  O212  1  0.499917  0.157187  0.219637  1
  O  O213  1  0.000000  0.342741  0.219645  1
  O  O214  1  0.499921  0.293971  0.212632  1
  O  O215  1  -0.000000  0.205954  0.212633  1
  O  O216  1  0.753529  0.006214  0.206578  1
  Si  Si217  1  0.817024  0.682329  0.619884  1
  Si  Si218  1  0.182985  0.682322  0.619886  1
  Si  Si219  1  0.682984  0.817605  0.619880  1
  Si  Si220  1  0.317033  0.817595  0.619882  1
  Si  Si221  1  0.715117  0.588931  0.571572  1
  Si  Si222  1  0.284894  0.588900  0.571583  1
  Si  Si223  1  0.784913  0.911011  0.571576  1
  Si  Si224  1  0.215134  0.910991  0.571568  1
  Si  Si225  1  0.785654  0.668363  0.514015  1
  Si  Si226  1  0.214356  0.668337  0.514028  1
  Si  Si227  1  0.714373  0.831578  0.514019  1
  Si  Si228  1  0.285662  0.831547  0.514014  1
  Si  Si229  1  0.000000  0.964690  0.502307  1
  Si  Si230  1  0.499995  0.535218  0.502313  1
  Si  Si231  1  0.000000  0.630661  0.525421  1
  Si  Si232  1  0.500011  0.869240  0.525413  1
  Si  Si233  1  0.000000  0.718897  0.583074  1
  Si  Si234  1  0.500009  0.781021  0.583070  1
  Si  Si235  1  0.499999  0.620135  0.561097  1
  Si  Si236  1  0.000000  0.879774  0.561091  1
  Si  Si237  1  0.000000  0.379776  0.481815  1
  Si  Si238  1  0.500014  0.120136  0.481811  1
  Si  Si239  1  0.809162  0.434939  0.574643  1
  Si  Si240  1  0.190818  0.434919  0.574643  1
  Si  Si241  1  0.690840  0.064992  0.574636  1
  Si  Si242  1  0.309190  0.064980  0.574635  1
  Si  Si243  1  0.785670  0.168364  0.528889  1
  Si  Si244  1  0.214374  0.168343  0.528883  1
  Si  Si245  1  0.714361  0.331573  0.528889  1
  Si  Si246  1  0.285653  0.331559  0.528893  1
  Si  Si247  1  0.000000  0.464687  0.540601  1
  Si  Si248  1  0.500018  0.035215  0.540594  1
  Si  Si249  1  -0.000000  0.130664  0.517489  1
  Si  Si250  1  0.500003  0.369244  0.517492  1
  Si  Si251  1  0.388036  0.576484  0.404447  1
  Si  Si252  1  0.611864  0.576484  0.404451  1
  Si  Si253  1  0.111886  0.923454  0.404447  1
  Si  Si254  1  0.888057  0.923459  0.404442  1
  Si  Si255  1  0.316943  0.682322  0.355328  1
  Si  Si256  1  0.682896  0.682343  0.355331  1
  Si  Si257  1  0.182897  0.817596  0.355323  1
  Si  Si258  1  0.816941  0.817617  0.355326  1
  Si  Si259  1  0.215024  0.588912  0.307022  1
  Si  Si260  1  0.784800  0.588938  0.307021  1
  Si  Si261  1  0.284795  0.910990  0.307009  1
  Si  Si262  1  0.715017  0.911026  0.307022  1
  Si  Si263  1  0.809188  0.934943  0.468267  1
  Si  Si264  1  0.190846  0.934918  0.468265  1
  Si  Si265  1  0.690814  0.564996  0.468269  1
  Si  Si266  1  0.309166  0.564981  0.468272  1
  Si  Si267  1  0.499918  0.718903  0.318517  1
  Si  Si268  1  0.000000  0.781029  0.318515  1
  Si  Si269  1  0.500003  0.281021  0.459836  1
  Si  Si270  1  0.888060  0.076484  0.373901  1
  Si  Si271  1  0.111889  0.076479  0.373905  1
  Si  Si272  1  0.611863  0.423458  0.373911  1
  Si  Si273  1  0.388034  0.423457  0.373906  1
  Si  Si274  1  0.817028  0.182339  0.423022  1
  Si  Si275  1  0.182983  0.182316  0.423024  1
  Si  Si276  1  0.682974  0.317608  0.423025  1
  Si  Si277  1  0.317016  0.317595  0.423028  1
  Si  Si278  1  0.715132  0.088933  0.471333  1
  Si  Si279  1  0.284908  0.088904  0.471327  1
  Si  Si280  1  0.784886  0.411014  0.471333  1
  Si  Si281  1  0.215106  0.410993  0.471339  1
  Si  Si282  1  0.309082  0.434925  0.310088  1
  Si  Si283  1  0.690739  0.434951  0.310086  1
  Si  Si284  1  0.190740  0.064980  0.310078  1
  Si  Si285  1  0.809088  0.065009  0.310085  1
  Si  Si286  1  0.000000  0.218896  0.459835  1
  Si  Si287  1  0.000000  0.869253  0.260859  1
  Si  Si288  1  0.499912  0.630670  0.260863  1
  Si  Si289  1  0.000000  0.535224  0.237758  1
  Si  Si290  1  0.499914  0.879783  0.296537  1
  Si  Si291  1  0.000000  0.620144  0.296541  1
  Si  Si292  1  0.309089  0.934929  0.203709  1
  Si  Si293  1  0.690744  0.934942  0.203711  1
  Si  Si294  1  0.190734  0.564978  0.203715  1
  Si  Si295  1  0.809083  0.565006  0.203717  1
  Si  Si296  1  0.285557  0.668344  0.249465  1
  Si  Si297  1  0.714258  0.668374  0.249466  1
  Si  Si298  1  0.214258  0.831555  0.249454  1
  Si  Si299  1  0.785553  0.831585  0.249467  1
  Si  Si300  1  0.499913  0.964696  0.237752  1
  Si  Si301  1  0.499905  0.379780  0.217261  1
  Si  Si302  1  0.316928  0.182323  0.158465  1
  Si  Si303  1  0.682886  0.182333  0.158468  1
  Si  Si304  1  0.182880  0.317594  0.158470  1
  Si  Si305  1  0.816926  0.317610  0.158475  1
  Si  Si306  1  0.215010  0.088909  0.206768  1
  Si  Si307  1  0.784787  0.088937  0.206782  1
  Si  Si308  1  0.284788  0.410989  0.206783  1
  Si  Si309  1  0.715009  0.411025  0.206778  1
  Si  Si310  1  0.285551  0.168342  0.264325  1
  Si  Si311  1  0.714254  0.168374  0.264337  1
  Si  Si312  1  0.214256  0.331555  0.264340  1
  Si  Si313  1  0.785547  0.331586  0.264333  1
  Si  Si314  1  0.499905  0.464696  0.276045  1
  Si  Si315  1  0.000000  0.035227  0.276039  1
  Si  Si316  1  0.499912  0.130671  0.252931  1
  Si  Si317  1  -0.000000  0.369251  0.252940  1
  Si  Si318  1  0.499901  0.218903  0.195276  1
  Si  Si319  1  0.000000  0.281029  0.195283  1
  Si  Si320  1  0.000000  0.120142  0.217255  1
  H  H321  1  0.852103  0.638297  0.667526  1
  H  H322  1  0.147831  0.638308  0.667526  1
  H  H323  1  0.647840  0.861623  0.667519  1
  H  H324  1  0.352124  0.861635  0.667522  1
  H  H325  1  0.332774  0.079965  0.628046  1
  H  H326  1  0.667171  0.079983  0.628040  1
  H  H327  1  0.167141  0.419930  0.628047  1
  H  H328  1  0.832731  0.419972  0.628056  1
  H  H329  1  0.832752  0.579997  0.150313  1
  H  H330  1  0.167151  0.579957  0.150303  1
  H  H331  1  0.667174  0.919969  0.150299  1
  H  H332  1  0.332764  0.919947  0.150304  1
  H  H333  1  0.352092  0.138310  0.110826  1
  H  H334  1  0.647822  0.138296  0.110825  1
  H  H335  1  0.147783  0.361634  0.110832  1
  H  H336  1  0.852069  0.361627  0.110835  1
