# generated using pymatgen
data_Si15(HO8)4
_symmetry_space_group_name_H-M   'P 1'
_cell_length_a   26.79739289
_cell_length_b   12.91472158
_cell_length_c   34.56340988
_cell_angle_alpha   90.00000000
_cell_angle_beta   90.00000000
_cell_angle_gamma   90.00000000
_symmetry_Int_Tables_number   1
_chemical_formula_structural   Si15(HO8)4
_chemical_formula_sum   'Si60 H16 O128'
_cell_volume   11961.7348993
_cell_formula_units_Z   4
loop_
 _symmetry_equiv_pos_site_id
 _symmetry_equiv_pos_as_xyz
  1  'x, y, z'
loop_
 _atom_site_type_symbol
 _atom_site_label
 _atom_site_symmetry_multiplicity
 _atom_site_fract_x
 _atom_site_fract_y
 _atom_site_fract_z
 _atom_site_occupancy
  O  O1  1  0.171724  0.500053  0.302357  1
  O  O2  1  0.068335  0.000000  0.222198  1
  O  O3  1  0.238131  0.641926  0.302640  1
  O  O4  1  0.067961  0.858162  0.170703  1
  O  O5  1  0.238139  0.358148  0.302639  1
  O  O6  1  0.067960  0.141927  0.170708  1
  O  O7  1  0.141931  0.692338  0.290036  1
  O  O8  1  0.084214  0.807742  0.245298  1
  O  O9  1  0.141925  0.307726  0.290044  1
  O  O10  1  0.084223  0.192347  0.245297  1
  O  O11  1  0.301754  0.500060  0.305465  1
  O  O12  1  0.047822  0.669080  0.292234  1
  O  O13  1  0.081400  0.831009  0.318255  1
  O  O14  1  0.047819  0.331024  0.292227  1
  O  O15  1  0.081397  0.169065  0.318257  1
  O  O16  1  0.663692  0.326880  0.284075  1
  O  O17  1  0.591908  0.673224  0.228414  1
  O  O18  1  0.408055  0.326877  0.228413  1
  O  O19  1  0.591910  0.326887  0.228416  1
  O  O20  1  0.408058  0.673220  0.228416  1
  O  O21  1  0.432226  -0.000000  0.302802  1
  O  O22  1  0.567754  -0.000000  0.302802  1
  O  O23  1  0.336288  0.673212  0.284081  1
  O  O24  1  0.499993  0.863371  0.303989  1
  O  O25  1  0.663690  0.673210  0.284070  1
  O  O26  1  0.499989  0.136730  0.303986  1
  O  O27  1  0.411607  0.799751  0.286822  1
  O  O28  1  0.588377  0.799770  0.286817  1
  O  O29  1  0.588370  0.200333  0.286814  1
  O  O30  1  0.411603  0.200322  0.286820  1
  O  O31  1  0.421072  0.602930  0.294163  1
  O  O32  1  0.578903  0.602942  0.294157  1
  O  O33  1  0.578906  0.397163  0.294159  1
  O  O34  1  0.421074  0.397158  0.294165  1
  O  O35  1  0.336294  0.326848  0.284070  1
  O  O36  1  0.499991  0.500037  0.303856  1
  O  O37  1  0.931643  -0.000000  0.222193  1
  O  O38  1  0.828252  0.500038  0.302347  1
  O  O39  1  0.932018  0.141939  0.170703  1
  O  O40  1  0.761848  0.358167  0.302649  1
  O  O41  1  0.932013  0.858160  0.170701  1
  O  O42  1  0.761839  0.641923  0.302641  1
  O  O43  1  0.915759  0.192357  0.245295  1
  O  O44  1  0.858053  0.307741  0.290033  1
  O  O45  1  0.915757  0.807740  0.245295  1
  O  O46  1  0.858055  0.692353  0.290035  1
  O  O47  1  0.698226  0.500043  0.305456  1
  O  O48  1  0.918587  0.169079  0.318255  1
  O  O49  1  0.952158  0.331013  0.292227  1
  O  O50  1  0.918581  0.831010  0.318256  1
  O  O51  1  0.952155  0.669080  0.292228  1
  O  O52  1  -0.000000  0.500045  0.302145  1
  O  O53  1  -0.000000  0.131485  0.221138  1
  O  O54  1  -0.000000  0.868606  0.221139  1
  O  O55  1  0.068343  -0.000000  0.488474  1
  O  O56  1  0.171713  0.499984  0.408340  1
  O  O57  1  0.173029  0.368628  0.355327  1
  O  O58  1  0.067966  0.141940  0.539976  1
  O  O59  1  0.238143  0.358171  0.408088  1
  O  O60  1  0.067925  0.858152  0.539967  1
  O  O61  1  0.238108  0.641940  0.407946  1
  O  O62  1  0.084219  0.192368  0.465377  1
  O  O63  1  0.141933  0.307788  0.420643  1
  O  O64  1  0.084226  0.807739  0.465387  1
  O  O65  1  0.141918  0.692390  0.420657  1
  O  O66  1  0.301754  0.500063  0.405236  1
  O  O67  1  0.068605  -0.000000  0.355343  1
  O  O68  1  0.081395  0.169088  0.392428  1
  O  O69  1  0.047822  0.331010  0.418454  1
  O  O70  1  0.081394  0.831021  0.392418  1
  O  O71  1  0.047812  0.669063  0.418452  1
  O  O72  1  0.304450  0.359133  0.355338  1
  O  O73  1  0.304430  0.640966  0.355343  1
  O  O74  1  0.173185  0.631516  0.355359  1
  O  O75  1  0.566223  0.136738  0.355334  1
  O  O76  1  0.408066  0.673231  0.482258  1
  O  O77  1  0.591910  0.326892  0.482258  1
  O  O78  1  0.408066  0.326877  0.482263  1
  O  O79  1  0.591915  0.673241  0.482252  1
  O  O80  1  0.567753  -0.000000  0.407877  1
  O  O81  1  0.432227  0.000000  0.407877  1
  O  O82  1  0.499994  0.863387  0.406696  1
  O  O83  1  0.499989  0.136732  0.406690  1
  O  O84  1  0.588375  0.799796  0.423865  1
  O  O85  1  0.411613  0.799793  0.423867  1
  O  O86  1  0.411604  0.200320  0.423862  1
  O  O87  1  0.588363  0.200342  0.423862  1
  O  O88  1  0.578899  0.602949  0.416521  1
  O  O89  1  0.421080  0.602934  0.416521  1
  O  O90  1  0.421078  0.397175  0.416523  1
  O  O91  1  0.578899  0.397189  0.416524  1
  O  O92  1  0.433588  0.500039  0.355337  1
  O  O93  1  0.499992  0.500067  0.406823  1
  O  O94  1  0.336266  0.673233  0.426613  1
  O  O95  1  0.663701  0.673229  0.426608  1
  O  O96  1  0.663693  0.326895  0.426609  1
  O  O97  1  0.336284  0.326881  0.426617  1
  O  O98  1  0.566393  0.500058  0.355334  1
  O  O99  1  0.566230  0.863384  0.355334  1
  O  O100  1  0.433759  0.863377  0.355335  1
  O  O101  1  0.433752  0.136725  0.355335  1
  O  O102  1  0.828264  0.500060  0.408336  1
  O  O103  1  0.931642  0.000000  0.488479  1
  O  O104  1  0.826843  0.368602  0.355343  1
  O  O105  1  0.761830  0.641949  0.408050  1
  O  O106  1  0.932014  0.858168  0.539976  1
  O  O107  1  0.761862  0.358177  0.407988  1
  O  O108  1  0.932014  0.141936  0.539974  1
  O  O109  1  0.858050  0.692350  0.420644  1
  O  O110  1  0.915763  0.807759  0.465385  1
  O  O111  1  0.858052  0.307737  0.420654  1
  O  O112  1  0.915752  0.192360  0.465386  1
  O  O113  1  0.826918  0.631481  0.355323  1
  O  O114  1  0.698211  0.500050  0.405229  1
  O  O115  1  -0.000000  0.868590  0.489564  1
  O  O116  1  0.952153  0.669075  0.418456  1
  O  O117  1  0.918587  0.831018  0.392421  1
  O  O118  1  0.952156  0.331030  0.418452  1
  O  O119  1  0.918580  0.169085  0.392420  1
  O  O120  1  -0.000000  0.500046  0.408538  1
  O  O121  1  -0.000000  0.368545  0.355341  1
  O  O122  1  0.695543  0.640968  0.355327  1
  O  O123  1  0.000000  0.631554  0.355339  1
  O  O124  1  -0.000000  0.131489  0.489535  1
  O  O125  1  0.695550  0.359136  0.355338  1
  O  O126  1  0.931380  -0.000000  0.355342  1
  O  O127  1  -0.000000  0.868546  0.355340  1
  O  O128  1  -0.000000  0.131546  0.355345  1
  Si  Si129  1  0.090469  0.250049  0.285189  1
  Si  Si130  1  0.090475  0.750039  0.285186  1
  Si  Si131  1  0.295410  0.380286  0.310749  1
  Si  Si132  1  0.180844  0.619193  0.310556  1
  Si  Si133  1  0.057761  0.880895  0.215124  1
  Si  Si134  1  0.180842  0.380901  0.310536  1
  Si  Si135  1  0.057764  0.119191  0.215127  1
  Si  Si136  1  0.295397  0.619824  0.310756  1
  Si  Si137  1  0.442536  0.500044  0.310793  1
  Si  Si138  1  0.557446  0.500048  0.310790  1
  Si  Si139  1  0.442485  0.880904  0.310749  1
  Si  Si140  1  0.557500  0.880917  0.310749  1
  Si  Si141  1  0.557496  0.119189  0.310749  1
  Si  Si142  1  0.442482  0.119180  0.310752  1
  Si  Si143  1  0.392829  0.691155  0.272261  1
  Si  Si144  1  0.607148  0.691169  0.272255  1
  Si  Si145  1  0.607149  0.308933  0.272257  1
  Si  Si146  1  0.392839  0.308922  0.272258  1
  Si  Si147  1  0.942209  0.119192  0.215124  1
  Si  Si148  1  0.819140  0.380896  0.310548  1
  Si  Si149  1  0.942208  0.880896  0.215122  1
  Si  Si150  1  0.819134  0.619187  0.310525  1
  Si  Si151  1  0.704580  0.380275  0.310753  1
  Si  Si152  1  0.704574  0.619811  0.310745  1
  Si  Si153  1  0.909507  0.250047  0.285187  1
  Si  Si154  1  0.909505  0.750047  0.285187  1
  Si  Si155  1  0.000000  0.381265  0.310135  1
  Si  Si156  1  -0.000000  0.618831  0.310131  1
  Si  Si157  1  0.090488  0.250071  0.425488  1
  Si  Si158  1  0.058296  0.881267  0.355335  1
  Si  Si159  1  0.090456  0.750055  0.425491  1
  Si  Si160  1  0.057764  0.119217  0.495551  1
  Si  Si161  1  0.180855  0.380863  0.400124  1
  Si  Si162  1  0.057775  0.880910  0.495551  1
  Si  Si163  1  0.180813  0.619138  0.400155  1
  Si  Si164  1  0.295408  0.380297  0.399930  1
  Si  Si165  1  0.295381  0.619820  0.399924  1
  Si  Si166  1  0.058297  0.118836  0.355345  1
  Si  Si167  1  0.442536  0.500054  0.399883  1
  Si  Si168  1  0.557447  0.500067  0.399881  1
  Si  Si169  1  0.557501  0.880927  0.399921  1
  Si  Si170  1  0.442487  0.880926  0.399921  1
  Si  Si171  1  0.442483  0.119198  0.399921  1
  Si  Si172  1  0.557495  0.119203  0.399920  1
  Si  Si173  1  0.607151  0.691183  0.438413  1
  Si  Si174  1  0.392830  0.691168  0.438412  1
  Si  Si175  1  0.392835  0.308931  0.438420  1
  Si  Si176  1  0.607145  0.308946  0.438417  1
  Si  Si177  1  0.941683  0.118830  0.355339  1
  Si  Si178  1  0.909508  0.250049  0.425492  1
  Si  Si179  1  0.909505  0.750054  0.425492  1
  Si  Si180  1  0.819130  0.619209  0.400119  1
  Si  Si181  1  0.942216  0.880903  0.495557  1
  Si  Si182  1  0.819150  0.380911  0.400142  1
  Si  Si183  1  0.942208  0.119194  0.495552  1
  Si  Si184  1  0.704566  0.619809  0.399915  1
  Si  Si185  1  0.704585  0.380294  0.399924  1
  Si  Si186  1  0.941681  0.881262  0.355336  1
  Si  Si187  1  0.000000  0.381264  0.400548  1
  Si  Si188  1  -0.000000  0.618825  0.400546  1
  H  H189  1  0.067961  0.858162  0.144664  1
  H  H190  1  0.067960  0.141927  0.144669  1
  H  H191  1  0.591908  0.673224  0.202375  1
  H  H192  1  0.408055  0.326877  0.202373  1
  H  H193  1  0.591910  0.326887  0.202377  1
  H  H194  1  0.408058  0.673220  0.202377  1
  H  H195  1  0.932018  0.141939  0.144664  1
  H  H196  1  0.932013  0.858160  0.144662  1
  H  H197  1  0.067966  0.141940  0.566015  1
  H  H198  1  0.067925  0.858152  0.566006  1
  H  H199  1  0.408066  0.673231  0.508297  1
  H  H200  1  0.591910  0.326892  0.508297  1
  H  H201  1  0.408066  0.326877  0.508302  1
  H  H202  1  0.591915  0.673241  0.508291  1
  H  H203  1  0.932014  0.858168  0.566015  1
  H  H204  1  0.932014  0.141936  0.566013  1
