# generated using pymatgen
data_Si17H2O35
_symmetry_space_group_name_H-M   'P 1'
_cell_length_a   25.48081259
_cell_length_b   13.88888375
_cell_length_c   44.53350094
_cell_angle_alpha   90.00000000
_cell_angle_beta   90.00000000
_cell_angle_gamma   90.00000000
_symmetry_Int_Tables_number   1
_chemical_formula_structural   Si17H2O35
_chemical_formula_sum   'Si136 H16 O280'
_cell_volume   15760.4079374
_cell_formula_units_Z   8
loop_
 _symmetry_equiv_pos_site_id
 _symmetry_equiv_pos_as_xyz
  1  'x, y, z'
loop_
 _atom_site_type_symbol
 _atom_site_label
 _atom_site_symmetry_multiplicity
 _atom_site_fract_x
 _atom_site_fract_y
 _atom_site_fract_z
 _atom_site_occupancy
  O  O1  1  0.087549  0.170949  0.133449  1
  O  O2  1  0.411670  0.669817  0.133313  1
  O  O3  1  0.412361  0.329144  0.133344  1
  O  O4  1  0.087407  0.829434  0.133437  1
  O  O5  1  0.095008  0.092322  0.183782  1
  O  O6  1  0.094979  0.592352  0.276789  1
  O  O7  1  0.404113  0.591989  0.183732  1
  O  O8  1  0.403688  0.091824  0.277123  1
  O  O9  1  0.405051  0.907397  0.276506  1
  O  O10  1  0.404852  0.407549  0.183786  1
  O  O11  1  0.095119  0.407927  0.276817  1
  O  O12  1  0.095112  0.907918  0.183761  1
  O  O13  1  0.149915  0.242062  0.176161  1
  O  O14  1  0.350001  0.742857  0.176072  1
  O  O15  1  0.350290  0.257356  0.176163  1
  O  O16  1  0.149721  0.757861  0.176093  1
  O  O17  1  0.050279  0.252153  0.181729  1
  O  O18  1  0.050150  0.752111  0.278830  1
  O  O19  1  0.449681  0.751077  0.181320  1
  O  O20  1  0.449747  0.250747  0.278961  1
  O  O21  1  0.449881  0.747931  0.279332  1
  O  O22  1  0.449949  0.248087  0.181494  1
  O  O23  1  0.050219  0.248242  0.278906  1
  O  O24  1  0.050108  0.748269  0.181695  1
  O  O25  1  0.499435  0.901652  0.198890  1
  O  O26  1  0.190289  0.900521  0.262416  1
  O  O27  1  0.190260  0.400494  0.198142  1
  O  O28  1  0.308524  0.400644  0.262467  1
  O  O29  1  0.308535  0.900701  0.198079  1
  O  O30  1  0.308782  0.099634  0.198155  1
  O  O31  1  0.308822  0.599562  0.262371  1
  O  O32  1  0.190174  0.599451  0.198077  1
  O  O33  1  0.190208  0.099471  0.262483  1
  O  O34  1  0.151312  -0.000000  0.220803  1
  O  O35  1  0.151266  0.500135  0.239755  1
  O  O36  1  0.349525  0.499484  0.221392  1
  O  O37  1  0.349602  0.000000  0.239098  1
  O  O38  1  0.250589  0.000000  0.231101  1
  O  O39  1  0.250545  0.500287  0.229467  1
  O  O40  1  0.181350  0.250003  0.230319  1
  O  O41  1  0.181242  0.750015  0.230246  1
  O  O42  1  0.318526  0.750109  0.230217  1
  O  O43  1  0.318678  0.250072  0.230344  1
  O  O44  1  0.249977  0.249463  0.270651  1
  O  O45  1  0.249856  0.749603  0.189908  1
  O  O46  1  0.249946  0.750388  0.270557  1
  O  O47  1  0.250085  0.250589  0.190004  1
  O  O48  1  0.050637  0.000000  0.224967  1
  O  O49  1  0.050600  0.499913  0.235618  1
  O  O50  1  0.449712  0.500663  0.224741  1
  O  O51  1  0.449844  0.002369  0.235946  1
  O  O52  1  0.499936  0.401462  0.261774  1
  O  O53  1  0.588660  0.670468  0.133097  1
  O  O54  1  0.910792  0.170094  0.132485  1
  O  O55  1  0.910641  0.830532  0.132567  1
  O  O56  1  0.589391  0.330694  0.133009  1
  O  O57  1  0.595077  0.592848  0.183745  1
  O  O58  1  0.595229  0.092717  0.276692  1
  O  O59  1  0.904755  0.092162  0.183089  1
  O  O60  1  0.904821  0.592190  0.277467  1
  O  O61  1  0.904990  0.407696  0.277349  1
  O  O62  1  0.904998  0.907654  0.183277  1
  O  O63  1  0.596166  0.907975  0.277176  1
  O  O64  1  0.596194  0.408103  0.183540  1
  O  O65  1  0.650048  0.742834  0.176142  1
  O  O66  1  0.850126  0.242457  0.175895  1
  O  O67  1  0.849918  0.757923  0.175924  1
  O  O68  1  0.650361  0.256990  0.176028  1
  O  O69  1  0.550075  0.752769  0.180378  1
  O  O70  1  0.949982  0.251869  0.179947  1
  O  O71  1  0.949874  0.752018  0.280657  1
  O  O72  1  0.949931  0.247852  0.280686  1
  O  O73  1  0.949816  0.747773  0.179873  1
  O  O74  1  0.550277  0.748546  0.280127  1
  O  O75  1  0.550349  0.248803  0.180202  1
  O  O76  1  0.501847  0.750002  0.230283  1
  O  O77  1  0.502650  0.250153  0.230271  1
  O  O78  1  0.996800  0.750019  0.230264  1
  O  O79  1  0.501156  0.098630  0.198833  1
  O  O80  1  0.000000  0.901670  0.261607  1
  O  O81  1  -0.000000  0.401629  0.198952  1
  O  O82  1  -0.000000  0.598395  0.198904  1
  O  O83  1  0.691419  0.400628  0.262299  1
  O  O84  1  0.691466  0.900450  0.198236  1
  O  O85  1  0.810317  0.900735  0.262308  1
  O  O86  1  0.810281  0.400739  0.198293  1
  O  O87  1  0.810225  0.599472  0.198310  1
  O  O88  1  0.810187  0.099458  0.262281  1
  O  O89  1  0.691681  0.099323  0.198186  1
  O  O90  1  0.691701  0.599464  0.262421  1
  O  O91  1  0.650667  0.500757  0.221251  1
  O  O92  1  0.650721  0.000000  0.239322  1
  O  O93  1  0.848806  -0.000000  0.220380  1
  O  O94  1  0.848762  0.500055  0.240227  1
  O  O95  1  0.749655  0.499926  0.229453  1
  O  O96  1  0.749681  0.000000  0.231112  1
  O  O97  1  0.681412  0.750019  0.230351  1
  O  O98  1  0.681564  0.249999  0.230227  1
  O  O99  1  0.819263  0.250056  0.230276  1
  O  O100  1  0.819139  0.750066  0.230302  1
  O  O101  1  0.750240  0.750957  0.270535  1
  O  O102  1  0.750378  0.250705  0.190058  1
  O  O103  1  0.750277  0.249489  0.270457  1
  O  O104  1  0.750140  0.749187  0.190119  1
  O  O105  1  0.550546  0.498911  0.224598  1
  O  O106  1  0.550595  0.998246  0.235992  1
  O  O107  1  0.949324  0.000000  0.224364  1
  O  O108  1  0.949288  0.500368  0.236197  1
  O  O109  1  0.550157  0.252376  0.280415  1
  O  O110  1  0.996970  0.250040  0.230322  1
  O  O111  1  0.500690  0.598472  0.261725  1
  O  O112  1  0.000000  0.098399  0.261673  1
  O  O113  1  0.089787  0.670180  0.447852  1
  O  O114  1  0.087457  0.671018  0.327107  1
  O  O115  1  0.412531  0.170903  0.448418  1
  O  O116  1  0.412258  0.171083  0.327320  1
  O  O117  1  0.411760  0.830401  0.327146  1
  O  O118  1  0.410978  0.831834  0.448010  1
  O  O119  1  0.087495  0.329528  0.327137  1
  O  O120  1  0.089869  0.329875  0.447787  1
  O  O121  1  0.150949  0.744013  0.490812  1
  O  O122  1  0.149794  0.742186  0.284405  1
  O  O123  1  0.350964  0.242985  0.491200  1
  O  O124  1  0.350144  0.243206  0.284547  1
  O  O125  1  0.350141  0.757555  0.284343  1
  O  O126  1  0.350925  0.756441  0.491008  1
  O  O127  1  0.149840  0.257959  0.284474  1
  O  O128  1  0.151003  0.257659  0.491177  1
  O  O129  1  0.001034  0.624058  0.426709  1
  O  O130  1  0.499743  0.876190  0.426499  1
  O  O131  1  0.072079  0.500127  0.425889  1
  O  O132  1  0.070512  0.500314  0.349020  1
  O  O133  1  0.429098  0.001069  0.426112  1
  O  O134  1  0.429279  0.000000  0.349163  1
  O  O135  1  0.072231  0.635081  0.387488  1
  O  O136  1  0.428557  0.135821  0.387762  1
  O  O137  1  0.427852  0.866211  0.387563  1
  O  O138  1  0.072179  0.365353  0.387458  1
  O  O139  1  0.001013  0.376215  0.426661  1
  O  O140  1  0.589219  0.169764  0.448096  1
  O  O141  1  0.589291  0.169400  0.327443  1
  O  O142  1  0.913089  0.670528  0.449066  1
  O  O143  1  0.910691  0.669974  0.328088  1
  O  O144  1  0.910716  0.330425  0.328030  1
  O  O145  1  0.912961  0.329778  0.448888  1
  O  O146  1  0.588778  0.829610  0.327603  1
  O  O147  1  0.588028  0.828943  0.448420  1
  O  O148  1  0.650725  0.243239  0.491016  1
  O  O149  1  0.650218  0.242793  0.284398  1
  O  O150  1  0.851064  0.742567  0.491532  1
  O  O151  1  0.849994  0.742292  0.284688  1
  O  O152  1  0.850032  0.257787  0.284668  1
  O  O153  1  0.851086  0.256873  0.491313  1
  O  O154  1  0.650198  0.756881  0.284594  1
  O  O155  1  0.650571  0.756207  0.490973  1
  O  O156  1  -0.000000  0.624271  0.349364  1
  O  O157  1  0.571155  -0.000000  0.426385  1
  O  O158  1  0.571396  0.000000  0.349469  1
  O  O159  1  0.929914  0.500220  0.426978  1
  O  O160  1  0.928244  0.500448  0.350105  1
  O  O161  1  0.572624  0.134146  0.387822  1
  O  O162  1  0.928156  0.635233  0.388584  1
  O  O163  1  0.928152  0.365444  0.388475  1
  O  O164  1  0.571895  0.864526  0.388000  1
  O  O165  1  0.500542  0.124179  0.426472  1
  O  O166  1  0.000000  0.376531  0.349280  1
  O  O167  1  0.500616  0.124137  0.349084  1
  O  O168  1  0.500080  0.876145  0.349069  1
  O  O169  1  0.090068  0.169464  0.642893  1
  O  O170  1  0.411065  0.668586  0.642662  1
  O  O171  1  0.412681  0.329154  0.642406  1
  O  O172  1  0.089841  0.829929  0.642965  1
  O  O173  1  0.098175  0.592188  0.498324  1
  O  O174  1  0.099290  0.092066  0.592262  1
  O  O175  1  0.404383  0.091941  0.498916  1
  O  O176  1  0.405278  0.592667  0.591666  1
  O  O177  1  0.405403  0.407748  0.591848  1
  O  O178  1  0.404463  0.907217  0.499148  1
  O  O179  1  0.097535  0.907681  0.592424  1
  O  O180  1  0.096123  0.407651  0.498280  1
  O  O181  1  0.151179  0.244295  0.600028  1
  O  O182  1  0.350667  0.742790  0.599586  1
  O  O183  1  0.351306  0.256961  0.599600  1
  O  O184  1  0.150873  0.756705  0.599688  1
  O  O185  1  0.051083  0.750942  0.495344  1
  O  O186  1  0.051294  0.250019  0.595447  1
  O  O187  1  0.450539  0.251235  0.496660  1
  O  O188  1  0.450593  0.752454  0.595643  1
  O  O189  1  0.450858  0.247957  0.594325  1
  O  O190  1  0.450923  0.748381  0.494946  1
  O  O191  1  0.050898  0.748491  0.595730  1
  O  O192  1  0.051111  0.247302  0.494960  1
  O  O193  1  0.004011  0.749282  0.545544  1
  O  O194  1  0.004348  0.250214  0.545207  1
  O  O195  1  0.497449  0.749537  0.545323  1
  O  O196  1  0.002443  0.901536  0.514686  1
  O  O197  1  0.192405  0.400974  0.577740  1
  O  O198  1  0.192988  0.900827  0.512817  1
  O  O199  1  0.309415  0.900573  0.577328  1
  O  O200  1  0.309882  0.400508  0.513542  1
  O  O201  1  0.310188  0.598843  0.513476  1
  O  O202  1  0.309714  0.099131  0.577453  1
  O  O203  1  0.191934  0.099780  0.513134  1
  O  O204  1  0.191328  0.599616  0.577334  1
  O  O205  1  0.145195  0.497783  0.538609  1
  O  O206  1  0.142544  0.998212  0.550411  1
  O  O207  1  0.342832  0.000000  0.534105  1
  O  O208  1  0.344629  0.499679  0.556514  1
  O  O209  1  0.245681  0.500382  0.542574  1
  O  O210  1  0.243958  -0.000000  0.549063  1
  O  O211  1  0.182050  0.750543  0.545186  1
  O  O212  1  0.182256  0.250004  0.545598  1
  O  O213  1  0.319651  0.249719  0.545451  1
  O  O214  1  0.319569  0.750002  0.545292  1
  O  O215  1  0.250746  0.749590  0.585510  1
  O  O216  1  0.250869  0.250100  0.505210  1
  O  O217  1  0.251185  0.250164  0.585853  1
  O  O218  1  0.250934  0.748977  0.504949  1
  O  O219  1  0.044182  0.501425  0.536082  1
  O  O220  1  0.042166  0.001022  0.555961  1
  O  O221  1  0.442376  -0.000000  0.542392  1
  O  O222  1  0.444238  0.499823  0.548643  1
  O  O223  1  0.002715  0.401299  0.576570  1
  O  O224  1  0.001671  0.597985  0.576849  1
  O  O225  1  0.001647  0.097815  0.514427  1
  O  O226  1  0.587836  0.671697  0.642398  1
  O  O227  1  0.913156  0.170371  0.641709  1
  O  O228  1  0.912777  0.829913  0.641928  1
  O  O229  1  0.589314  0.330494  0.642682  1
  O  O230  1  0.597231  0.092616  0.498672  1
  O  O231  1  0.597232  0.591534  0.592390  1
  O  O232  1  0.905805  0.592570  0.499644  1
  O  O233  1  0.904799  0.092432  0.591127  1
  O  O234  1  0.904469  0.907624  0.591328  1
  O  O235  1  0.905147  0.407561  0.499445  1
  O  O236  1  0.595742  0.407091  0.592055  1
  O  O237  1  0.598696  0.908300  0.498595  1
  O  O238  1  0.650256  0.743222  0.599643  1
  O  O239  1  0.851298  0.243273  0.599339  1
  O  O240  1  0.850751  0.757034  0.599559  1
  O  O241  1  0.650891  0.257677  0.599728  1
  O  O242  1  0.550823  0.251830  0.495457  1
  O  O243  1  0.550845  0.750648  0.593753  1
  O  O244  1  0.950758  0.752614  0.497073  1
  O  O245  1  0.950992  0.251629  0.593633  1
  O  O246  1  0.950470  0.748282  0.593921  1
  O  O247  1  0.950734  0.247902  0.496860  1
  O  O248  1  0.551118  0.246660  0.595342  1
  O  O249  1  0.551187  0.750006  0.497053  1
  O  O250  1  0.503084  0.250589  0.545446  1
  O  O251  1  0.501168  0.401857  0.514123  1
  O  O252  1  0.691857  0.900707  0.577794  1
  O  O253  1  0.691681  0.400386  0.513116  1
  O  O254  1  0.809789  0.400921  0.577354  1
  O  O255  1  0.809057  0.900423  0.513321  1
  O  O256  1  0.809214  0.099135  0.513293  1
  O  O257  1  0.809332  0.599402  0.577477  1
  O  O258  1  0.691338  0.599152  0.513239  1
  O  O259  1  0.692439  0.099751  0.577971  1
  O  O260  1  0.642336  0.001428  0.540499  1
  O  O261  1  0.645369  0.498812  0.552278  1
  O  O262  1  0.844700  0.500517  0.534643  1
  O  O263  1  0.842848  0.000000  0.556376  1
  O  O264  1  0.743778  0.000000  0.541822  1
  O  O265  1  0.745645  0.499852  0.548004  1
  O  O266  1  0.682207  0.249686  0.545407  1
  O  O267  1  0.681888  0.750267  0.545362  1
  O  O268  1  0.818959  0.750150  0.545502  1
  O  O269  1  0.819265  0.249935  0.545334  1
  O  O270  1  0.750899  0.250579  0.585788  1
  O  O271  1  0.750660  0.749181  0.505036  1
  O  O272  1  0.750372  0.749916  0.585837  1
  O  O273  1  0.750781  0.250160  0.504970  1
  O  O274  1  0.541980  0.998862  0.535117  1
  O  O275  1  0.544209  0.501452  0.554157  1
  O  O276  1  0.944401  0.499089  0.542629  1
  O  O277  1  0.942637  0.000000  0.547919  1
  O  O278  1  0.501137  0.097820  0.576139  1
  O  O279  1  0.500627  0.598586  0.513927  1
  O  O280  1  0.500588  0.901473  0.576250  1
  Si  Si281  1  0.401745  0.499804  0.203358  1
  Si  Si282  1  0.401729  0.000000  0.257213  1
  Si  Si283  1  0.098352  0.000000  0.203355  1
  Si  Si284  1  0.304859  0.000000  0.215153  1
  Si  Si285  1  0.098325  0.500112  0.257222  1
  Si  Si286  1  0.096416  0.192495  0.168037  1
  Si  Si287  1  0.403113  0.692005  0.167896  1
  Si  Si288  1  0.403593  0.307516  0.167950  1
  Si  Si289  1  0.096300  0.807753  0.168010  1
  Si  Si290  1  0.192815  0.213678  0.263181  1
  Si  Si291  1  0.192723  0.713669  0.197387  1
  Si  Si292  1  0.306965  0.713831  0.263063  1
  Si  Si293  1  0.307081  0.213904  0.197484  1
  Si  Si294  1  0.306825  0.786420  0.197385  1
  Si  Si295  1  0.306926  0.286375  0.263177  1
  Si  Si296  1  0.192895  0.286294  0.197464  1
  Si  Si297  1  0.192798  0.786318  0.263099  1
  Si  Si298  1  0.194963  -0.000000  0.245468  1
  Si  Si299  1  0.194923  0.500029  0.215093  1
  Si  Si300  1  0.304844  0.500031  0.245381  1
  Si  Si301  1  -0.000000  0.500049  0.216459  1
  Si  Si302  1  0.000000  0.000000  0.244111  1
  Si  Si303  1  0.596906  0.692587  0.167700  1
  Si  Si304  1  0.903059  0.192106  0.167172  1
  Si  Si305  1  0.902951  0.807980  0.167214  1
  Si  Si306  1  0.597499  0.308200  0.167596  1
  Si  Si307  1  0.693313  0.713746  0.263168  1
  Si  Si308  1  0.693431  0.213595  0.197426  1
  Si  Si309  1  0.807476  0.213639  0.263096  1
  Si  Si310  1  0.807388  0.713634  0.197481  1
  Si  Si311  1  0.807555  0.286564  0.197457  1
  Si  Si312  1  0.807463  0.786554  0.263127  1
  Si  Si313  1  0.693179  0.786182  0.197511  1
  Si  Si314  1  0.693297  0.286365  0.263046  1
  Si  Si315  1  0.695294  0.500136  0.245284  1
  Si  Si316  1  0.695324  0.000000  0.215276  1
  Si  Si317  1  0.805479  0.000000  0.245247  1
  Si  Si318  1  0.805467  0.500086  0.215339  1
  Si  Si319  1  0.598460  0.500297  0.203194  1
  Si  Si320  1  0.598524  0.000000  0.257384  1
  Si  Si321  1  0.901615  0.000000  0.202766  1
  Si  Si322  1  0.901604  0.500055  0.257819  1
  Si  Si323  1  0.000000  0.211876  0.263295  1
  Si  Si324  1  0.000000  0.711875  0.197288  1
  Si  Si325  1  0.500859  0.212140  0.197280  1
  Si  Si326  1  0.500535  0.711967  0.263278  1
  Si  Si327  1  0.500451  0.287941  0.263281  1
  Si  Si328  1  0.000000  0.788211  0.263234  1
  Si  Si329  1  0.000000  0.288151  0.197343  1
  Si  Si330  1  0.500121  0.788169  0.197308  1
  Si  Si331  1  0.500253  0.000000  0.216329  1
  Si  Si332  1  0.500223  0.499938  0.244281  1
  Si  Si333  1  0.061622  0.388951  0.421902  1
  Si  Si334  1  0.060159  0.389118  0.353175  1
  Si  Si335  1  0.439133  0.889895  0.421947  1
  Si  Si336  1  0.439383  0.889610  0.353190  1
  Si  Si337  1  0.098240  0.692207  0.482444  1
  Si  Si338  1  0.096314  0.692549  0.292521  1
  Si  Si339  1  0.404090  0.192103  0.483071  1
  Si  Si340  1  0.403251  0.192281  0.292709  1
  Si  Si341  1  0.403409  0.807783  0.292572  1
  Si  Si342  1  0.403624  0.808209  0.482602  1
  Si  Si343  1  0.096406  0.307778  0.292573  1
  Si  Si344  1  0.097995  0.307675  0.482414  1
  Si  Si345  1  0.061625  0.611309  0.421920  1
  Si  Si346  1  0.060185  0.611513  0.353189  1
  Si  Si347  1  0.439808  0.112161  0.422160  1
  Si  Si348  1  0.439876  0.111957  0.353379  1
  Si  Si349  1  0.560516  0.888216  0.422365  1
  Si  Si350  1  0.560778  0.888323  0.353610  1
  Si  Si351  1  0.597758  0.192334  0.482633  1
  Si  Si352  1  0.597191  0.192219  0.292863  1
  Si  Si353  1  0.904524  0.692453  0.483644  1
  Si  Si354  1  0.902981  0.692094  0.293405  1
  Si  Si355  1  0.903044  0.307947  0.293372  1
  Si  Si356  1  0.904362  0.307673  0.483448  1
  Si  Si357  1  0.597241  0.807839  0.292994  1
  Si  Si358  1  0.597589  0.807906  0.482971  1
  Si  Si359  1  0.561192  0.110604  0.422187  1
  Si  Si360  1  0.561272  0.110659  0.353450  1
  Si  Si361  1  0.940242  0.611409  0.422876  1
  Si  Si362  1  0.938779  0.611548  0.354135  1
  Si  Si363  1  0.938752  0.389244  0.354033  1
  Si  Si364  1  0.940236  0.389059  0.422774  1
  Si  Si365  1  0.496646  0.000000  0.558655  1
  Si  Si366  1  0.002230  0.287767  0.578214  1
  Si  Si367  1  0.001980  0.788137  0.512681  1
  Si  Si368  1  0.001791  0.211229  0.512366  1
  Si  Si369  1  0.497644  0.500330  0.531542  1
  Si  Si370  1  0.098628  0.191773  0.608333  1
  Si  Si371  1  0.403603  0.691901  0.608060  1
  Si  Si372  1  0.404466  0.307672  0.607746  1
  Si  Si373  1  0.098095  0.807755  0.608356  1
  Si  Si374  1  0.193633  0.713749  0.578014  1
  Si  Si375  1  0.193802  0.214002  0.512683  1
  Si  Si376  1  0.308125  0.213349  0.578315  1
  Si  Si377  1  0.308021  0.712982  0.512489  1
  Si  Si378  1  0.307939  0.286374  0.512639  1
  Si  Si379  1  0.307753  0.786373  0.578128  1
  Si  Si380  1  0.194106  0.786537  0.512315  1
  Si  Si381  1  0.194191  0.286746  0.578405  1
  Si  Si382  1  0.193075  0.500005  0.560373  1
  Si  Si383  1  0.192469  0.000000  0.530139  1
  Si  Si384  1  0.301889  0.000000  0.560578  1
  Si  Si385  1  0.303093  0.499758  0.530427  1
  Si  Si386  1  0.096193  0.499919  0.517944  1
  Si  Si387  1  0.095737  0.000000  0.572720  1
  Si  Si388  1  0.397872  0.000000  0.518414  1
  Si  Si389  1  0.399424  0.499996  0.572369  1
  Si  Si390  1  0.001598  0.711538  0.578528  1
  Si  Si391  1  0.501208  0.288339  0.512450  1
  Si  Si392  1  0.500243  0.712158  0.512310  1
  Si  Si393  1  0.501348  0.211157  0.578253  1
  Si  Si394  1  0.998347  0.499814  0.559214  1
  Si  Si395  1  0.597142  0.692298  0.607779  1
  Si  Si396  1  0.904539  0.192290  0.607147  1
  Si  Si397  1  0.904053  0.807823  0.607380  1
  Si  Si398  1  0.597637  0.307504  0.608133  1
  Si  Si399  1  0.693901  0.214039  0.578351  1
  Si  Si400  1  0.693550  0.713300  0.512560  1
  Si  Si401  1  0.807417  0.713568  0.578337  1
  Si  Si402  1  0.807723  0.213343  0.512498  1
  Si  Si403  1  0.807562  0.786198  0.512600  1
  Si  Si404  1  0.807912  0.286762  0.578169  1
  Si  Si405  1  0.693726  0.286191  0.512534  1
  Si  Si406  1  0.693417  0.786469  0.578258  1
  Si  Si407  1  0.692286  -0.000000  0.560745  1
  Si  Si408  1  0.692948  0.499698  0.530299  1
  Si  Si409  1  0.802804  0.500210  0.560515  1
  Si  Si410  1  0.801571  0.000000  0.530087  1
  Si  Si411  1  0.595430  0.000000  0.518269  1
  Si  Si412  1  0.595890  0.499686  0.572565  1
  Si  Si413  1  0.899556  0.499916  0.518899  1
  Si  Si414  1  0.898045  0.000000  0.571878  1
  Si  Si415  1  0.997333  0.000000  0.532079  1
  Si  Si416  1  0.500032  0.788030  0.578220  1
  H  H417  1  0.087549  0.170949  0.113240  1
  H  H418  1  0.411670  0.669817  0.113103  1
  H  H419  1  0.412361  0.329144  0.113135  1
  H  H420  1  0.087407  0.829434  0.113228  1
  H  H421  1  0.588660  0.670468  0.112888  1
  H  H422  1  0.910792  0.170094  0.112275  1
  H  H423  1  0.910641  0.830532  0.112358  1
  H  H424  1  0.589391  0.330694  0.112800  1
  H  H425  1  0.090068  0.169464  0.663102  1
  H  H426  1  0.411065  0.668586  0.662872  1
  H  H427  1  0.412681  0.329154  0.662615  1
  H  H428  1  0.089841  0.829929  0.663175  1
  H  H429  1  0.587836  0.671697  0.662607  1
  H  H430  1  0.913156  0.170371  0.661919  1
  H  H431  1  0.912777  0.829913  0.662138  1
  H  H432  1  0.589314  0.330494  0.662892  1
