# generated using pymatgen
data_Si14H2O29
_symmetry_space_group_name_H-M   'P 1'
_cell_length_a   12.61611532
_cell_length_b   25.85588308
_cell_length_c   54.37906055
_cell_angle_alpha   125.89670319
_cell_angle_beta   90.00000000
_cell_angle_gamma   90.00000000
_symmetry_Int_Tables_number   1
_chemical_formula_structural   Si14H2O29
_chemical_formula_sum   'Si112 H16 O232'
_cell_volume   14369.5166054
_cell_formula_units_Z   8
loop_
 _symmetry_equiv_pos_site_id
 _symmetry_equiv_pos_as_xyz
  1  'x, y, z'
loop_
 _atom_site_type_symbol
 _atom_site_label
 _atom_site_symmetry_multiplicity
 _atom_site_fract_x
 _atom_site_fract_y
 _atom_site_fract_z
 _atom_site_occupancy
  O  O1  1  0.332688  0.201354  0.170280  1
  O  O2  1  0.326729  0.311030  0.219924  1
  O  O3  1  0.398375  0.114619  0.259647  1
  O  O4  1  0.499893  0.182119  0.247280  1
  O  O5  1  0.399410  0.222268  0.220090  1
  O  O6  1  0.201727  0.225110  0.214911  1
  O  O7  1  0.142688  0.183589  0.247650  1
  O  O8  1  0.199457  0.102979  0.260328  1
  O  O9  1  0.329837  0.001077  0.235092  1
  O  O10  1  0.327115  0.365206  0.166228  1
  O  O11  1  0.327113  0.634898  0.134107  1
  O  O12  1  0.332021  0.489972  0.208380  1
  O  O13  1  0.499893  0.421778  0.192220  1
  O  O14  1  0.360024  0.411125  0.221667  1
  O  O15  1  0.331115  0.581916  0.264737  1
  O  O16  1  0.202339  0.587974  0.228598  1
  O  O17  1  0.399151  0.601196  0.227601  1
  O  O18  1  0.142689  0.665506  0.213933  1
  O  O19  1  0.499893  0.373407  0.240058  1
  O  O20  1  0.328070  0.916822  0.244794  1
  O  O21  1  0.499891  0.786354  0.235736  1
  O  O22  1  0.359286  0.876226  0.189363  1
  O  O23  1  0.332686  0.798750  0.130055  1
  O  O24  1  0.325212  0.756277  0.162402  1
  O  O25  1  0.200283  0.703090  0.180201  1
  O  O26  1  0.398281  0.708379  0.187413  1
  O  O27  1  0.137686  0.700475  0.267456  1
  O  O28  1  0.140964  0.781940  0.235257  1
  O  O29  1  0.499891  0.668330  0.213709  1
  O  O30  1  0.499891  0.794660  0.155407  1
  O  O31  1  0.499891  0.701689  0.267163  1
  O  O32  1  0.499892  0.940737  0.229103  1
  O  O33  1  0.000000  0.226027  0.230720  1
  O  O34  1  0.667099  0.201354  0.170280  1
  O  O35  1  0.673057  0.311030  0.219924  1
  O  O36  1  0.800328  0.102979  0.260328  1
  O  O37  1  0.601410  0.114619  0.259647  1
  O  O38  1  0.600376  0.222268  0.220090  1
  O  O39  1  0.798059  0.225110  0.214911  1
  O  O40  1  0.857097  0.183589  0.247650  1
  O  O41  1  0.000000  0.142149  0.265013  1
  O  O42  1  0.669947  0.001077  0.235092  1
  O  O43  1  0.857094  0.665506  0.213933  1
  O  O44  1  0.672670  0.634898  0.134107  1
  O  O45  1  0.672671  0.365206  0.166228  1
  O  O46  1  0.667763  0.489972  0.208380  1
  O  O47  1  0.000000  0.622547  0.230561  1
  O  O48  1  0.639761  0.411125  0.221666  1
  O  O49  1  0.668668  0.581916  0.264737  1
  O  O50  1  0.797444  0.587975  0.228598  1
  O  O51  1  0.600632  0.601197  0.227602  1
  O  O52  1  0.000000  0.708739  0.197563  1
  O  O53  1  0.671713  0.916821  0.244794  1
  O  O54  1  0.640497  0.876226  0.189363  1
  O  O55  1  0.667097  0.798750  0.130055  1
  O  O56  1  0.674571  0.756276  0.162401  1
  O  O57  1  0.799500  0.703090  0.180201  1
  O  O58  1  0.601502  0.708379  0.187413  1
  O  O59  1  0.858819  0.781940  0.235257  1
  O  O60  1  0.862098  0.700475  0.267456  1
  O  O61  1  0.328071  0.083283  0.291869  1
  O  O62  1  0.499892  0.059367  0.307560  1
  O  O63  1  0.359288  0.123878  0.347300  1
  O  O64  1  0.499893  0.213751  0.300928  1
  O  O65  1  0.332688  0.201354  0.406608  1
  O  O66  1  0.325214  0.243828  0.374262  1
  O  O67  1  0.200284  0.297014  0.356462  1
  O  O68  1  0.398283  0.291725  0.349250  1
  O  O69  1  0.326729  0.311030  0.456252  1
  O  O70  1  0.499893  0.298415  0.269500  1
  O  O71  1  0.499893  0.331774  0.322954  1
  O  O72  1  0.398375  0.114619  0.495975  1
  O  O73  1  0.499893  0.182119  0.483608  1
  O  O74  1  0.399410  0.222268  0.456418  1
  O  O75  1  0.201727  0.225110  0.451239  1
  O  O76  1  0.499893  0.205444  0.381257  1
  O  O77  1  0.142688  0.183589  0.483978  1
  O  O78  1  0.137687  0.299629  0.269208  1
  O  O79  1  0.140965  0.218164  0.301407  1
  O  O80  1  0.199457  0.102979  0.496656  1
  O  O81  1  0.329837  0.001077  0.471420  1
  O  O82  1  0.327115  0.365206  0.402556  1
  O  O83  1  0.327113  0.634898  0.370435  1
  O  O84  1  0.332021  0.489972  0.444708  1
  O  O85  1  0.332021  0.510132  0.328283  1
  O  O86  1  0.499893  0.421778  0.428548  1
  O  O87  1  0.360024  0.411125  0.457995  1
  O  O88  1  0.360023  0.588979  0.314997  1
  O  O89  1  0.499892  0.578326  0.344443  1
  O  O90  1  0.499892  0.626697  0.296606  1
  O  O91  1  0.331117  0.418189  0.271926  1
  O  O92  1  0.331115  0.581916  0.501065  1
  O  O93  1  0.202340  0.412130  0.308066  1
  O  O94  1  0.202339  0.587974  0.464926  1
  O  O95  1  0.399152  0.398908  0.309062  1
  O  O96  1  0.399151  0.601196  0.463930  1
  O  O97  1  0.142690  0.334599  0.322730  1
  O  O98  1  0.142689  0.665506  0.450261  1
  O  O99  1  0.499893  0.373407  0.476386  1
  O  O100  1  0.328070  0.916822  0.481122  1
  O  O101  1  0.499891  0.786354  0.472064  1
  O  O102  1  0.359286  0.876226  0.425691  1
  O  O103  1  0.332686  0.798750  0.366383  1
  O  O104  1  0.325212  0.756277  0.398730  1
  O  O105  1  0.200283  0.703090  0.416529  1
  O  O106  1  0.398281  0.708379  0.423741  1
  O  O107  1  0.326727  0.689074  0.316739  1
  O  O108  1  0.398374  0.885485  0.277017  1
  O  O109  1  0.499891  0.817985  0.289383  1
  O  O110  1  0.399408  0.777836  0.316573  1
  O  O111  1  0.201726  0.774994  0.321752  1
  O  O112  1  0.142687  0.816515  0.289013  1
  O  O113  1  0.137686  0.700475  0.503784  1
  O  O114  1  0.140964  0.781940  0.471585  1
  O  O115  1  0.199456  0.897126  0.276335  1
  O  O116  1  0.499891  0.668330  0.450037  1
  O  O117  1  0.499891  0.794660  0.391735  1
  O  O118  1  0.499891  0.701689  0.503491  1
  O  O119  1  0.499892  0.940737  0.465431  1
  O  O120  1  0.329837  0.000000  0.301571  1
  O  O121  1  0.000000  0.291365  0.339100  1
  O  O122  1  0.000000  0.226027  0.467048  1
  O  O123  1  0.671714  0.083282  0.291869  1
  O  O124  1  0.640498  0.123878  0.347300  1
  O  O125  1  0.667099  0.201354  0.406608  1
  O  O126  1  0.674572  0.243828  0.374262  1
  O  O127  1  0.799501  0.297014  0.356462  1
  O  O128  1  0.601503  0.291725  0.349250  1
  O  O129  1  0.673057  0.311030  0.456252  1
  O  O130  1  0.800328  0.102979  0.496656  1
  O  O131  1  0.601410  0.114619  0.495975  1
  O  O132  1  0.600376  0.222268  0.456418  1
  O  O133  1  0.798059  0.225110  0.451239  1
  O  O134  1  0.857097  0.183589  0.483978  1
  O  O135  1  0.862099  0.299629  0.269208  1
  O  O136  1  0.858820  0.218164  0.301407  1
  O  O137  1  0.000000  0.142149  0.501341  1
  O  O138  1  0.669947  0.001077  0.471420  1
  O  O139  1  0.857095  0.334599  0.322730  1
  O  O140  1  0.857094  0.665506  0.450261  1
  O  O141  1  0.672670  0.634898  0.370435  1
  O  O142  1  0.672671  0.365206  0.402556  1
  O  O143  1  0.667763  0.510132  0.328283  1
  O  O144  1  0.667763  0.489972  0.444708  1
  O  O145  1  0.000000  0.622547  0.466889  1
  O  O146  1  0.639760  0.588979  0.314997  1
  O  O147  1  0.639761  0.411125  0.457994  1
  O  O148  1  0.668668  0.581916  0.501065  1
  O  O149  1  0.668669  0.418189  0.271926  1
  O  O150  1  0.797444  0.587975  0.464926  1
  O  O151  1  0.797445  0.412130  0.308065  1
  O  O152  1  0.600632  0.601197  0.463930  1
  O  O153  1  0.600634  0.398908  0.309062  1
  O  O154  1  0.000000  0.377557  0.306102  1
  O  O155  1  0.000000  0.708739  0.433891  1
  O  O156  1  0.857096  0.816515  0.289013  1
  O  O157  1  0.671713  0.916821  0.481122  1
  O  O158  1  0.640497  0.876226  0.425691  1
  O  O159  1  0.800327  0.897125  0.276335  1
  O  O160  1  0.667097  0.798750  0.366383  1
  O  O161  1  0.674571  0.756276  0.398729  1
  O  O162  1  0.799500  0.703090  0.416529  1
  O  O163  1  0.601502  0.708379  0.423741  1
  O  O164  1  0.673055  0.689074  0.316739  1
  O  O165  1  0.000000  0.857956  0.271650  1
  O  O166  1  0.858819  0.781940  0.471585  1
  O  O167  1  0.862098  0.700475  0.503784  1
  O  O168  1  0.601409  0.885485  0.277017  1
  O  O169  1  0.600375  0.777836  0.316573  1
  O  O170  1  0.798057  0.774994  0.321753  1
  O  O171  1  0.000000  0.774078  0.305943  1
  O  O172  1  0.669947  0.000000  0.301571  1
  O  O173  1  0.328071  0.083283  0.528197  1
  O  O174  1  0.499892  0.059367  0.543888  1
  O  O175  1  0.359288  0.123878  0.583628  1
  O  O176  1  0.499893  0.213751  0.537256  1
  O  O177  1  0.332688  0.201354  0.642936  1
  O  O178  1  0.325214  0.243828  0.610590  1
  O  O179  1  0.200284  0.297014  0.592790  1
  O  O180  1  0.398283  0.291725  0.585578  1
  O  O181  1  0.499893  0.298415  0.505828  1
  O  O182  1  0.499893  0.331774  0.559282  1
  O  O183  1  0.499893  0.205444  0.617585  1
  O  O184  1  0.137687  0.299629  0.505536  1
  O  O185  1  0.140965  0.218164  0.537735  1
  O  O186  1  0.327115  0.365206  0.638884  1
  O  O187  1  0.327113  0.634898  0.606763  1
  O  O188  1  0.332021  0.510132  0.564611  1
  O  O189  1  0.360023  0.588979  0.551325  1
  O  O190  1  0.499892  0.578326  0.580772  1
  O  O191  1  0.499892  0.626697  0.532934  1
  O  O192  1  0.331117  0.418189  0.508254  1
  O  O193  1  0.202340  0.412130  0.544394  1
  O  O194  1  0.399152  0.398908  0.545390  1
  O  O195  1  0.142690  0.334599  0.559058  1
  O  O196  1  0.332686  0.798750  0.602711  1
  O  O197  1  0.326727  0.689074  0.553067  1
  O  O198  1  0.398374  0.885485  0.513345  1
  O  O199  1  0.499891  0.817985  0.525711  1
  O  O200  1  0.399408  0.777836  0.552901  1
  O  O201  1  0.201726  0.774994  0.558080  1
  O  O202  1  0.142687  0.816515  0.525341  1
  O  O203  1  0.199456  0.897126  0.512663  1
  O  O204  1  0.329837  0.000000  0.537899  1
  O  O205  1  0.000000  0.291365  0.575428  1
  O  O206  1  0.671714  0.083282  0.528197  1
  O  O207  1  0.640498  0.123878  0.583628  1
  O  O208  1  0.667099  0.201354  0.642936  1
  O  O209  1  0.674572  0.243828  0.610590  1
  O  O210  1  0.799501  0.297014  0.592790  1
  O  O211  1  0.601503  0.291725  0.585578  1
  O  O212  1  0.862099  0.299629  0.505536  1
  O  O213  1  0.858820  0.218164  0.537735  1
  O  O214  1  0.857095  0.334599  0.559058  1
  O  O215  1  0.672670  0.634898  0.606763  1
  O  O216  1  0.672671  0.365206  0.638884  1
  O  O217  1  0.667763  0.510132  0.564611  1
  O  O218  1  0.639760  0.588979  0.551325  1
  O  O219  1  0.668669  0.418189  0.508254  1
  O  O220  1  0.797445  0.412130  0.544394  1
  O  O221  1  0.600634  0.398908  0.545390  1
  O  O222  1  0.000000  0.377557  0.542430  1
  O  O223  1  0.857096  0.816515  0.525341  1
  O  O224  1  0.800327  0.897125  0.512663  1
  O  O225  1  0.667097  0.798750  0.602711  1
  O  O226  1  0.673055  0.689074  0.553067  1
  O  O227  1  0.000000  0.857956  0.507978  1
  O  O228  1  0.601409  0.885485  0.513345  1
  O  O229  1  0.600375  0.777836  0.552901  1
  O  O230  1  0.798057  0.774994  0.558081  1
  O  O231  1  0.000000  0.774078  0.542271  1
  O  O232  1  0.669947  0.000000  0.537899  1
  Si  Si233  1  0.121573  0.231300  0.238858  1
  Si  Si234  1  0.121919  0.158485  0.267732  1
  Si  Si235  1  0.310993  0.238158  0.205255  1
  Si  Si236  1  0.309158  0.074331  0.260940  1
  Si  Si237  1  0.499893  0.230161  0.238754  1
  Si  Si238  1  0.499893  0.155420  0.266646  1
  Si  Si239  1  0.121592  0.640234  0.233900  1
  Si  Si240  1  0.377106  0.422427  0.196514  1
  Si  Si241  1  0.376681  0.379508  0.238733  1
  Si  Si242  1  0.312500  0.563676  0.231871  1
  Si  Si243  1  0.499891  0.641901  0.233258  1
  Si  Si244  1  0.121820  0.713323  0.205210  1
  Si  Si245  1  0.376793  0.933566  0.223588  1
  Si  Si246  1  0.377149  0.807322  0.159308  1
  Si  Si247  1  0.309533  0.700346  0.165548  1
  Si  Si248  1  0.499891  0.717212  0.205588  1
  Si  Si249  1  0.878212  0.231300  0.238858  1
  Si  Si250  1  0.877866  0.158485  0.267732  1
  Si  Si251  1  0.688794  0.238159  0.205256  1
  Si  Si252  1  0.690628  0.074330  0.260939  1
  Si  Si253  1  0.878191  0.640234  0.233900  1
  Si  Si254  1  0.622679  0.422427  0.196514  1
  Si  Si255  1  0.623105  0.379508  0.238733  1
  Si  Si256  1  0.687283  0.563677  0.231871  1
  Si  Si257  1  0.877963  0.713323  0.205210  1
  Si  Si258  1  0.622991  0.933566  0.223588  1
  Si  Si259  1  0.622633  0.807322  0.159308  1
  Si  Si260  1  0.690249  0.700346  0.165548  1
  Si  Si261  1  0.121573  0.231300  0.475186  1
  Si  Si262  1  0.121821  0.286781  0.331453  1
  Si  Si263  1  0.121919  0.158485  0.504060  1
  Si  Si264  1  0.376793  0.066538  0.313075  1
  Si  Si265  1  0.377151  0.192782  0.377355  1
  Si  Si266  1  0.309535  0.299758  0.371116  1
  Si  Si267  1  0.310993  0.238158  0.441584  1
  Si  Si268  1  0.309158  0.074331  0.497268  1
  Si  Si269  1  0.499893  0.230161  0.475082  1
  Si  Si270  1  0.499893  0.155420  0.502974  1
  Si  Si271  1  0.499893  0.282892  0.331075  1
  Si  Si272  1  0.121593  0.359870  0.302764  1
  Si  Si273  1  0.121592  0.640234  0.470228  1
  Si  Si274  1  0.377106  0.422427  0.432842  1
  Si  Si275  1  0.377105  0.577677  0.340150  1
  Si  Si276  1  0.376681  0.379508  0.475061  1
  Si  Si277  1  0.376680  0.620596  0.297930  1
  Si  Si278  1  0.312501  0.436428  0.304792  1
  Si  Si279  1  0.312500  0.563676  0.468199  1
  Si  Si280  1  0.499893  0.358203  0.303405  1
  Si  Si281  1  0.499891  0.641901  0.469586  1
  Si  Si282  1  0.121572  0.768804  0.297805  1
  Si  Si283  1  0.121820  0.713323  0.441538  1
  Si  Si284  1  0.121918  0.841619  0.268932  1
  Si  Si285  1  0.376793  0.933566  0.459916  1
  Si  Si286  1  0.377149  0.807322  0.395636  1
  Si  Si287  1  0.309533  0.700346  0.401876  1
  Si  Si288  1  0.310991  0.761946  0.331408  1
  Si  Si289  1  0.309156  0.925774  0.275724  1
  Si  Si290  1  0.499891  0.844684  0.270018  1
  Si  Si291  1  0.499891  0.769943  0.297910  1
  Si  Si292  1  0.499891  0.717212  0.441916  1
  Si  Si293  1  0.878212  0.231300  0.475186  1
  Si  Si294  1  0.877965  0.286781  0.331453  1
  Si  Si295  1  0.877866  0.158485  0.504060  1
  Si  Si296  1  0.622992  0.066538  0.313075  1
  Si  Si297  1  0.622635  0.192782  0.377355  1
  Si  Si298  1  0.690250  0.299758  0.371116  1
  Si  Si299  1  0.688794  0.238159  0.441584  1
  Si  Si300  1  0.690628  0.074330  0.497267  1
  Si  Si301  1  0.878191  0.640234  0.470228  1
  Si  Si302  1  0.878193  0.359870  0.302763  1
  Si  Si303  1  0.622678  0.577677  0.340150  1
  Si  Si304  1  0.622679  0.422427  0.432842  1
  Si  Si305  1  0.623103  0.620596  0.297930  1
  Si  Si306  1  0.623105  0.379508  0.475061  1
  Si  Si307  1  0.687283  0.563677  0.468199  1
  Si  Si308  1  0.687284  0.436428  0.304792  1
  Si  Si309  1  0.878211  0.768804  0.297805  1
  Si  Si310  1  0.877963  0.713323  0.441538  1
  Si  Si311  1  0.877866  0.841619  0.268932  1
  Si  Si312  1  0.622991  0.933566  0.459916  1
  Si  Si313  1  0.622633  0.807322  0.395636  1
  Si  Si314  1  0.690249  0.700346  0.401876  1
  Si  Si315  1  0.688792  0.761946  0.331408  1
  Si  Si316  1  0.690627  0.925774  0.275724  1
  Si  Si317  1  0.121821  0.286781  0.567781  1
  Si  Si318  1  0.376793  0.066538  0.549403  1
  Si  Si319  1  0.377151  0.192782  0.613683  1
  Si  Si320  1  0.309535  0.299758  0.607444  1
  Si  Si321  1  0.499893  0.282892  0.567403  1
  Si  Si322  1  0.121593  0.359870  0.539092  1
  Si  Si323  1  0.377105  0.577677  0.576478  1
  Si  Si324  1  0.376680  0.620596  0.534258  1
  Si  Si325  1  0.312501  0.436428  0.541120  1
  Si  Si326  1  0.499893  0.358203  0.539733  1
  Si  Si327  1  0.121572  0.768804  0.534133  1
  Si  Si328  1  0.121918  0.841619  0.505260  1
  Si  Si329  1  0.310991  0.761946  0.567736  1
  Si  Si330  1  0.309156  0.925774  0.512052  1
  Si  Si331  1  0.499891  0.844684  0.506346  1
  Si  Si332  1  0.499891  0.769943  0.534238  1
  Si  Si333  1  0.877965  0.286781  0.567781  1
  Si  Si334  1  0.622992  0.066538  0.549403  1
  Si  Si335  1  0.622635  0.192782  0.613683  1
  Si  Si336  1  0.690250  0.299758  0.607444  1
  Si  Si337  1  0.878193  0.359870  0.539092  1
  Si  Si338  1  0.622678  0.577677  0.576478  1
  Si  Si339  1  0.623103  0.620596  0.534258  1
  Si  Si340  1  0.687284  0.436428  0.541120  1
  Si  Si341  1  0.878211  0.768804  0.534133  1
  Si  Si342  1  0.877866  0.841619  0.505260  1
  Si  Si343  1  0.688792  0.761946  0.567736  1
  Si  Si344  1  0.690627  0.925774  0.512052  1
  H  H345  1  0.332688  0.201354  0.153730  1
  H  H346  1  0.327115  0.365206  0.149678  1
  H  H347  1  0.327113  0.634898  0.117556  1
  H  H348  1  0.332686  0.798750  0.113505  1
  H  H349  1  0.667099  0.201354  0.153730  1
  H  H350  1  0.672670  0.634898  0.117556  1
  H  H351  1  0.672671  0.365206  0.149678  1
  H  H352  1  0.667097  0.798750  0.113504  1
  H  H353  1  0.332688  0.201354  0.659487  1
  H  H354  1  0.327115  0.365206  0.655435  1
  H  H355  1  0.327113  0.634898  0.623313  1
  H  H356  1  0.332686  0.798750  0.619262  1
  H  H357  1  0.667099  0.201354  0.659487  1
  H  H358  1  0.672670  0.634898  0.623313  1
  H  H359  1  0.672671  0.365206  0.655435  1
  H  H360  1  0.667097  0.798750  0.619262  1
