# generated using pymatgen
data_Si16H2O33
_symmetry_space_group_name_H-M   'P 1'
_cell_length_a   7.67548774
_cell_length_b   23.17903353
_cell_length_c   53.89858382
_cell_angle_alpha   54.18632819
_cell_angle_beta   90.00000000
_cell_angle_gamma   80.03446768
_symmetry_Int_Tables_number   1
_chemical_formula_structural   Si16H2O33
_chemical_formula_sum   'Si64 H8 O132'
_cell_volume   7596.91659885
_cell_formula_units_Z   4
loop_
 _symmetry_equiv_pos_site_id
 _symmetry_equiv_pos_as_xyz
  1  'x, y, z'
loop_
 _atom_site_type_symbol
 _atom_site_label
 _atom_site_symmetry_multiplicity
 _atom_site_fract_x
 _atom_site_fract_y
 _atom_site_fract_z
 _atom_site_occupancy
  O  O1  1  0.320633  0.313517  0.132025  1
  O  O2  1  0.320628  0.813528  0.132028  1
  O  O3  1  0.177844  0.066855  0.207970  1
  O  O4  1  0.177842  0.566863  0.207969  1
  O  O5  1  0.822009  0.933247  0.241593  1
  O  O6  1  0.822008  0.433256  0.241590  1
  O  O7  1  0.822008  0.933256  0.309731  1
  O  O8  1  0.822008  0.433247  0.309732  1
  O  O9  1  0.177843  0.066863  0.276109  1
  O  O10  1  0.177843  0.566855  0.276112  1
  O  O11  1  0.287399  0.974734  0.265224  1
  O  O12  1  0.287398  0.474734  0.265222  1
  O  O13  1  0.712454  0.025376  0.252478  1
  O  O14  1  0.712452  0.525377  0.252480  1
  O  O15  1  0.278014  0.924137  0.233095  1
  O  O16  1  0.278013  0.424147  0.233088  1
  O  O17  1  0.721839  0.075964  0.194885  1
  O  O18  1  0.721836  0.575974  0.194886  1
  O  O19  1  0.721837  0.075974  0.284607  1
  O  O20  1  0.721838  0.575964  0.284613  1
  O  O21  1  0.278014  0.924147  0.322817  1
  O  O22  1  0.278015  0.424137  0.322816  1
  O  O23  1  0.499927  0.000000  0.226424  1
  O  O24  1  0.499924  0.500059  0.226423  1
  O  O25  1  0.499926  -0.000000  0.291277  1
  O  O26  1  0.499926  0.500052  0.291279  1
  O  O27  1  0.903621  0.172567  0.173779  1
  O  O28  1  0.903616  0.672577  0.173782  1
  O  O29  1  0.096236  0.827534  0.260610  1
  O  O30  1  0.096230  0.327544  0.260602  1
  O  O31  1  0.096232  0.827544  0.343922  1
  O  O32  1  0.096235  0.327533  0.343920  1
  O  O33  1  0.903617  0.172577  0.257092  1
  O  O34  1  0.903620  0.672567  0.257099  1
  O  O35  1  0.056120  0.153989  0.220113  1
  O  O36  1  0.056118  0.653989  0.220117  1
  O  O37  1  0.943733  0.846122  0.297589  1
  O  O38  1  0.943732  0.346122  0.297585  1
  O  O39  1  0.230545  0.197925  0.175198  1
  O  O40  1  0.230538  0.697935  0.175200  1
  O  O41  1  0.769313  0.802176  0.274790  1
  O  O42  1  0.769307  0.302185  0.274784  1
  O  O43  1  0.769308  0.802185  0.342504  1
  O  O44  1  0.769313  0.302176  0.342501  1
  O  O45  1  0.230539  0.197935  0.242911  1
  O  O46  1  0.230544  0.697925  0.242918  1
  O  O47  1  0.679226  0.686582  0.289795  1
  O  O48  1  0.679219  0.186593  0.289787  1
  O  O49  1  0.320633  0.313517  0.383669  1
  O  O50  1  0.320628  0.813528  0.383671  1
  O  O51  1  0.320628  0.313528  0.227907  1
  O  O52  1  0.320634  0.813517  0.227915  1
  O  O53  1  0.679218  0.686593  0.134033  1
  O  O54  1  0.679224  0.186582  0.134030  1
  O  O55  1  0.440731  0.795986  0.276000  1
  O  O56  1  0.440723  0.295996  0.275993  1
  O  O57  1  0.559129  0.204115  0.173292  1
  O  O58  1  0.559121  0.704124  0.173295  1
  O  O59  1  0.559122  0.204124  0.241702  1
  O  O60  1  0.559129  0.704115  0.241709  1
  O  O61  1  0.440724  0.795996  0.344410  1
  O  O62  1  0.440729  0.295986  0.344407  1
  O  O63  1  0.646700  0.731380  0.326464  1
  O  O64  1  0.646700  0.231380  0.326458  1
  O  O65  1  0.353152  0.268731  0.191237  1
  O  O66  1  0.353151  0.768731  0.191243  1
  O  O67  1  0.177844  0.066855  0.459614  1
  O  O68  1  0.177842  0.566863  0.459613  1
  O  O69  1  0.822009  0.933247  0.493237  1
  O  O70  1  0.822008  0.433256  0.493233  1
  O  O71  1  0.822008  0.933256  0.561375  1
  O  O72  1  0.822008  0.433247  0.561376  1
  O  O73  1  0.177843  0.066863  0.527753  1
  O  O74  1  0.177843  0.566855  0.527756  1
  O  O75  1  0.287399  0.974734  0.516868  1
  O  O76  1  0.287398  0.474734  0.516866  1
  O  O77  1  0.712454  0.025376  0.504122  1
  O  O78  1  0.712452  0.525377  0.504123  1
  O  O79  1  0.278014  0.924137  0.484738  1
  O  O80  1  0.278013  0.424147  0.484732  1
  O  O81  1  0.721839  0.075964  0.446528  1
  O  O82  1  0.721836  0.575974  0.446529  1
  O  O83  1  0.721837  0.075974  0.536251  1
  O  O84  1  0.721838  0.575964  0.536257  1
  O  O85  1  0.278014  0.924147  0.574461  1
  O  O86  1  0.278015  0.424137  0.574460  1
  O  O87  1  0.499927  0.000000  0.478068  1
  O  O88  1  0.499924  0.500059  0.478066  1
  O  O89  1  0.499926  -0.000000  0.542921  1
  O  O90  1  0.499926  0.500052  0.542923  1
  O  O91  1  0.903621  0.172567  0.425423  1
  O  O92  1  0.903616  0.672577  0.425426  1
  O  O93  1  0.096236  0.827534  0.512253  1
  O  O94  1  0.096230  0.327544  0.512246  1
  O  O95  1  0.096232  0.827544  0.595566  1
  O  O96  1  0.096235  0.327533  0.595564  1
  O  O97  1  0.903617  0.172577  0.508736  1
  O  O98  1  0.903620  0.672567  0.508743  1
  O  O99  1  0.056120  0.153989  0.471756  1
  O  O100  1  0.056118  0.653989  0.471760  1
  O  O101  1  0.943733  0.846122  0.549233  1
  O  O102  1  0.943732  0.346122  0.549229  1
  O  O103  1  0.230545  0.197925  0.426842  1
  O  O104  1  0.230538  0.697935  0.426844  1
  O  O105  1  0.769313  0.802176  0.526434  1
  O  O106  1  0.769307  0.302185  0.526427  1
  O  O107  1  0.769308  0.802185  0.594147  1
  O  O108  1  0.769313  0.302176  0.594145  1
  O  O109  1  0.230539  0.197935  0.494555  1
  O  O110  1  0.230544  0.697925  0.494562  1
  O  O111  1  0.679226  0.686582  0.541439  1
  O  O112  1  0.679219  0.186593  0.541430  1
  O  O113  1  0.320633  0.313517  0.635313  1
  O  O114  1  0.320628  0.813528  0.635315  1
  O  O115  1  0.320628  0.313528  0.479551  1
  O  O116  1  0.320634  0.813517  0.479559  1
  O  O117  1  0.679218  0.686593  0.385677  1
  O  O118  1  0.679224  0.186582  0.385674  1
  O  O119  1  0.440731  0.795986  0.527644  1
  O  O120  1  0.440723  0.295996  0.527636  1
  O  O121  1  0.559129  0.204115  0.424936  1
  O  O122  1  0.559121  0.704124  0.424938  1
  O  O123  1  0.559122  0.204124  0.493345  1
  O  O124  1  0.559129  0.704115  0.493352  1
  O  O125  1  0.440724  0.795996  0.596053  1
  O  O126  1  0.440729  0.295986  0.596051  1
  O  O127  1  0.646700  0.731380  0.578108  1
  O  O128  1  0.646700  0.231380  0.578102  1
  O  O129  1  0.353152  0.268731  0.442881  1
  O  O130  1  0.353151  0.768731  0.442887  1
  O  O131  1  0.679218  0.686593  0.637321  1
  O  O132  1  0.679224  0.186582  0.637318  1
  Si  Si133  1  0.283494  0.841161  0.248634  1
  Si  Si134  1  0.283489  0.341171  0.248627  1
  Si  Si135  1  0.716363  0.158939  0.168662  1
  Si  Si136  1  0.716357  0.658950  0.168665  1
  Si  Si137  1  0.716358  0.158950  0.269067  1
  Si  Si138  1  0.716361  0.658939  0.269075  1
  Si  Si139  1  0.283490  0.841171  0.349039  1
  Si  Si140  1  0.283494  0.341160  0.349037  1
  Si  Si141  1  0.304531  0.990788  0.232571  1
  Si  Si142  1  0.304528  0.490794  0.232568  1
  Si  Si143  1  0.695324  0.009316  0.227907  1
  Si  Si144  1  0.695320  0.509323  0.227907  1
  Si  Si145  1  0.695322  0.009323  0.285131  1
  Si  Si146  1  0.695323  0.509316  0.285134  1
  Si  Si147  1  0.304529  0.990794  0.289795  1
  Si  Si148  1  0.304530  0.490788  0.289795  1
  Si  Si149  1  0.091159  0.149493  0.192631  1
  Si  Si150  1  0.091158  0.649500  0.192633  1
  Si  Si151  1  0.908694  0.850610  0.267847  1
  Si  Si152  1  0.908692  0.350617  0.267841  1
  Si  Si153  1  0.908693  0.850617  0.325071  1
  Si  Si154  1  0.908693  0.350610  0.325069  1
  Si  Si155  1  0.091158  0.149500  0.249855  1
  Si  Si156  1  0.091158  0.649493  0.249861  1
  Si  Si157  1  0.634656  0.751292  0.292917  1
  Si  Si158  1  0.634649  0.251302  0.292909  1
  Si  Si159  1  0.365203  0.248809  0.167715  1
  Si  Si160  1  0.365195  0.748818  0.167718  1
  Si  Si161  1  0.365196  0.248818  0.224785  1
  Si  Si162  1  0.365202  0.748808  0.224793  1
  Si  Si163  1  0.634650  0.751302  0.349987  1
  Si  Si164  1  0.634656  0.251292  0.349984  1
  Si  Si165  1  0.283494  0.841161  0.500278  1
  Si  Si166  1  0.283489  0.341171  0.500270  1
  Si  Si167  1  0.716363  0.158939  0.420306  1
  Si  Si168  1  0.716357  0.658950  0.420308  1
  Si  Si169  1  0.716358  0.158950  0.520711  1
  Si  Si170  1  0.716361  0.658939  0.520719  1
  Si  Si171  1  0.283490  0.841171  0.600683  1
  Si  Si172  1  0.283494  0.341160  0.600681  1
  Si  Si173  1  0.304531  0.990788  0.484215  1
  Si  Si174  1  0.304528  0.490794  0.484212  1
  Si  Si175  1  0.695324  0.009316  0.479551  1
  Si  Si176  1  0.695320  0.509323  0.479550  1
  Si  Si177  1  0.695322  0.009323  0.536774  1
  Si  Si178  1  0.695323  0.509316  0.536778  1
  Si  Si179  1  0.304529  0.990794  0.541439  1
  Si  Si180  1  0.304530  0.490788  0.541439  1
  Si  Si181  1  0.091159  0.149493  0.444275  1
  Si  Si182  1  0.091158  0.649500  0.444277  1
  Si  Si183  1  0.908694  0.850610  0.519491  1
  Si  Si184  1  0.908692  0.350617  0.519485  1
  Si  Si185  1  0.908693  0.850617  0.576715  1
  Si  Si186  1  0.908693  0.350610  0.576713  1
  Si  Si187  1  0.091158  0.149500  0.501499  1
  Si  Si188  1  0.091158  0.649493  0.501505  1
  Si  Si189  1  0.634656  0.751292  0.544561  1
  Si  Si190  1  0.634649  0.251302  0.544553  1
  Si  Si191  1  0.365203  0.248809  0.419358  1
  Si  Si192  1  0.365195  0.748818  0.419361  1
  Si  Si193  1  0.365196  0.248818  0.476429  1
  Si  Si194  1  0.365202  0.748808  0.476436  1
  Si  Si195  1  0.634650  0.751302  0.601631  1
  Si  Si196  1  0.634656  0.251292  0.601628  1
  H  H197  1  0.320633  0.313517  0.115327  1
  H  H198  1  0.320628  0.813528  0.115330  1
  H  H199  1  0.679218  0.686593  0.117335  1
  H  H200  1  0.679224  0.186582  0.117332  1
  H  H201  1  0.320633  0.313517  0.652011  1
  H  H202  1  0.320628  0.813528  0.652013  1
  H  H203  1  0.679218  0.686593  0.654019  1
  H  H204  1  0.679224  0.186582  0.654016  1
