# generated using pymatgen
data_Si7H2O15
_symmetry_space_group_name_H-M   'P 1'
_cell_length_a   12.27583869
_cell_length_b   28.16119110
_cell_length_c   46.36285209
_cell_angle_alpha   50.13120226
_cell_angle_beta   90.00000000
_cell_angle_gamma   64.06390339
_symmetry_Int_Tables_number   1
_chemical_formula_structural   Si7H2O15
_chemical_formula_sum   'Si56 H16 O120'
_cell_volume   10108.7559805
_cell_formula_units_Z   8
loop_
 _symmetry_equiv_pos_site_id
 _symmetry_equiv_pos_as_xyz
  1  'x, y, z'
loop_
 _atom_site_type_symbol
 _atom_site_label
 _atom_site_symmetry_multiplicity
 _atom_site_fract_x
 _atom_site_fract_y
 _atom_site_fract_z
 _atom_site_occupancy
  O  O1  1  0.499971  0.000000  0.451741  1
  O  O2  1  0.446550  0.400144  0.264178  1
  O  O3  1  0.553356  0.099908  0.428296  1
  O  O4  1  0.691051  0.496571  0.266882  1
  O  O5  1  0.308871  0.003476  0.425594  1
  O  O6  1  0.548677  0.393912  0.314207  1
  O  O7  1  0.451240  0.106136  0.378267  1
  O  O8  1  0.934092  0.409358  0.319298  1
  O  O9  1  0.738001  0.471585  0.329658  1
  O  O10  1  0.771581  0.367058  0.336652  1
  O  O11  1  0.112106  0.392675  0.359685  1
  O  O12  1  0.165538  0.362637  0.317604  1
  O  O13  1  0.834351  0.137410  0.374873  1
  O  O14  1  0.663279  0.321472  0.387489  1
  O  O15  1  0.738851  0.258937  0.360935  1
  O  O16  1  0.261060  0.241116  0.331542  1
  O  O17  1  0.355151  0.320009  0.296983  1
  O  O18  1  0.644737  0.180049  0.395490  1
  O  O19  1  0.517977  0.186466  0.439714  1
  O  O20  1  0.397743  0.243193  0.370805  1
  O  O21  1  0.602126  0.256866  0.321661  1
  O  O22  1  0.065809  0.090696  0.373185  1
  O  O23  1  0.065771  0.090738  0.248669  1
  O  O24  1  0.261865  0.028482  0.362812  1
  O  O25  1  0.261858  0.028501  0.307493  1
  O  O26  1  0.228330  0.132992  0.355824  1
  O  O27  1  0.228294  0.133028  0.233090  1
  O  O28  1  0.887796  0.107404  0.332780  1
  O  O29  1  0.887742  0.107432  0.276059  1
  O  O30  1  0.336633  0.178586  0.304982  1
  O  O31  1  0.336614  0.178599  0.248437  1
  O  O32  1  0.481900  0.313605  0.252753  1
  O  O33  1  0.481930  0.313611  0.195528  1
  O  O34  1  0.547600  0.085096  0.313112  1
  O  O35  1  0.770794  0.062320  0.321983  1
  O  O36  1  0.456220  0.223414  0.259255  1
  O  O37  1  0.677143  0.201659  0.267733  1
  O  O38  1  0.000000  -0.000000  0.281846  1
  O  O39  1  0.000000  0.000000  0.410613  1
  O  O40  1  0.446561  0.400164  0.506076  1
  O  O41  1  0.553297  0.099954  0.186375  1
  O  O42  1  0.691036  0.496598  0.428276  1
  O  O43  1  0.308821  0.003516  0.264175  1
  O  O44  1  0.548649  0.393948  0.460889  1
  O  O45  1  0.451199  0.106173  0.231558  1
  O  O46  1  0.934088  0.409380  0.443783  1
  O  O47  1  0.738012  0.471598  0.384964  1
  O  O48  1  0.771563  0.367085  0.459362  1
  O  O49  1  0.112124  0.392670  0.416397  1
  O  O50  1  0.165517  0.362684  0.481851  1
  O  O51  1  0.834339  0.137433  0.210598  1
  O  O52  1  0.663255  0.321495  0.444022  1
  O  O53  1  0.738817  0.258965  0.519275  1
  O  O54  1  0.261026  0.241151  0.173182  1
  O  O55  1  0.517931  0.186489  0.496929  1
  O  O56  1  0.322736  0.298433  0.424727  1
  O  O57  1  0.452300  0.414978  0.379350  1
  O  O58  1  0.229093  0.437771  0.370480  1
  O  O59  1  0.543676  0.276666  0.433203  1
  O  O60  1  0.499908  0.000000  0.240715  1
  O  O61  1  0.000000  0.500026  0.281857  1
  O  O62  1  0.553346  0.599913  0.186390  1
  O  O63  1  0.446589  0.900130  0.506083  1
  O  O64  1  0.308867  0.503486  0.264192  1
  O  O65  1  0.691054  0.996567  0.428279  1
  O  O66  1  0.451246  0.606141  0.231572  1
  O  O67  1  0.548684  0.893908  0.460901  1
  O  O68  1  0.065819  0.590704  0.248683  1
  O  O69  1  0.261890  0.528488  0.307502  1
  O  O70  1  0.228339  0.633002  0.233103  1
  O  O71  1  0.887795  0.607400  0.276072  1
  O  O72  1  0.834385  0.637403  0.210611  1
  O  O73  1  0.165551  0.862644  0.481857  1
  O  O74  1  0.336649  0.678593  0.248438  1
  O  O75  1  0.261074  0.741122  0.173184  1
  O  O76  1  0.738863  0.758931  0.519279  1
  O  O77  1  0.481946  0.813591  0.195530  1
  O  O78  1  0.499958  0.500027  0.240733  1
  O  O79  1  0.934077  0.909386  0.319271  1
  O  O80  1  0.934102  0.909348  0.443788  1
  O  O81  1  0.738009  0.971610  0.329639  1
  O  O82  1  0.738023  0.971579  0.384962  1
  O  O83  1  0.771549  0.867095  0.336634  1
  O  O84  1  0.771585  0.867053  0.459365  1
  O  O85  1  0.112098  0.892671  0.359677  1
  O  O86  1  0.112105  0.892667  0.416390  1
  O  O87  1  0.663237  0.821504  0.387474  1
  O  O88  1  0.663257  0.821479  0.444024  1
  O  O89  1  0.517954  0.686486  0.439707  1
  O  O90  1  0.517968  0.686470  0.496934  1
  O  O91  1  0.452269  0.914990  0.379346  1
  O  O92  1  0.229073  0.937769  0.370472  1
  O  O93  1  0.543642  0.776674  0.433201  1
  O  O94  1  0.322722  0.798427  0.424732  1
  O  O95  1  0.553327  0.599949  0.428281  1
  O  O96  1  0.446547  0.900169  0.264163  1
  O  O97  1  0.308841  0.503515  0.425585  1
  O  O98  1  0.691015  0.996605  0.266862  1
  O  O99  1  0.451222  0.606168  0.378258  1
  O  O100  1  0.548638  0.893952  0.314189  1
  O  O101  1  0.065802  0.590728  0.373165  1
  O  O102  1  0.261910  0.528485  0.362815  1
  O  O103  1  0.228318  0.633022  0.355812  1
  O  O104  1  0.887779  0.607416  0.332776  1
  O  O105  1  0.834362  0.637439  0.374865  1
  O  O106  1  0.165534  0.862683  0.317577  1
  O  O107  1  0.336627  0.678603  0.304975  1
  O  O108  1  0.261052  0.741151  0.331527  1
  O  O109  1  0.738825  0.758970  0.360918  1
  O  O110  1  0.644734  0.680081  0.395479  1
  O  O111  1  0.355167  0.820028  0.296967  1
  O  O112  1  0.481951  0.813609  0.252746  1
  O  O113  1  0.602163  0.756881  0.321659  1
  O  O114  1  0.397733  0.743238  0.370785  1
  O  O115  1  0.677171  0.701647  0.267729  1
  O  O116  1  0.000000  0.500056  0.410603  1
  O  O117  1  0.770812  0.562307  0.321985  1
  O  O118  1  0.547606  0.585099  0.313115  1
  O  O119  1  0.499940  0.500057  0.451733  1
  O  O120  1  0.456239  0.723414  0.259261  1
  Si  Si121  1  0.531242  0.175217  0.410367  1
  Si  Si122  1  0.446643  0.451030  0.268814  1
  Si  Si123  1  0.553280  0.049020  0.423659  1
  Si  Si124  1  0.287790  0.294377  0.328140  1
  Si  Si125  1  0.712107  0.205671  0.364336  1
  Si  Si126  1  0.787476  0.434287  0.313722  1
  Si  Si127  1  0.055155  0.415338  0.319506  1
  Si  Si128  1  0.688770  0.332004  0.351142  1
  Si  Si129  1  0.468654  0.324837  0.282109  1
  Si  Si130  1  0.212424  0.065767  0.378756  1
  Si  Si131  1  0.212392  0.065801  0.262511  1
  Si  Si132  1  0.944746  0.084718  0.372968  1
  Si  Si133  1  0.944715  0.084751  0.253538  1
  Si  Si134  1  0.311145  0.168042  0.341332  1
  Si  Si135  1  0.311110  0.168079  0.220287  1
  Si  Si136  1  0.416304  0.166786  0.281306  1
  Si  Si137  1  0.808278  0.120245  0.299428  1
  Si  Si138  1  0.524613  0.265884  0.242722  1
  Si  Si139  1  0.699865  0.021188  0.337995  1
  Si  Si140  1  0.446627  0.451059  0.461809  1
  Si  Si141  1  0.553225  0.049061  0.230640  1
  Si  Si142  1  0.787472  0.434308  0.429944  1
  Si  Si143  1  0.055145  0.415364  0.438912  1
  Si  Si144  1  0.688738  0.332041  0.472160  1
  Si  Si145  1  0.191606  0.379847  0.393033  1
  Si  Si146  1  0.475258  0.234200  0.449738  1
  Si  Si147  1  0.300039  0.478893  0.354468  1
  Si  Si148  1  0.583590  0.333285  0.411160  1
  Si  Si149  1  0.553272  0.549025  0.230656  1
  Si  Si150  1  0.446657  0.951023  0.461816  1
  Si  Si151  1  0.212433  0.565777  0.262523  1
  Si  Si152  1  0.944763  0.584717  0.253551  1
  Si  Si153  1  0.311158  0.668049  0.220300  1
  Si  Si154  1  0.531226  0.675255  0.410351  1
  Si  Si155  1  0.787460  0.934318  0.313700  1
  Si  Si156  1  0.787484  0.934281  0.429944  1
  Si  Si157  1  0.055141  0.915364  0.319488  1
  Si  Si158  1  0.055158  0.915335  0.438918  1
  Si  Si159  1  0.688730  0.832048  0.351125  1
  Si  Si160  1  0.688771  0.832001  0.472172  1
  Si  Si161  1  0.583564  0.833300  0.411151  1
  Si  Si162  1  0.191590  0.879843  0.393028  1
  Si  Si163  1  0.475253  0.734202  0.449741  1
  Si  Si164  1  0.300005  0.978899  0.354460  1
  Si  Si165  1  0.468671  0.824858  0.282094  1
  Si  Si166  1  0.553253  0.549053  0.423651  1
  Si  Si167  1  0.446602  0.951064  0.268797  1
  Si  Si168  1  0.712104  0.705704  0.364325  1
  Si  Si169  1  0.287791  0.794413  0.328120  1
  Si  Si170  1  0.212422  0.565793  0.378745  1
  Si  Si171  1  0.944740  0.584747  0.372956  1
  Si  Si172  1  0.311132  0.668073  0.341321  1
  Si  Si173  1  0.524646  0.765878  0.242721  1
  Si  Si174  1  0.699867  0.521184  0.338000  1
  Si  Si175  1  0.416316  0.666791  0.281305  1
  Si  Si176  1  0.808301  0.620231  0.299431  1
  H  H177  1  0.481930  0.313611  0.176116  1
  H  H178  1  0.446561  0.400164  0.525488  1
  H  H179  1  0.553297  0.099954  0.166963  1
  H  H180  1  0.165517  0.362684  0.501263  1
  H  H181  1  0.834339  0.137433  0.191186  1
  H  H182  1  0.738817  0.258965  0.538687  1
  H  H183  1  0.261026  0.241151  0.153770  1
  H  H184  1  0.517931  0.186489  0.516341  1
  H  H185  1  0.553346  0.599913  0.166978  1
  H  H186  1  0.446589  0.900130  0.525495  1
  H  H187  1  0.834385  0.637403  0.191199  1
  H  H188  1  0.165551  0.862644  0.501269  1
  H  H189  1  0.261074  0.741122  0.153772  1
  H  H190  1  0.738863  0.758931  0.538691  1
  H  H191  1  0.481946  0.813591  0.176117  1
  H  H192  1  0.517968  0.686470  0.516346  1
