# generated using pymatgen
data_Si56H6O115
_symmetry_space_group_name_H-M   'P 1'
_cell_length_a   13.64855836
_cell_length_b   32.66871493
_cell_length_c   70.65572372
_cell_angle_alpha   129.57970072
_cell_angle_beta   90.00000000
_cell_angle_gamma   90.00000000
_symmetry_Int_Tables_number   1
_chemical_formula_structural   Si56H6O115
_chemical_formula_sum   'Si224 H24 O460'
_cell_volume   24281.3892978
_cell_formula_units_Z   4
loop_
 _symmetry_equiv_pos_site_id
 _symmetry_equiv_pos_as_xyz
  1  'x, y, z'
loop_
 _atom_site_type_symbol
 _atom_site_label
 _atom_site_symmetry_multiplicity
 _atom_site_fract_x
 _atom_site_fract_y
 _atom_site_fract_z
 _atom_site_occupancy
  O  O1  1  0.171702  0.850094  0.104559  1
  O  O2  1  0.828053  0.850094  0.104553  1
  O  O3  1  0.328091  0.350097  0.104559  1
  O  O4  1  0.671741  0.350097  0.104553  1
  O  O5  1  0.160202  0.050557  0.159193  1
  O  O6  1  0.160202  0.550557  0.306491  1
  O  O7  1  0.160201  0.449524  0.276728  1
  O  O8  1  0.160201  0.949523  0.129430  1
  O  O9  1  0.128836  0.000000  0.113589  1
  O  O10  1  0.128836  0.500036  0.260887  1
  O  O11  1  0.131381  0.250042  0.212705  1
  O  O12  1  0.131381  0.750042  0.360003  1
  O  O13  1  0.499872  0.071078  0.193657  1
  O  O14  1  0.499872  0.571077  0.340955  1
  O  O15  1  0.171704  0.149987  0.192904  1
  O  O16  1  0.171704  0.649987  0.340203  1
  O  O17  1  0.171702  0.350095  0.251857  1
  O  O18  1  0.171702  0.850094  0.399155  1
  O  O19  1  0.132872  0.321238  0.208214  1
  O  O20  1  0.132872  0.821237  0.355512  1
  O  O21  1  0.134482  0.085535  0.202127  1
  O  O22  1  0.134482  0.585535  0.349425  1
  O  O23  1  0.365272  0.085540  0.222724  1
  O  O24  1  0.365272  0.585539  0.370022  1
  O  O25  1  0.365272  0.414548  0.319650  1
  O  O26  1  0.365272  0.914547  0.172352  1
  O  O27  1  0.134482  0.414547  0.299055  1
  O  O28  1  0.134482  0.914547  0.151757  1
  O  O29  1  0.306306  0.084848  0.188655  1
  O  O30  1  0.306306  0.584848  0.335953  1
  O  O31  1  0.193443  0.084855  0.235792  1
  O  O32  1  0.193443  0.584855  0.383090  1
  O  O33  1  0.193445  0.415235  0.333123  1
  O  O34  1  0.193445  0.915235  0.185825  1
  O  O35  1  0.306305  0.415233  0.285987  1
  O  O36  1  0.306305  0.915233  0.138689  1
  O  O37  1  0.499873  0.429007  0.299103  1
  O  O38  1  0.499873  0.929006  0.151805  1
  O  O39  1  0.127464  0.000000  0.195641  1
  O  O40  1  0.127464  0.500043  0.342939  1
  O  O41  1  0.372289  0.000000  0.178841  1
  O  O42  1  0.372289  0.500042  0.326139  1
  O  O43  1  0.132872  0.178849  0.166266  1
  O  O44  1  0.132872  0.678849  0.313564  1
  O  O45  1  0.839547  0.050557  0.159187  1
  O  O46  1  0.839547  0.550557  0.306485  1
  O  O47  1  0.839548  0.449523  0.276723  1
  O  O48  1  0.839548  0.949523  0.129425  1
  O  O49  1  0.000000  0.320860  0.232623  1
  O  O50  1  0.000000  0.820860  0.379921  1
  O  O51  1  0.000000  0.000000  0.139267  1
  O  O52  1  0.000000  0.500039  0.286565  1
  O  O53  1  0.868384  0.250042  0.212700  1
  O  O54  1  0.868384  0.750042  0.359998  1
  O  O55  1  0.828052  0.149987  0.192899  1
  O  O56  1  0.828052  0.649987  0.340197  1
  O  O57  1  0.828053  0.350094  0.251852  1
  O  O58  1  0.828053  0.850094  0.399150  1
  O  O59  1  0.866923  0.178849  0.166261  1
  O  O60  1  0.866923  0.678849  0.313559  1
  O  O61  1  0.634482  0.085538  0.222718  1
  O  O62  1  0.634482  0.585539  0.370016  1
  O  O63  1  0.865272  0.085536  0.202122  1
  O  O64  1  0.865272  0.585537  0.349420  1
  O  O65  1  0.865272  0.414545  0.299049  1
  O  O66  1  0.865272  0.914545  0.151751  1
  O  O67  1  0.634482  0.414550  0.319645  1
  O  O68  1  0.634482  0.914550  0.172347  1
  O  O69  1  0.806306  0.084853  0.235786  1
  O  O70  1  0.806306  0.584853  0.383084  1
  O  O71  1  0.693444  0.084851  0.188650  1
  O  O72  1  0.693444  0.584851  0.335948  1
  O  O73  1  0.693445  0.415231  0.285981  1
  O  O74  1  0.693445  0.915231  0.138683  1
  O  O75  1  0.806305  0.415237  0.333118  1
  O  O76  1  0.806305  0.915237  0.185820  1
  O  O77  1  0.000000  0.071079  0.222669  1
  O  O78  1  0.000000  0.571079  0.369968  1
  O  O79  1  0.000000  0.429008  0.328116  1
  O  O80  1  0.000000  0.929009  0.180818  1
  O  O81  1  0.627464  0.000000  0.178834  1
  O  O82  1  0.627464  0.500043  0.326132  1
  O  O83  1  0.872288  0.000000  0.195634  1
  O  O84  1  0.872288  0.500043  0.342932  1
  O  O85  1  0.000000  0.179223  0.190897  1
  O  O86  1  0.000000  0.679223  0.338195  1
  O  O87  1  0.866922  0.321238  0.208209  1
  O  O88  1  0.866922  0.821237  0.355507  1
  O  O89  1  0.870958  0.000000  0.113584  1
  O  O90  1  0.870958  0.500035  0.260882  1
  O  O91  1  0.339590  0.050561  0.306494  1
  O  O92  1  0.339590  0.550561  0.159195  1
  O  O93  1  0.339544  0.050561  0.245049  1
  O  O94  1  0.339544  0.550561  0.392347  1
  O  O95  1  0.339552  0.449527  0.362585  1
  O  O96  1  0.339552  0.949527  0.215287  1
  O  O97  1  0.339594  0.449526  0.129429  1
  O  O98  1  0.339594  0.949526  0.276728  1
  O  O99  1  0.370958  0.000000  0.260890  1
  O  O100  1  0.370958  0.500048  0.113592  1
  O  O101  1  0.368413  0.250042  0.360003  1
  O  O102  1  0.368413  0.750042  0.212705  1
  O  O103  1  0.368384  0.250043  0.309072  1
  O  O104  1  0.368384  0.750043  0.161774  1
  O  O105  1  0.499912  0.179225  0.338195  1
  O  O106  1  0.499912  0.679224  0.190897  1
  O  O107  1  0.328091  0.149989  0.340204  1
  O  O108  1  0.328091  0.649989  0.192906  1
  O  O109  1  0.328053  0.149990  0.269922  1
  O  O110  1  0.328053  0.649990  0.122624  1
  O  O111  1  0.328052  0.350098  0.328873  1
  O  O112  1  0.328052  0.850097  0.181575  1
  O  O113  1  0.328091  0.350097  0.399155  1
  O  O114  1  0.328091  0.850097  0.251857  1
  O  O115  1  0.366923  0.178848  0.313564  1
  O  O116  1  0.366923  0.678848  0.166266  1
  O  O117  1  0.366922  0.321236  0.355511  1
  O  O118  1  0.366922  0.821236  0.208213  1
  O  O119  1  0.499915  0.000000  0.286567  1
  O  O120  1  0.499915  0.500046  0.139269  1
  O  O121  1  0.499878  0.000000  0.235208  1
  O  O122  1  0.499878  0.500048  0.382507  1
  O  O123  1  0.499883  0.179225  0.289150  1
  O  O124  1  0.499883  0.679224  0.141852  1
  O  O125  1  0.499883  0.320861  0.330876  1
  O  O126  1  0.499883  0.820861  0.183578  1
  O  O127  1  0.499911  0.320861  0.379921  1
  O  O128  1  0.499911  0.820861  0.232623  1
  O  O129  1  0.660247  0.050561  0.306489  1
  O  O130  1  0.660247  0.550561  0.159190  1
  O  O131  1  0.660205  0.050561  0.245044  1
  O  O132  1  0.660205  0.550561  0.392342  1
  O  O133  1  0.660199  0.449527  0.362580  1
  O  O134  1  0.660199  0.949527  0.215282  1
  O  O135  1  0.660245  0.449527  0.129424  1
  O  O136  1  0.660245  0.949527  0.276722  1
  O  O137  1  0.628836  0.000000  0.260886  1
  O  O138  1  0.628836  0.500049  0.113588  1
  O  O139  1  0.631411  0.250043  0.359999  1
  O  O140  1  0.631411  0.750043  0.212701  1
  O  O141  1  0.631381  0.250043  0.309068  1
  O  O142  1  0.631381  0.750043  0.161770  1
  O  O143  1  0.671742  0.149990  0.340199  1
  O  O144  1  0.671742  0.649990  0.192901  1
  O  O145  1  0.671703  0.149991  0.269916  1
  O  O146  1  0.671703  0.649990  0.122618  1
  O  O147  1  0.671703  0.350098  0.328868  1
  O  O148  1  0.671703  0.850097  0.181569  1
  O  O149  1  0.671741  0.350097  0.399149  1
  O  O150  1  0.671741  0.850098  0.251851  1
  O  O151  1  0.632873  0.178848  0.313559  1
  O  O152  1  0.632873  0.678848  0.166261  1
  O  O153  1  0.632871  0.321237  0.355507  1
  O  O154  1  0.632871  0.821237  0.208209  1
  O  O155  1  0.160245  0.050561  0.392349  1
  O  O156  1  0.160245  0.550561  0.245051  1
  O  O157  1  0.160247  0.449527  0.215285  1
  O  O158  1  0.160247  0.949527  0.362583  1
  O  O159  1  0.131411  0.250045  0.161775  1
  O  O160  1  0.131411  0.750045  0.309073  1
  O  O161  1  0.171742  0.149990  0.122624  1
  O  O162  1  0.171742  0.649990  0.269922  1
  O  O163  1  0.171742  0.350098  0.181575  1
  O  O164  1  0.171742  0.850097  0.328873  1
  O  O165  1  0.134522  0.085537  0.370023  1
  O  O166  1  0.134522  0.585537  0.222725  1
  O  O167  1  0.365312  0.085539  0.349428  1
  O  O168  1  0.365312  0.585538  0.202130  1
  O  O169  1  0.365313  0.414550  0.151756  1
  O  O170  1  0.365313  0.914550  0.299054  1
  O  O171  1  0.134522  0.414545  0.172350  1
  O  O172  1  0.134522  0.914545  0.319648  1
  O  O173  1  0.306350  0.084852  0.383091  1
  O  O174  1  0.306350  0.584852  0.235793  1
  O  O175  1  0.193488  0.084852  0.335956  1
  O  O176  1  0.193488  0.584852  0.188658  1
  O  O177  1  0.193489  0.415236  0.138688  1
  O  O178  1  0.193489  0.915237  0.285986  1
  O  O179  1  0.306350  0.415232  0.185822  1
  O  O180  1  0.306350  0.915232  0.333120  1
  O  O181  1  0.499921  0.071079  0.369969  1
  O  O182  1  0.499921  0.571078  0.222671  1
  O  O183  1  0.499922  0.429007  0.180816  1
  O  O184  1  0.499922  0.929007  0.328114  1
  O  O185  1  0.127506  0.000000  0.326139  1
  O  O186  1  0.127506  0.500042  0.178841  1
  O  O187  1  0.372330  0.000000  0.342938  1
  O  O188  1  0.372330  0.500043  0.195640  1
  O  O189  1  0.839593  0.050561  0.392344  1
  O  O190  1  0.839593  0.550561  0.245046  1
  O  O191  1  0.839591  0.449526  0.215279  1
  O  O192  1  0.839591  0.949526  0.362577  1
  O  O193  1  0.868413  0.250045  0.161770  1
  O  O194  1  0.868413  0.750045  0.309068  1
  O  O195  1  0.000000  0.000000  0.382505  1
  O  O196  1  0.000000  0.500042  0.235207  1
  O  O197  1  0.000000  0.320863  0.183579  1
  O  O198  1  0.000000  0.820863  0.330877  1
  O  O199  1  0.828091  0.149990  0.122618  1
  O  O200  1  0.828091  0.649990  0.269916  1
  O  O201  1  0.828091  0.350097  0.181569  1
  O  O202  1  0.828091  0.850097  0.328867  1
  O  O203  1  0.634522  0.085541  0.349423  1
  O  O204  1  0.634522  0.585541  0.202125  1
  O  O205  1  0.865312  0.085535  0.370017  1
  O  O206  1  0.865312  0.585535  0.222719  1
  O  O207  1  0.865312  0.414546  0.172344  1
  O  O208  1  0.865312  0.914546  0.319643  1
  O  O209  1  0.634521  0.414549  0.151750  1
  O  O210  1  0.634521  0.914549  0.299048  1
  O  O211  1  0.806350  0.084854  0.335951  1
  O  O212  1  0.806350  0.584854  0.188653  1
  O  O213  1  0.693488  0.084850  0.383085  1
  O  O214  1  0.693488  0.584850  0.235787  1
  O  O215  1  0.693488  0.415234  0.185817  1
  O  O216  1  0.693488  0.915234  0.333115  1
  O  O217  1  0.806350  0.415234  0.138682  1
  O  O218  1  0.806350  0.915234  0.285980  1
  O  O219  1  0.000000  0.071079  0.340957  1
  O  O220  1  0.000000  0.571078  0.193659  1
  O  O221  1  0.000000  0.429007  0.151804  1
  O  O222  1  0.000000  0.929007  0.299102  1
  O  O223  1  0.627506  0.000000  0.342932  1
  O  O224  1  0.627506  0.500043  0.195634  1
  O  O225  1  0.872330  0.000000  0.326132  1
  O  O226  1  0.872330  0.500042  0.178834  1
  O  O227  1  0.000000  0.179226  0.141852  1
  O  O228  1  0.000000  0.679226  0.289150  1
  O  O229  1  0.160202  0.050557  0.453789  1
  O  O230  1  0.160202  0.550557  0.601087  1
  O  O231  1  0.160201  0.449524  0.571325  1
  O  O232  1  0.160201  0.949523  0.424026  1
  O  O233  1  0.128836  0.000000  0.408185  1
  O  O234  1  0.128836  0.500036  0.555483  1
  O  O235  1  0.131381  0.250041  0.507301  1
  O  O236  1  0.131381  0.750042  0.654599  1
  O  O237  1  0.499872  0.071078  0.488253  1
  O  O238  1  0.499872  0.571078  0.635552  1
  O  O239  1  0.171704  0.149987  0.487501  1
  O  O240  1  0.171704  0.649987  0.634799  1
  O  O241  1  0.171702  0.350095  0.546454  1
  O  O242  1  0.171702  0.850094  0.693752  1
  O  O243  1  0.132872  0.321237  0.502810  1
  O  O244  1  0.132872  0.821237  0.650108  1
  O  O245  1  0.134482  0.085535  0.496723  1
  O  O246  1  0.134482  0.585535  0.644021  1
  O  O247  1  0.365272  0.085540  0.517320  1
  O  O248  1  0.365272  0.585539  0.664618  1
  O  O249  1  0.365272  0.414547  0.614246  1
  O  O250  1  0.365272  0.914548  0.466948  1
  O  O251  1  0.134482  0.414547  0.593651  1
  O  O252  1  0.134482  0.914547  0.446353  1
  O  O253  1  0.306306  0.084849  0.483251  1
  O  O254  1  0.306306  0.584848  0.630549  1
  O  O255  1  0.193443  0.084855  0.530388  1
  O  O256  1  0.193443  0.584855  0.677686  1
  O  O257  1  0.193445  0.415235  0.627719  1
  O  O258  1  0.193445  0.915235  0.480421  1
  O  O259  1  0.306305  0.415233  0.580583  1
  O  O260  1  0.306305  0.915233  0.433285  1
  O  O261  1  0.499873  0.429007  0.593699  1
  O  O262  1  0.499873  0.929006  0.446401  1
  O  O263  1  0.127464  -0.000000  0.490237  1
  O  O264  1  0.127464  0.500044  0.637535  1
  O  O265  1  0.372289  0.000000  0.473437  1
  O  O266  1  0.372289  0.500042  0.620735  1
  O  O267  1  0.132872  0.178849  0.460862  1
  O  O268  1  0.132872  0.678849  0.608160  1
  O  O269  1  0.839547  0.050557  0.453783  1
  O  O270  1  0.839547  0.550557  0.601082  1
  O  O271  1  0.839548  0.449523  0.571320  1
  O  O272  1  0.839548  0.949523  0.424021  1
  O  O273  1  0.000000  0.320860  0.527219  1
  O  O274  1  0.000000  0.820860  0.674517  1
  O  O275  1  0.000000  0.000000  0.433863  1
  O  O276  1  0.000000  0.500039  0.581161  1
  O  O277  1  0.868384  0.250042  0.507296  1
  O  O278  1  0.868384  0.750042  0.654595  1
  O  O279  1  0.828052  0.149987  0.487495  1
  O  O280  1  0.828052  0.649987  0.634793  1
  O  O281  1  0.828053  0.350095  0.546448  1
  O  O282  1  0.828053  0.850094  0.693746  1
  O  O283  1  0.866923  0.178849  0.460857  1
  O  O284  1  0.866923  0.678849  0.608155  1
  O  O285  1  0.634482  0.085538  0.517314  1
  O  O286  1  0.634482  0.585538  0.664613  1
  O  O287  1  0.865272  0.085536  0.496718  1
  O  O288  1  0.865272  0.585536  0.644016  1
  O  O289  1  0.865272  0.414545  0.593645  1
  O  O290  1  0.865272  0.914546  0.446347  1
  O  O291  1  0.634482  0.414550  0.614241  1
  O  O292  1  0.634482  0.914550  0.466943  1
  O  O293  1  0.806306  0.084853  0.530382  1
  O  O294  1  0.806306  0.584853  0.677680  1
  O  O295  1  0.693444  0.084851  0.483246  1
  O  O296  1  0.693444  0.584851  0.630544  1
  O  O297  1  0.693445  0.415231  0.580577  1
  O  O298  1  0.693445  0.915231  0.433279  1
  O  O299  1  0.806305  0.415238  0.627714  1
  O  O300  1  0.806305  0.915237  0.480416  1
  O  O301  1  0.000000  0.071079  0.517266  1
  O  O302  1  0.000000  0.571079  0.664564  1
  O  O303  1  0.000000  0.429008  0.622712  1
  O  O304  1  0.000000  0.929008  0.475414  1
  O  O305  1  0.627464  0.000000  0.473431  1
  O  O306  1  0.627464  0.500042  0.620729  1
  O  O307  1  0.872288  0.000000  0.490230  1
  O  O308  1  0.872288  0.500043  0.637528  1
  O  O309  1  -0.000000  0.179223  0.485493  1
  O  O310  1  0.000000  0.679223  0.632791  1
  O  O311  1  0.866922  0.321238  0.502805  1
  O  O312  1  0.866922  0.821237  0.650103  1
  O  O313  1  0.870958  0.000000  0.408180  1
  O  O314  1  0.870958  0.500035  0.555478  1
  O  O315  1  0.339590  0.050560  0.601090  1
  O  O316  1  0.339590  0.550561  0.453792  1
  O  O317  1  0.339544  0.050560  0.539645  1
  O  O318  1  0.339544  0.550561  0.686944  1
  O  O319  1  0.339552  0.449527  0.657181  1
  O  O320  1  0.339552  0.949527  0.509883  1
  O  O321  1  0.339594  0.449526  0.424026  1
  O  O322  1  0.339594  0.949526  0.571324  1
  O  O323  1  0.370958  0.000000  0.555486  1
  O  O324  1  0.370958  0.500048  0.408188  1
  O  O325  1  0.368413  0.250042  0.654599  1
  O  O326  1  0.368413  0.750042  0.507301  1
  O  O327  1  0.368384  0.250043  0.603668  1
  O  O328  1  0.368384  0.750043  0.456370  1
  O  O329  1  0.499912  0.179225  0.632791  1
  O  O330  1  0.499912  0.679225  0.485493  1
  O  O331  1  0.328091  0.149990  0.634801  1
  O  O332  1  0.328091  0.649989  0.487503  1
  O  O333  1  0.328053  0.149990  0.564518  1
  O  O334  1  0.328053  0.649990  0.417220  1
  O  O335  1  0.328052  0.350097  0.623470  1
  O  O336  1  0.328052  0.850098  0.476171  1
  O  O337  1  0.328091  0.350097  0.693751  1
  O  O338  1  0.328091  0.850097  0.546453  1
  O  O339  1  0.366923  0.178848  0.608160  1
  O  O340  1  0.366923  0.678848  0.460862  1
  O  O341  1  0.366922  0.321236  0.650108  1
  O  O342  1  0.366922  0.821236  0.502809  1
  O  O343  1  0.499915  0.000000  0.581163  1
  O  O344  1  0.499915  0.500046  0.433865  1
  O  O345  1  0.499878  -0.000000  0.529805  1
  O  O346  1  0.499878  0.500048  0.677103  1
  O  O347  1  0.499883  0.179225  0.583746  1
  O  O348  1  0.499883  0.679224  0.436448  1
  O  O349  1  0.499883  0.320861  0.625472  1
  O  O350  1  0.499883  0.820861  0.478174  1
  O  O351  1  0.499911  0.320861  0.674517  1
  O  O352  1  0.499911  0.820861  0.527219  1
  O  O353  1  0.660247  0.050561  0.601085  1
  O  O354  1  0.660247  0.550561  0.453787  1
  O  O355  1  0.660205  0.050561  0.539640  1
  O  O356  1  0.660205  0.550561  0.686938  1
  O  O357  1  0.660199  0.449527  0.657176  1
  O  O358  1  0.660199  0.949527  0.509878  1
  O  O359  1  0.660245  0.449527  0.424020  1
  O  O360  1  0.660245  0.949527  0.571319  1
  O  O361  1  0.628836  0.000000  0.555482  1
  O  O362  1  0.628836  0.500049  0.408184  1
  O  O363  1  0.631411  0.250043  0.654595  1
  O  O364  1  0.631411  0.750043  0.507297  1
  O  O365  1  0.631381  0.250043  0.603664  1
  O  O366  1  0.631381  0.750043  0.456366  1
  O  O367  1  0.671742  0.149990  0.634795  1
  O  O368  1  0.671742  0.649990  0.487497  1
  O  O369  1  0.671703  0.149991  0.564512  1
  O  O370  1  0.671703  0.649990  0.417214  1
  O  O371  1  0.671703  0.350097  0.623464  1
  O  O372  1  0.671703  0.850097  0.476166  1
  O  O373  1  0.671741  0.350097  0.693745  1
  O  O374  1  0.671741  0.850098  0.546447  1
  O  O375  1  0.632873  0.178849  0.608156  1
  O  O376  1  0.632873  0.678848  0.460857  1
  O  O377  1  0.632871  0.321237  0.650103  1
  O  O378  1  0.632871  0.821237  0.502805  1
  O  O379  1  0.160245  0.050561  0.686946  1
  O  O380  1  0.160245  0.550561  0.539648  1
  O  O381  1  0.160247  0.449527  0.509881  1
  O  O382  1  0.160247  0.949527  0.657179  1
  O  O383  1  0.131411  0.250044  0.456371  1
  O  O384  1  0.131411  0.750045  0.603669  1
  O  O385  1  0.171742  0.149990  0.417220  1
  O  O386  1  0.171742  0.649990  0.564518  1
  O  O387  1  0.171742  0.350097  0.476171  1
  O  O388  1  0.171742  0.850097  0.623469  1
  O  O389  1  0.134522  0.085537  0.664619  1
  O  O390  1  0.134522  0.585537  0.517321  1
  O  O391  1  0.365312  0.085538  0.644024  1
  O  O392  1  0.365312  0.585538  0.496726  1
  O  O393  1  0.365313  0.414550  0.446352  1
  O  O394  1  0.365313  0.914550  0.593650  1
  O  O395  1  0.134522  0.414546  0.466946  1
  O  O396  1  0.134522  0.914545  0.614244  1
  O  O397  1  0.306350  0.084852  0.677687  1
  O  O398  1  0.306350  0.584852  0.530389  1
  O  O399  1  0.193488  0.084852  0.630552  1
  O  O400  1  0.193488  0.584852  0.483254  1
  O  O401  1  0.193489  0.415236  0.433284  1
  O  O402  1  0.193489  0.915237  0.580582  1
  O  O403  1  0.306350  0.415232  0.480418  1
  O  O404  1  0.306350  0.915232  0.627716  1
  O  O405  1  0.499921  0.071079  0.664565  1
  O  O406  1  0.499921  0.571078  0.517267  1
  O  O407  1  0.499922  0.429008  0.475412  1
  O  O408  1  0.499922  0.929008  0.622710  1
  O  O409  1  0.127506  0.000000  0.620735  1
  O  O410  1  0.127506  0.500042  0.473437  1
  O  O411  1  0.372330  0.000000  0.637535  1
  O  O412  1  0.372330  0.500043  0.490237  1
  O  O413  1  0.839593  0.050560  0.686940  1
  O  O414  1  0.839593  0.550561  0.539642  1
  O  O415  1  0.839591  0.449526  0.509875  1
  O  O416  1  0.839591  0.949526  0.657173  1
  O  O417  1  0.868413  0.250044  0.456366  1
  O  O418  1  0.868413  0.750045  0.603664  1
  O  O419  1  0.000000  0.000000  0.677101  1
  O  O420  1  0.000000  0.500042  0.529803  1
  O  O421  1  0.000000  0.320863  0.478175  1
  O  O422  1  0.000000  0.820863  0.625473  1
  O  O423  1  0.828091  0.149990  0.417214  1
  O  O424  1  0.828091  0.649990  0.564512  1
  O  O425  1  0.828091  0.350097  0.476165  1
  O  O426  1  0.828091  0.850097  0.623463  1
  O  O427  1  0.634522  0.085540  0.644019  1
  O  O428  1  0.634522  0.585541  0.496721  1
  O  O429  1  0.865312  0.085536  0.664613  1
  O  O430  1  0.865312  0.585535  0.517315  1
  O  O431  1  0.865312  0.414546  0.466941  1
  O  O432  1  0.865312  0.914546  0.614239  1
  O  O433  1  0.634521  0.414549  0.446346  1
  O  O434  1  0.634521  0.914549  0.593644  1
  O  O435  1  0.806350  0.084854  0.630547  1
  O  O436  1  0.806350  0.584854  0.483249  1
  O  O437  1  0.693488  0.084850  0.677681  1
  O  O438  1  0.693488  0.584850  0.530383  1
  O  O439  1  0.693488  0.415234  0.480414  1
  O  O440  1  0.693488  0.915234  0.627712  1
  O  O441  1  0.806350  0.415235  0.433278  1
  O  O442  1  0.806350  0.915234  0.580576  1
  O  O443  1  0.000000  0.071079  0.635553  1
  O  O444  1  0.000000  0.571078  0.488255  1
  O  O445  1  0.000000  0.429007  0.446400  1
  O  O446  1  0.000000  0.929008  0.593698  1
  O  O447  1  0.627506  0.000000  0.637529  1
  O  O448  1  0.627506  0.500043  0.490230  1
  O  O449  1  0.872330  0.000000  0.620729  1
  O  O450  1  0.872330  0.500043  0.473431  1
  O  O451  1  0.000000  0.179226  0.436448  1
  O  O452  1  0.000000  0.679226  0.583746  1
  O  O453  1  0.128836  -0.000000  0.702781  1
  O  O454  1  0.870958  0.000000  0.702776  1
  O  O455  1  0.370958  0.500049  0.702785  1
  O  O456  1  0.328053  0.649990  0.711816  1
  O  O457  1  0.628836  0.500049  0.702780  1
  O  O458  1  0.671703  0.649990  0.711810  1
  O  O459  1  0.171742  0.149990  0.711816  1
  O  O460  1  0.828091  0.149990  0.711810  1
  Si  Si461  1  0.113094  0.000000  0.135429  1
  Si  Si462  1  0.113094  0.500039  0.282727  1
  Si  Si463  1  0.113025  0.188943  0.191022  1
  Si  Si464  1  0.113025  0.688943  0.338320  1
  Si  Si465  1  0.113025  0.311140  0.227022  1
  Si  Si466  1  0.113025  0.811141  0.374320  1
  Si  Si467  1  0.195111  0.094792  0.186204  1
  Si  Si468  1  0.195111  0.594792  0.333502  1
  Si  Si469  1  0.195110  0.405288  0.277677  1
  Si  Si470  1  0.195110  0.905288  0.130379  1
  Si  Si471  1  0.112151  0.061826  0.215310  1
  Si  Si472  1  0.112151  0.561825  0.362608  1
  Si  Si473  1  0.387599  0.061824  0.195571  1
  Si  Si474  1  0.387599  0.561824  0.342869  1
  Si  Si475  1  0.387599  0.438260  0.306468  1
  Si  Si476  1  0.387599  0.938260  0.159170  1
  Si  Si477  1  0.112152  0.438261  0.326208  1
  Si  Si478  1  0.112152  0.938261  0.178910  1
  Si  Si479  1  0.886665  0.000000  0.135425  1
  Si  Si480  1  0.886665  0.500039  0.282723  1
  Si  Si481  1  0.612151  0.438260  0.306463  1
  Si  Si482  1  0.612151  0.938260  0.159165  1
  Si  Si483  1  0.886744  0.188943  0.191018  1
  Si  Si484  1  0.886744  0.688943  0.338316  1
  Si  Si485  1  0.886743  0.311140  0.227018  1
  Si  Si486  1  0.886743  0.811141  0.374316  1
  Si  Si487  1  0.804640  0.094794  0.186199  1
  Si  Si488  1  0.804640  0.594793  0.333497  1
  Si  Si489  1  0.804641  0.405287  0.277672  1
  Si  Si490  1  0.804641  0.905287  0.130374  1
  Si  Si491  1  0.612151  0.061825  0.195565  1
  Si  Si492  1  0.612151  0.561824  0.342863  1
  Si  Si493  1  0.887599  0.061825  0.215304  1
  Si  Si494  1  0.887599  0.561825  0.362602  1
  Si  Si495  1  0.887599  0.438261  0.326203  1
  Si  Si496  1  0.887599  0.938262  0.178905  1
  Si  Si497  1  0.386770  0.188944  0.338321  1
  Si  Si498  1  0.386770  0.688944  0.191023  1
  Si  Si499  1  0.386744  0.188944  0.294755  1
  Si  Si500  1  0.386744  0.688944  0.147457  1
  Si  Si501  1  0.386743  0.311141  0.330754  1
  Si  Si502  1  0.386743  0.811141  0.183456  1
  Si  Si503  1  0.386769  0.311141  0.374319  1
  Si  Si504  1  0.386769  0.811141  0.227021  1
  Si  Si505  1  0.304683  0.094796  0.333505  1
  Si  Si506  1  0.304683  0.594796  0.186207  1
  Si  Si507  1  0.304640  0.094797  0.244101  1
  Si  Si508  1  0.304640  0.594797  0.391399  1
  Si  Si509  1  0.304641  0.405292  0.335573  1
  Si  Si510  1  0.304641  0.905291  0.188275  1
  Si  Si511  1  0.304684  0.405292  0.130379  1
  Si  Si512  1  0.304684  0.905292  0.277677  1
  Si  Si513  1  0.386699  0.000000  0.282729  1
  Si  Si514  1  0.386699  0.500045  0.135431  1
  Si  Si515  1  0.386666  -0.000000  0.239049  1
  Si  Si516  1  0.386666  0.500046  0.386347  1
  Si  Si517  1  0.613095  0.000000  0.239046  1
  Si  Si518  1  0.613095  0.500046  0.386344  1
  Si  Si519  1  0.613128  0.000000  0.282725  1
  Si  Si520  1  0.613128  0.500046  0.135427  1
  Si  Si521  1  0.695153  0.405291  0.130373  1
  Si  Si522  1  0.695153  0.905291  0.277671  1
  Si  Si523  1  0.695110  0.405292  0.335568  1
  Si  Si524  1  0.695110  0.905292  0.188270  1
  Si  Si525  1  0.695111  0.094797  0.244096  1
  Si  Si526  1  0.695111  0.594797  0.391394  1
  Si  Si527  1  0.613051  0.188944  0.338317  1
  Si  Si528  1  0.613051  0.688944  0.191019  1
  Si  Si529  1  0.613025  0.188944  0.294752  1
  Si  Si530  1  0.613025  0.688944  0.147453  1
  Si  Si531  1  0.613025  0.311142  0.330750  1
  Si  Si532  1  0.613025  0.811142  0.183452  1
  Si  Si533  1  0.613051  0.311142  0.374316  1
  Si  Si534  1  0.613051  0.811141  0.227018  1
  Si  Si535  1  0.695154  0.094798  0.333500  1
  Si  Si536  1  0.695154  0.594797  0.186202  1
  Si  Si537  1  0.112195  0.438261  0.159169  1
  Si  Si538  1  0.112195  0.938261  0.306467  1
  Si  Si539  1  0.113128  0.000000  0.386346  1
  Si  Si540  1  0.113128  0.500042  0.239048  1
  Si  Si541  1  0.113051  0.188945  0.147457  1
  Si  Si542  1  0.113051  0.688945  0.294755  1
  Si  Si543  1  0.113051  0.311143  0.183457  1
  Si  Si544  1  0.113051  0.811143  0.330755  1
  Si  Si545  1  0.195154  0.094796  0.391400  1
  Si  Si546  1  0.195154  0.594795  0.244102  1
  Si  Si547  1  0.195154  0.405290  0.188273  1
  Si  Si548  1  0.195154  0.905289  0.335571  1
  Si  Si549  1  0.112195  0.061825  0.342870  1
  Si  Si550  1  0.112195  0.561824  0.195572  1
  Si  Si551  1  0.387642  0.061825  0.362609  1
  Si  Si552  1  0.387642  0.561825  0.215311  1
  Si  Si553  1  0.387643  0.438261  0.178909  1
  Si  Si554  1  0.387643  0.938261  0.326207  1
  Si  Si555  1  0.886769  0.188945  0.147453  1
  Si  Si556  1  0.886769  0.688945  0.294752  1
  Si  Si557  1  0.886769  0.311143  0.183453  1
  Si  Si558  1  0.886769  0.811143  0.330751  1
  Si  Si559  1  0.804683  0.094794  0.391395  1
  Si  Si560  1  0.804683  0.594794  0.244097  1
  Si  Si561  1  0.804683  0.405290  0.188268  1
  Si  Si562  1  0.804683  0.905290  0.335566  1
  Si  Si563  1  0.612195  0.061825  0.362604  1
  Si  Si564  1  0.612195  0.561825  0.215306  1
  Si  Si565  1  0.887643  0.061825  0.342864  1
  Si  Si566  1  0.887643  0.561824  0.195566  1
  Si  Si567  1  0.887643  0.438261  0.159164  1
  Si  Si568  1  0.887643  0.938261  0.306462  1
  Si  Si569  1  0.612195  0.438261  0.178903  1
  Si  Si570  1  0.612195  0.938261  0.326201  1
  Si  Si571  1  0.886699  0.000000  0.386342  1
  Si  Si572  1  0.886699  0.500041  0.239044  1
  Si  Si573  1  0.113094  0.000000  0.430025  1
  Si  Si574  1  0.113094  0.500039  0.577323  1
  Si  Si575  1  0.113025  0.188943  0.485618  1
  Si  Si576  1  0.113025  0.688943  0.632916  1
  Si  Si577  1  0.113025  0.311140  0.521618  1
  Si  Si578  1  0.113025  0.811140  0.668916  1
  Si  Si579  1  0.195111  0.094793  0.480800  1
  Si  Si580  1  0.195111  0.594792  0.628098  1
  Si  Si581  1  0.195110  0.405288  0.572273  1
  Si  Si582  1  0.195110  0.905288  0.424975  1
  Si  Si583  1  0.112151  0.061825  0.509906  1
  Si  Si584  1  0.112151  0.561825  0.657204  1
  Si  Si585  1  0.387599  0.061824  0.490167  1
  Si  Si586  1  0.387599  0.561824  0.637465  1
  Si  Si587  1  0.387599  0.438260  0.601064  1
  Si  Si588  1  0.387599  0.938260  0.453766  1
  Si  Si589  1  0.112152  0.438261  0.620804  1
  Si  Si590  1  0.112152  0.938261  0.473506  1
  Si  Si591  1  0.886665  0.000000  0.430021  1
  Si  Si592  1  0.886665  0.500039  0.577319  1
  Si  Si593  1  0.612151  0.438260  0.601059  1
  Si  Si594  1  0.612151  0.938260  0.453761  1
  Si  Si595  1  0.886744  0.188943  0.485614  1
  Si  Si596  1  0.886744  0.688943  0.632912  1
  Si  Si597  1  0.886743  0.311140  0.521614  1
  Si  Si598  1  0.886743  0.811140  0.668912  1
  Si  Si599  1  0.804640  0.094793  0.480795  1
  Si  Si600  1  0.804640  0.594793  0.628093  1
  Si  Si601  1  0.804641  0.405287  0.572268  1
  Si  Si602  1  0.804641  0.905287  0.424970  1
  Si  Si603  1  0.612151  0.061824  0.490161  1
  Si  Si604  1  0.612151  0.561824  0.637459  1
  Si  Si605  1  0.887599  0.061825  0.509901  1
  Si  Si606  1  0.887599  0.561825  0.657199  1
  Si  Si607  1  0.887599  0.438262  0.620799  1
  Si  Si608  1  0.887599  0.938261  0.473501  1
  Si  Si609  1  0.386770  0.188944  0.632917  1
  Si  Si610  1  0.386770  0.688944  0.485619  1
  Si  Si611  1  0.386744  0.188944  0.589351  1
  Si  Si612  1  0.386744  0.688944  0.442053  1
  Si  Si613  1  0.386743  0.311141  0.625350  1
  Si  Si614  1  0.386743  0.811141  0.478052  1
  Si  Si615  1  0.386769  0.311141  0.668916  1
  Si  Si616  1  0.386769  0.811141  0.521617  1
  Si  Si617  1  0.304683  0.094796  0.628101  1
  Si  Si618  1  0.304683  0.594796  0.480803  1
  Si  Si619  1  0.304640  0.094797  0.538697  1
  Si  Si620  1  0.304640  0.594797  0.685996  1
  Si  Si621  1  0.304641  0.405292  0.630170  1
  Si  Si622  1  0.304641  0.905291  0.482871  1
  Si  Si623  1  0.304684  0.405292  0.424975  1
  Si  Si624  1  0.304684  0.905292  0.572273  1
  Si  Si625  1  0.386699  0.000000  0.577325  1
  Si  Si626  1  0.386699  0.500045  0.430027  1
  Si  Si627  1  0.386666  0.000000  0.533646  1
  Si  Si628  1  0.386666  0.500046  0.680944  1
  Si  Si629  1  0.613095  0.000000  0.533642  1
  Si  Si630  1  0.613095  0.500046  0.680940  1
  Si  Si631  1  0.613128  0.000000  0.577321  1
  Si  Si632  1  0.613128  0.500046  0.430023  1
  Si  Si633  1  0.695153  0.405291  0.424969  1
  Si  Si634  1  0.695153  0.905291  0.572267  1
  Si  Si635  1  0.695110  0.405292  0.630165  1
  Si  Si636  1  0.695110  0.905292  0.482866  1
  Si  Si637  1  0.695111  0.094797  0.538692  1
  Si  Si638  1  0.695111  0.594797  0.685990  1
  Si  Si639  1  0.613051  0.188944  0.632913  1
  Si  Si640  1  0.613051  0.688944  0.485615  1
  Si  Si641  1  0.613025  0.188945  0.589348  1
  Si  Si642  1  0.613025  0.688945  0.442050  1
  Si  Si643  1  0.613025  0.311142  0.625347  1
  Si  Si644  1  0.613025  0.811142  0.478048  1
  Si  Si645  1  0.613051  0.311142  0.668912  1
  Si  Si646  1  0.613051  0.811141  0.521614  1
  Si  Si647  1  0.695154  0.094797  0.628096  1
  Si  Si648  1  0.695154  0.594797  0.480798  1
  Si  Si649  1  0.112195  0.438261  0.453765  1
  Si  Si650  1  0.112195  0.938261  0.601063  1
  Si  Si651  1  0.113128  0.000000  0.680942  1
  Si  Si652  1  0.113128  0.500042  0.533644  1
  Si  Si653  1  0.113051  0.188945  0.442053  1
  Si  Si654  1  0.113051  0.688945  0.589351  1
  Si  Si655  1  0.113051  0.311143  0.478053  1
  Si  Si656  1  0.113051  0.811143  0.625351  1
  Si  Si657  1  0.195154  0.094795  0.685996  1
  Si  Si658  1  0.195154  0.594795  0.538698  1
  Si  Si659  1  0.195154  0.405290  0.482869  1
  Si  Si660  1  0.195154  0.905289  0.630167  1
  Si  Si661  1  0.112195  0.061825  0.637466  1
  Si  Si662  1  0.112195  0.561824  0.490168  1
  Si  Si663  1  0.387642  0.061825  0.657205  1
  Si  Si664  1  0.387642  0.561825  0.509907  1
  Si  Si665  1  0.387643  0.438261  0.473505  1
  Si  Si666  1  0.387643  0.938261  0.620803  1
  Si  Si667  1  0.886769  0.188946  0.442050  1
  Si  Si668  1  0.886769  0.688945  0.589348  1
  Si  Si669  1  0.886769  0.311143  0.478049  1
  Si  Si670  1  0.886769  0.811143  0.625347  1
  Si  Si671  1  0.804683  0.094795  0.685991  1
  Si  Si672  1  0.804683  0.594794  0.538693  1
  Si  Si673  1  0.804683  0.405290  0.482864  1
  Si  Si674  1  0.804683  0.905290  0.630162  1
  Si  Si675  1  0.612195  0.061825  0.657200  1
  Si  Si676  1  0.612195  0.561825  0.509902  1
  Si  Si677  1  0.887643  0.061824  0.637460  1
  Si  Si678  1  0.887643  0.561824  0.490162  1
  Si  Si679  1  0.887643  0.438261  0.453760  1
  Si  Si680  1  0.887643  0.938261  0.601058  1
  Si  Si681  1  0.612195  0.438261  0.473499  1
  Si  Si682  1  0.612195  0.938261  0.620798  1
  Si  Si683  1  0.886699  -0.000000  0.680938  1
  Si  Si684  1  0.886699  0.500041  0.533640  1
  H  H685  1  0.171702  0.850094  0.091822  1
  H  H686  1  0.828053  0.850094  0.091816  1
  H  H687  1  0.328091  0.350097  0.091821  1
  H  H688  1  0.671741  0.350098  0.091815  1
  H  H689  1  0.128836  0.000000  0.100851  1
  H  H690  1  0.870958  0.000000  0.100846  1
  H  H691  1  0.370958  0.500048  0.100854  1
  H  H692  1  0.328053  0.649990  0.109886  1
  H  H693  1  0.628836  0.500049  0.100850  1
  H  H694  1  0.671703  0.649990  0.109880  1
  H  H695  1  0.171742  0.149990  0.109886  1
  H  H696  1  0.828091  0.149990  0.109880  1
  H  H697  1  0.171702  0.850094  0.706489  1
  H  H698  1  0.828053  0.850094  0.706484  1
  H  H699  1  0.328091  0.350097  0.706489  1
  H  H700  1  0.671741  0.350097  0.706483  1
  H  H701  1  0.128836  -0.000000  0.715519  1
  H  H702  1  0.870958  0.000000  0.715514  1
  H  H703  1  0.370958  0.500048  0.715522  1
  H  H704  1  0.328053  0.649990  0.724554  1
  H  H705  1  0.628836  0.500049  0.715518  1
  H  H706  1  0.671703  0.649990  0.724548  1
  H  H707  1  0.171742  0.149990  0.724554  1
  H  H708  1  0.828091  0.149990  0.724548  1
