# generated using pymatgen
data_Si16H2O33
_symmetry_space_group_name_H-M   'P 1'
_cell_length_a   16.21908833
_cell_length_b   9.78145438
_cell_length_c   44.73396608
_cell_angle_alpha   90.00000000
_cell_angle_beta   90.00000000
_cell_angle_gamma   90.00000000
_symmetry_Int_Tables_number   1
_chemical_formula_structural   Si16H2O33
_chemical_formula_sum   'Si64 H8 O132'
_cell_volume   7096.87697634
_cell_formula_units_Z   4
loop_
 _symmetry_equiv_pos_site_id
 _symmetry_equiv_pos_as_xyz
  1  'x, y, z'
loop_
 _atom_site_type_symbol
 _atom_site_label
 _atom_site_symmetry_multiplicity
 _atom_site_fract_x
 _atom_site_fract_y
 _atom_site_fract_z
 _atom_site_occupancy
  O  O1  1  0.613925  0.051013  0.131891  1
  O  O2  1  0.613925  0.551013  0.131891  1
  O  O3  1  0.409411  0.172750  0.228319  1
  O  O4  1  0.590737  0.327129  0.228308  1
  O  O5  1  0.909429  0.077137  0.291810  1
  O  O6  1  0.090743  0.422766  0.291816  1
  O  O7  1  0.590689  0.326900  0.548134  1
  O  O8  1  0.409372  0.172515  0.548148  1
  O  O9  1  0.090682  0.422515  0.484654  1
  O  O10  1  0.909379  0.076893  0.484648  1
  O  O11  1  0.500087  -0.000000  0.254862  1
  O  O12  1  -0.000000  0.250005  0.265263  1
  O  O13  1  0.500030  -0.000000  0.521590  1
  O  O14  1  -0.000000  0.249674  0.511204  1
  O  O15  1  0.500086  0.249969  0.269920  1
  O  O16  1  0.000000  0.000000  0.250204  1
  O  O17  1  0.500016  0.249697  0.506533  1
  O  O18  1  0.000000  -0.000000  0.526260  1
  O  O19  1  0.370140  0.089202  0.278983  1
  O  O20  1  0.630037  0.410730  0.278971  1
  O  O21  1  0.870138  0.160734  0.241143  1
  O  O22  1  0.130025  0.339210  0.241151  1
  O  O23  1  0.629974  0.410445  0.497469  1
  O  O24  1  0.370070  0.088921  0.497488  1
  O  O25  1  0.129970  0.338921  0.535320  1
  O  O26  1  0.870076  0.160440  0.535311  1
  O  O27  1  0.268199  0.423066  0.256084  1
  O  O28  1  0.731957  0.076936  0.256078  1
  O  O29  1  0.768216  0.326936  0.264030  1
  O  O30  1  0.231962  0.173067  0.264053  1
  O  O31  1  0.731907  0.076590  0.520370  1
  O  O32  1  0.268151  0.422724  0.520386  1
  O  O33  1  0.231891  0.172725  0.512429  1
  O  O34  1  0.768148  0.326589  0.512407  1
  O  O35  1  0.230898  0.002192  0.306789  1
  O  O36  1  0.769277  0.497724  0.306780  1
  O  O37  1  0.730893  0.247734  0.213331  1
  O  O38  1  0.269258  0.252196  0.213348  1
  O  O39  1  0.769231  0.497447  0.469668  1
  O  O40  1  0.230837  0.001911  0.469684  1
  O  O41  1  0.269211  0.251895  0.563127  1
  O  O42  1  0.730831  0.247439  0.563109  1
  O  O43  1  0.500060  0.000000  0.167676  1
  O  O44  1  0.000000  0.249966  0.352458  1
  O  O45  1  0.500020  0.000000  0.608780  1
  O  O46  1  -0.000000  0.249658  0.424004  1
  O  O47  1  0.643621  0.417280  0.179954  1
  O  O48  1  0.356513  0.082706  0.179951  1
  O  O49  1  0.143637  0.332688  0.340184  1
  O  O50  1  0.856536  0.167245  0.340167  1
  O  O51  1  0.356460  0.082285  0.596492  1
  O  O52  1  0.643566  0.416912  0.596506  1
  O  O53  1  0.856509  0.166943  0.436275  1
  O  O54  1  0.143608  0.332329  0.436306  1
  O  O55  1  0.608385  0.168086  0.183153  1
  O  O56  1  0.391773  0.331909  0.183197  1
  O  O57  1  0.108387  0.081889  0.336949  1
  O  O58  1  0.891770  0.418052  0.336964  1
  O  O59  1  0.391713  0.331479  0.593314  1
  O  O60  1  0.608306  0.167708  0.593254  1
  O  O61  1  0.891761  0.417742  0.439518  1
  O  O62  1  0.108358  0.081522  0.439488  1
  O  O63  1  0.613925  0.051013  0.644537  1
  O  O64  1  0.386148  0.448629  0.131919  1
  O  O65  1  0.113969  0.198657  0.388229  1
  O  O66  1  0.886187  0.300999  0.388233  1
  O  O67  1  0.409411  0.672749  0.228319  1
  O  O68  1  0.590737  0.827128  0.228308  1
  O  O69  1  0.909429  0.577137  0.291810  1
  O  O70  1  0.090743  0.922765  0.291817  1
  O  O71  1  0.590688  0.826900  0.548134  1
  O  O72  1  0.409372  0.672516  0.548148  1
  O  O73  1  0.090682  0.922515  0.484654  1
  O  O74  1  0.909379  0.576893  0.484648  1
  O  O75  1  0.500087  0.499965  0.254862  1
  O  O76  1  -0.000000  0.750005  0.265263  1
  O  O77  1  0.500030  0.499702  0.521590  1
  O  O78  1  -0.000000  0.749674  0.511204  1
  O  O79  1  0.500086  0.749969  0.269920  1
  O  O80  1  0.000000  0.500007  0.250204  1
  O  O81  1  0.500016  0.749697  0.506533  1
  O  O82  1  0.000000  0.499671  0.526261  1
  O  O83  1  0.370141  0.589201  0.278983  1
  O  O84  1  0.630037  0.910729  0.278971  1
  O  O85  1  0.870138  0.660734  0.241143  1
  O  O86  1  0.130025  0.839210  0.241151  1
  O  O87  1  0.629974  0.910445  0.497469  1
  O  O88  1  0.370070  0.588922  0.497488  1
  O  O89  1  0.129970  0.838921  0.535320  1
  O  O90  1  0.870076  0.660440  0.535311  1
  O  O91  1  0.268199  0.923066  0.256084  1
  O  O92  1  0.731957  0.576936  0.256078  1
  O  O93  1  0.768216  0.826936  0.264030  1
  O  O94  1  0.231962  0.673067  0.264053  1
  O  O95  1  0.731907  0.576590  0.520370  1
  O  O96  1  0.268151  0.922724  0.520386  1
  O  O97  1  0.231891  0.672725  0.512429  1
  O  O98  1  0.768148  0.826589  0.512407  1
  O  O99  1  0.230899  0.502193  0.306788  1
  O  O100  1  0.769277  0.997723  0.306779  1
  O  O101  1  0.730893  0.747734  0.213331  1
  O  O102  1  0.269258  0.752196  0.213348  1
  O  O103  1  0.769231  0.997448  0.469668  1
  O  O104  1  0.230838  0.501911  0.469684  1
  O  O105  1  0.269211  0.751896  0.563127  1
  O  O106  1  0.730831  0.747439  0.563109  1
  O  O107  1  0.500060  0.499984  0.167676  1
  O  O108  1  0.000000  0.749967  0.352458  1
  O  O109  1  0.500020  0.499630  0.608780  1
  O  O110  1  -0.000000  0.749659  0.424004  1
  O  O111  1  0.643622  0.917280  0.179954  1
  O  O112  1  0.356513  0.582706  0.179951  1
  O  O113  1  0.143637  0.832688  0.340184  1
  O  O114  1  0.856537  0.667245  0.340167  1
  O  O115  1  0.356459  0.582285  0.596492  1
  O  O116  1  0.643566  0.916912  0.596506  1
  O  O117  1  0.856509  0.666943  0.436275  1
  O  O118  1  0.143608  0.832329  0.436306  1
  O  O119  1  0.608385  0.668086  0.183153  1
  O  O120  1  0.391773  0.831909  0.183197  1
  O  O121  1  0.108388  0.581889  0.336949  1
  O  O122  1  0.891770  0.918052  0.336964  1
  O  O123  1  0.391713  0.831479  0.593314  1
  O  O124  1  0.608305  0.667708  0.593254  1
  O  O125  1  0.891761  0.917743  0.439518  1
  O  O126  1  0.108358  0.581522  0.439488  1
  O  O127  1  0.613925  0.551013  0.644537  1
  O  O128  1  0.386148  0.948629  0.131919  1
  O  O129  1  0.113969  0.698657  0.388229  1
  O  O130  1  0.886187  0.801000  0.388233  1
  O  O131  1  0.386148  0.448629  0.644565  1
  O  O132  1  0.386148  0.948629  0.644565  1
  Si  Si133  1  0.445383  0.128920  0.259410  1
  Si  Si134  1  0.554786  0.370999  0.259400  1
  Si  Si135  1  0.945378  0.121028  0.260718  1
  Si  Si136  1  0.054781  0.378948  0.260722  1
  Si  Si137  1  0.554728  0.370739  0.517042  1
  Si  Si138  1  0.445323  0.128660  0.517054  1
  Si  Si139  1  0.054730  0.378639  0.515746  1
  Si  Si140  1  0.945327  0.120720  0.515744  1
  Si  Si141  1  0.277978  0.047095  0.278251  1
  Si  Si142  1  0.722198  0.452879  0.278240  1
  Si  Si143  1  0.777983  0.202876  0.241870  1
  Si  Si144  1  0.222187  0.297093  0.241884  1
  Si  Si145  1  0.722136  0.452555  0.498203  1
  Si  Si146  1  0.277911  0.046774  0.498223  1
  Si  Si147  1  0.222126  0.296776  0.534591  1
  Si  Si148  1  0.777917  0.202555  0.534574  1
  Si  Si149  1  0.594044  0.033500  0.165210  1
  Si  Si150  1  0.406078  0.466422  0.165226  1
  Si  Si151  1  0.094070  0.216414  0.354916  1
  Si  Si152  1  0.906099  0.283480  0.354916  1
  Si  Si153  1  0.406039  0.466097  0.611247  1
  Si  Si154  1  0.594000  0.033205  0.611229  1
  Si  Si155  1  0.906080  0.283224  0.421547  1
  Si  Si156  1  0.094047  0.216126  0.421547  1
  Si  Si157  1  0.354309  0.208529  0.200652  1
  Si  Si158  1  0.645835  0.291399  0.200636  1
  Si  Si159  1  0.854329  0.041375  0.319479  1
  Si  Si160  1  0.145846  0.458524  0.319485  1
  Si  Si161  1  0.645774  0.291099  0.575804  1
  Si  Si162  1  0.354263  0.208200  0.575820  1
  Si  Si163  1  0.145793  0.458232  0.456985  1
  Si  Si164  1  0.854292  0.041116  0.456976  1
  Si  Si165  1  0.445384  0.628919  0.259410  1
  Si  Si166  1  0.554789  0.871001  0.259401  1
  Si  Si167  1  0.945381  0.621027  0.260718  1
  Si  Si168  1  0.054779  0.878948  0.260722  1
  Si  Si169  1  0.554727  0.870738  0.517042  1
  Si  Si170  1  0.445324  0.628661  0.517054  1
  Si  Si171  1  0.054726  0.878642  0.515746  1
  Si  Si172  1  0.945328  0.620722  0.515743  1
  Si  Si173  1  0.277975  0.547093  0.278252  1
  Si  Si174  1  0.722194  0.952877  0.278240  1
  Si  Si175  1  0.777979  0.702878  0.241869  1
  Si  Si176  1  0.222189  0.797092  0.241884  1
  Si  Si177  1  0.722137  0.952556  0.498203  1
  Si  Si178  1  0.277911  0.546774  0.498223  1
  Si  Si179  1  0.222130  0.796773  0.534592  1
  Si  Si180  1  0.777914  0.702557  0.534574  1
  Si  Si181  1  0.594044  0.533499  0.165210  1
  Si  Si182  1  0.406078  0.966423  0.165226  1
  Si  Si183  1  0.094070  0.716415  0.354916  1
  Si  Si184  1  0.906099  0.783481  0.354916  1
  Si  Si185  1  0.406039  0.966098  0.611247  1
  Si  Si186  1  0.594000  0.533204  0.611229  1
  Si  Si187  1  0.906080  0.783224  0.421547  1
  Si  Si188  1  0.094047  0.716126  0.421547  1
  Si  Si189  1  0.354308  0.708530  0.200653  1
  Si  Si190  1  0.645837  0.791397  0.200637  1
  Si  Si191  1  0.854328  0.541374  0.319479  1
  Si  Si192  1  0.145844  0.958522  0.319485  1
  Si  Si193  1  0.645776  0.791097  0.575803  1
  Si  Si194  1  0.354261  0.708201  0.575819  1
  Si  Si195  1  0.145793  0.958232  0.456985  1
  Si  Si196  1  0.854293  0.541116  0.456976  1
  H  H197  1  0.613925  0.051013  0.111772  1
  H  H198  1  0.613925  0.551013  0.111772  1
  H  H199  1  0.613925  0.051013  0.664656  1
  H  H200  1  0.386148  0.448629  0.111800  1
  H  H201  1  0.613925  0.551013  0.664656  1
  H  H202  1  0.386148  0.948629  0.111800  1
  H  H203  1  0.386148  0.448629  0.664684  1
  H  H204  1  0.386148  0.948629  0.664684  1
