# generated using pymatgen
data_Si69(H4O71)2
_symmetry_space_group_name_H-M   'P 1'
_cell_length_a   19.43965416
_cell_length_b   16.47174882
_cell_length_c   51.20994860
_cell_angle_alpha   90.00000000
_cell_angle_beta   90.00000000
_cell_angle_gamma   90.00000000
_symmetry_Int_Tables_number   1
_chemical_formula_structural   Si69(H4O71)2
_chemical_formula_sum   'Si138 H16 O284'
_cell_volume   16397.6867379
_cell_formula_units_Z   2
loop_
 _symmetry_equiv_pos_site_id
 _symmetry_equiv_pos_as_xyz
  1  'x, y, z'
loop_
 _atom_site_type_symbol
 _atom_site_label
 _atom_site_symmetry_multiplicity
 _atom_site_fract_x
 _atom_site_fract_y
 _atom_site_fract_z
 _atom_site_occupancy
  O  O1  1  0.000000  0.861261  0.377580  1
  O  O2  1  0.715908  0.750959  0.352525  1
  O  O3  1  0.715920  0.248970  0.352526  1
  O  O4  1  0.784016  0.250981  0.274964  1
  O  O5  1  0.783995  0.748995  0.274965  1
  O  O6  1  0.822320  0.784186  0.378043  1
  O  O7  1  0.822333  0.215741  0.378047  1
  O  O8  1  0.677597  0.284203  0.249445  1
  O  O9  1  0.677575  0.715776  0.249448  1
  O  O10  1  0.803322  0.867673  0.336762  1
  O  O11  1  0.803343  0.132279  0.336761  1
  O  O12  1  0.696592  0.367671  0.290730  1
  O  O13  1  0.696575  0.632293  0.290730  1
  O  O14  1  0.724782  0.883194  0.377909  1
  O  O15  1  0.724797  0.116729  0.377908  1
  O  O16  1  0.775131  0.383217  0.249581  1
  O  O17  1  0.775112  0.616762  0.249583  1
  O  O18  1  0.891416  0.785280  0.249728  1
  O  O19  1  0.891435  0.214702  0.249728  1
  O  O20  1  0.789943  0.881096  0.249754  1
  O  O21  1  0.789964  0.118882  0.249753  1
  O  O22  1  0.709976  0.381070  0.377737  1
  O  O23  1  0.709970  0.618853  0.377737  1
  O  O24  1  0.862295  0.866299  0.292449  1
  O  O25  1  0.862313  0.133667  0.292447  1
  O  O26  1  -0.000000  0.000000  0.356593  1
  O  O27  1  0.933344  0.889479  0.334391  1
  O  O28  1  0.933367  0.110464  0.334387  1
  O  O29  1  0.000000  0.138664  0.377581  1
  O  O30  1  0.853129  0.000000  0.318113  1
  O  O31  1  0.884217  0.652779  0.225130  1
  O  O32  1  0.000000  0.731729  0.225125  1
  O  O33  1  -0.000000  0.268244  0.225129  1
  O  O34  1  0.680228  0.849220  0.225126  1
  O  O35  1  0.680254  0.150765  0.225123  1
  O  O36  1  0.837709  0.499994  0.225133  1
  O  O37  1  0.884240  0.347207  0.225130  1
  O  O38  1  0.729982  0.000000  0.225122  1
  O  O39  1  0.783998  0.748976  0.175289  1
  O  O40  1  0.784026  0.251002  0.175287  1
  O  O41  1  0.677578  0.715770  0.200809  1
  O  O42  1  0.677605  0.284215  0.200806  1
  O  O43  1  0.696576  0.632271  0.159530  1
  O  O44  1  0.696596  0.367697  0.159526  1
  O  O45  1  0.775113  0.616753  0.200678  1
  O  O46  1  0.775140  0.383229  0.200675  1
  O  O47  1  0.891438  0.214713  0.200526  1
  O  O48  1  0.891414  0.785271  0.200527  1
  O  O49  1  0.789968  0.118893  0.200494  1
  O  O50  1  0.789941  0.881086  0.200495  1
  O  O51  1  0.862325  0.133687  0.157804  1
  O  O52  1  0.862303  0.866277  0.157804  1
  O  O53  1  0.566643  0.748112  0.225127  1
  O  O54  1  0.433293  0.251843  0.225127  1
  O  O55  1  0.646794  0.499973  0.309376  1
  O  O56  1  0.353140  0.499956  0.309369  1
  O  O57  1  0.499980  0.361273  0.249905  1
  O  O58  1  0.499966  0.638675  0.249906  1
  O  O59  1  0.391389  0.714657  0.377750  1
  O  O60  1  0.608504  0.285253  0.377762  1
  O  O61  1  0.608496  0.714668  0.377763  1
  O  O62  1  0.391408  0.285234  0.377756  1
  O  O63  1  0.362279  0.633628  0.335039  1
  O  O64  1  0.637625  0.366288  0.335043  1
  O  O65  1  0.637612  0.633644  0.335044  1
  O  O66  1  0.362309  0.366273  0.335041  1
  O  O67  1  0.499971  0.499971  0.270893  1
  O  O68  1  0.433369  0.610459  0.293101  1
  O  O69  1  0.566569  0.389479  0.293101  1
  O  O70  1  0.566556  0.610463  0.293102  1
  O  O71  1  0.433384  0.389469  0.293101  1
  O  O72  1  0.566666  0.251857  0.225122  1
  O  O73  1  0.433277  0.748105  0.225127  1
  O  O74  1  0.337676  0.000000  0.402315  1
  O  O75  1  0.646774  0.499977  0.140873  1
  O  O76  1  0.362313  0.366259  0.115212  1
  O  O77  1  0.637603  0.633673  0.115217  1
  O  O78  1  0.637610  0.366270  0.115217  1
  O  O79  1  0.362302  0.633681  0.115213  1
  O  O80  1  0.499958  0.499976  0.179361  1
  O  O81  1  0.433379  0.389481  0.157150  1
  O  O82  1  0.566554  0.610469  0.157158  1
  O  O83  1  0.566565  0.389482  0.157158  1
  O  O84  1  0.433369  0.610470  0.157152  1
  O  O85  1  0.499960  0.361282  0.200350  1
  O  O86  1  0.499956  0.638672  0.200352  1
  O  O87  1  0.353160  0.499973  0.140866  1
  O  O88  1  0.115724  0.347186  0.225129  1
  O  O89  1  0.115703  0.652760  0.225124  1
  O  O90  1  0.319705  0.150745  0.225122  1
  O  O91  1  0.146783  0.000000  0.318114  1
  O  O92  1  0.066529  0.889473  0.334378  1
  O  O93  1  0.162236  0.499975  0.225130  1
  O  O94  1  0.066555  0.110459  0.334385  1
  O  O95  1  0.284010  0.248946  0.352523  1
  O  O96  1  0.283978  0.750944  0.352521  1
  O  O97  1  0.215925  0.748989  0.274962  1
  O  O98  1  0.215938  0.250955  0.274964  1
  O  O99  1  0.177590  0.215720  0.378042  1
  O  O100  1  0.177561  0.784170  0.378038  1
  O  O101  1  0.322343  0.715767  0.249445  1
  O  O102  1  0.322355  0.284182  0.249443  1
  O  O103  1  0.196579  0.132254  0.336757  1
  O  O104  1  0.196548  0.867634  0.336753  1
  O  O105  1  0.303347  0.632277  0.290725  1
  O  O106  1  0.303364  0.367641  0.290728  1
  O  O107  1  0.275113  0.116728  0.377906  1
  O  O108  1  0.275091  0.883175  0.377900  1
  O  O109  1  0.224806  0.616756  0.249579  1
  O  O110  1  0.224822  0.383198  0.249582  1
  O  O111  1  0.108523  0.214686  0.249726  1
  O  O112  1  0.108511  0.785264  0.249721  1
  O  O113  1  0.209990  0.118860  0.249751  1
  O  O114  1  0.209977  0.881088  0.249748  1
  O  O115  1  0.289918  0.618840  0.377733  1
  O  O116  1  0.289940  0.381060  0.377731  1
  O  O117  1  0.137628  0.133642  0.292444  1
  O  O118  1  0.137606  0.866299  0.292438  1
  O  O119  1  0.269957  0.000000  0.225116  1
  O  O120  1  0.319690  0.849204  0.225120  1
  O  O121  1  0.215934  0.250991  0.175285  1
  O  O122  1  0.215927  0.748962  0.175284  1
  O  O123  1  0.322359  0.284193  0.200804  1
  O  O124  1  0.322346  0.715753  0.200804  1
  O  O125  1  0.303356  0.367693  0.159526  1
  O  O126  1  0.303346  0.632254  0.159526  1
  O  O127  1  0.224826  0.383213  0.200677  1
  O  O128  1  0.224809  0.616741  0.200674  1
  O  O129  1  0.108507  0.785251  0.200520  1
  O  O130  1  0.108519  0.214699  0.200524  1
  O  O131  1  0.209977  0.881074  0.200488  1
  O  O132  1  0.209990  0.118884  0.200492  1
  O  O133  1  0.137612  0.866258  0.157799  1
  O  O134  1  0.137622  0.133677  0.157804  1
  O  O135  1  0.784016  0.250981  0.629433  1
  O  O136  1  0.783995  0.748995  0.629434  1
  O  O137  1  0.677597  0.284203  0.603914  1
  O  O138  1  0.677575  0.715776  0.603917  1
  O  O139  1  0.696592  0.367671  0.645199  1
  O  O140  1  0.696575  0.632293  0.645199  1
  O  O141  1  0.775131  0.383217  0.604051  1
  O  O142  1  0.775112  0.616762  0.604052  1
  O  O143  1  0.891416  0.785280  0.604198  1
  O  O144  1  0.891435  0.214702  0.604198  1
  O  O145  1  0.789943  0.881096  0.604224  1
  O  O146  1  0.789964  0.118882  0.604222  1
  O  O147  1  0.862295  0.866299  0.646918  1
  O  O148  1  0.862313  0.133667  0.646917  1
  O  O149  1  0.884217  0.652779  0.579599  1
  O  O150  1  -0.000000  0.731729  0.579594  1
  O  O151  1  -0.000000  0.268244  0.579598  1
  O  O152  1  0.680228  0.849220  0.579595  1
  O  O153  1  0.680254  0.150765  0.579592  1
  O  O154  1  0.837709  0.499994  0.579602  1
  O  O155  1  0.884240  0.347207  0.579600  1
  O  O156  1  0.729982  0.000000  0.579591  1
  O  O157  1  -0.000000  0.861277  0.427134  1
  O  O158  1  0.000000  0.138661  0.427136  1
  O  O159  1  0.715904  0.248950  0.452203  1
  O  O160  1  0.715904  0.750977  0.452202  1
  O  O161  1  0.783998  0.748976  0.529758  1
  O  O162  1  0.784026  0.251002  0.529756  1
  O  O163  1  0.822328  0.215737  0.426685  1
  O  O164  1  0.822321  0.784196  0.426683  1
  O  O165  1  0.677578  0.715770  0.555278  1
  O  O166  1  0.677605  0.284215  0.555275  1
  O  O167  1  0.803332  0.132257  0.467965  1
  O  O168  1  0.803327  0.867690  0.467961  1
  O  O169  1  0.696576  0.632271  0.513999  1
  O  O170  1  0.696596  0.367697  0.513996  1
  O  O171  1  0.724792  0.116722  0.426815  1
  O  O172  1  0.724779  0.883202  0.426815  1
  O  O173  1  0.775113  0.616753  0.555147  1
  O  O174  1  0.775140  0.383229  0.555144  1
  O  O175  1  0.891438  0.214713  0.554995  1
  O  O176  1  0.891414  0.785271  0.554996  1
  O  O177  1  0.789968  0.118893  0.554964  1
  O  O178  1  0.789941  0.881086  0.554964  1
  O  O179  1  0.709963  0.618865  0.426996  1
  O  O180  1  0.709970  0.381058  0.426996  1
  O  O181  1  0.862325  0.133687  0.512274  1
  O  O182  1  0.862303  0.866277  0.512273  1
  O  O183  1  0.000000  0.000000  0.448126  1
  O  O184  1  0.933359  0.110469  0.470330  1
  O  O185  1  0.933354  0.889478  0.470331  1
  O  O186  1  0.853148  0.000000  0.486618  1
  O  O187  1  0.819684  0.349185  0.402367  1
  O  O188  1  0.769945  0.499963  0.402370  1
  O  O189  1  0.933255  0.751846  0.402361  1
  O  O190  1  0.933267  0.248085  0.402364  1
  O  O191  1  0.819675  0.650744  0.402367  1
  O  O192  1  0.566643  0.748112  0.579596  1
  O  O193  1  0.433293  0.251843  0.579596  1
  O  O194  1  0.646794  0.499973  0.663845  1
  O  O195  1  0.353140  0.499956  0.663838  1
  O  O196  1  0.499980  0.361273  0.604374  1
  O  O197  1  0.499966  0.638675  0.604376  1
  O  O198  1  0.362279  0.633628  0.689508  1
  O  O199  1  0.637625  0.366288  0.689512  1
  O  O200  1  0.637612  0.633644  0.689513  1
  O  O201  1  0.362309  0.366273  0.689511  1
  O  O202  1  0.499971  0.499971  0.625362  1
  O  O203  1  0.433369  0.610459  0.647571  1
  O  O204  1  0.566569  0.389479  0.647570  1
  O  O205  1  0.566556  0.610463  0.647571  1
  O  O206  1  0.433384  0.389469  0.647571  1
  O  O207  1  0.566666  0.251857  0.579591  1
  O  O208  1  0.433277  0.748105  0.579596  1
  O  O209  1  0.615695  0.152756  0.402361  1
  O  O210  1  0.646774  0.499977  0.495343  1
  O  O211  1  0.391413  0.285228  0.426966  1
  O  O212  1  0.608487  0.714682  0.426964  1
  O  O213  1  0.608494  0.285247  0.426964  1
  O  O214  1  0.391398  0.714677  0.426958  1
  O  O215  1  0.362313  0.366259  0.469681  1
  O  O216  1  0.637603  0.633673  0.469686  1
  O  O217  1  0.637610  0.366270  0.469686  1
  O  O218  1  0.362302  0.633681  0.469682  1
  O  O219  1  0.499958  0.499976  0.533831  1
  O  O220  1  0.433379  0.389481  0.511619  1
  O  O221  1  0.566554  0.610469  0.511628  1
  O  O222  1  0.566565  0.389482  0.511628  1
  O  O223  1  0.433369  0.610470  0.511622  1
  O  O224  1  0.499960  0.361282  0.554819  1
  O  O225  1  0.499956  0.638672  0.554822  1
  O  O226  1  0.353160  0.499973  0.495335  1
  O  O227  1  0.615676  0.847172  0.402361  1
  O  O228  1  0.662199  0.000000  0.402360  1
  O  O229  1  0.384193  0.847166  0.402350  1
  O  O230  1  0.384220  0.152734  0.402359  1
  O  O231  1  0.499938  0.768198  0.402355  1
  O  O232  1  0.499957  0.231705  0.402358  1
  O  O233  1  0.115724  0.347186  0.579598  1
  O  O234  1  0.115703  0.652760  0.579593  1
  O  O235  1  0.319705  0.150745  0.579591  1
  O  O236  1  0.162236  0.499975  0.579600  1
  O  O237  1  0.215925  0.748989  0.629432  1
  O  O238  1  0.215938  0.250955  0.629433  1
  O  O239  1  0.322343  0.715767  0.603914  1
  O  O240  1  0.322355  0.284182  0.603912  1
  O  O241  1  0.303347  0.632277  0.645194  1
  O  O242  1  0.303364  0.367641  0.645198  1
  O  O243  1  0.224806  0.616756  0.604048  1
  O  O244  1  0.224822  0.383198  0.604052  1
  O  O245  1  0.108523  0.214686  0.604195  1
  O  O246  1  0.108511  0.785264  0.604190  1
  O  O247  1  0.209990  0.118860  0.604220  1
  O  O248  1  0.209977  0.881088  0.604217  1
  O  O249  1  0.137628  0.133642  0.646913  1
  O  O250  1  0.137606  0.866299  0.646907  1
  O  O251  1  0.269957  0.000000  0.579585  1
  O  O252  1  0.319690  0.849204  0.579589  1
  O  O253  1  0.146760  -0.000000  0.486617  1
  O  O254  1  0.283982  0.750960  0.452198  1
  O  O255  1  0.283993  0.248956  0.452201  1
  O  O256  1  0.215934  0.250991  0.529755  1
  O  O257  1  0.215927  0.748962  0.529753  1
  O  O258  1  0.177548  0.784162  0.426677  1
  O  O259  1  0.177570  0.215742  0.426679  1
  O  O260  1  0.322359  0.284193  0.555273  1
  O  O261  1  0.322346  0.715753  0.555273  1
  O  O262  1  0.196559  0.867682  0.467952  1
  O  O263  1  0.196569  0.132252  0.467959  1
  O  O264  1  0.303356  0.367693  0.513995  1
  O  O265  1  0.303346  0.632254  0.513995  1
  O  O266  1  0.275094  0.883159  0.426804  1
  O  O267  1  0.275115  0.116720  0.426814  1
  O  O268  1  0.224826  0.383213  0.555146  1
  O  O269  1  0.224809  0.616741  0.555143  1
  O  O270  1  0.108507  0.785251  0.554989  1
  O  O271  1  0.108519  0.214699  0.554993  1
  O  O272  1  0.209977  0.881074  0.554958  1
  O  O273  1  0.209990  0.118884  0.554961  1
  O  O274  1  0.289945  0.381051  0.426991  1
  O  O275  1  0.289925  0.618857  0.426994  1
  O  O276  1  0.137612  0.866258  0.512268  1
  O  O277  1  0.137622  0.133677  0.512273  1
  O  O278  1  0.066540  0.889473  0.470330  1
  O  O279  1  0.066545  0.110463  0.470336  1
  O  O280  1  0.180231  0.349177  0.402359  1
  O  O281  1  0.066644  0.248089  0.402356  1
  O  O282  1  0.229960  0.499947  0.402367  1
  O  O283  1  0.180209  0.650719  0.402362  1
  O  O284  1  0.066622  0.751825  0.402360  1
  Si  Si285  1  0.766154  0.822918  0.359853  1
  Si  Si286  1  0.766168  0.177013  0.359854  1
  Si  Si287  1  0.733764  0.322933  0.267636  1
  Si  Si288  1  0.733742  0.677043  0.267638  1
  Si  Si289  1  0.833243  0.822166  0.267601  1
  Si  Si290  1  0.833263  0.177809  0.267601  1
  Si  Si291  1  0.863094  0.906021  0.320245  1
  Si  Si292  1  0.863112  0.093935  0.320243  1
  Si  Si293  1  0.000000  0.093318  0.350805  1
  Si  Si294  1  0.746106  0.906291  0.225124  1
  Si  Si295  1  0.919959  0.738773  0.225128  1
  Si  Si296  1  0.919978  0.261211  0.225129  1
  Si  Si297  1  0.820555  0.593514  0.225131  1
  Si  Si298  1  -0.000000  0.906615  0.350805  1
  Si  Si299  1  0.746128  0.093690  0.225123  1
  Si  Si300  1  0.820574  0.406470  0.225130  1
  Si  Si301  1  0.666676  0.322145  0.359889  1
  Si  Si302  1  0.666668  0.677782  0.359890  1
  Si  Si303  1  0.733745  0.677027  0.182620  1
  Si  Si304  1  0.733773  0.322952  0.182617  1
  Si  Si305  1  0.833271  0.177828  0.182650  1
  Si  Si306  1  0.833244  0.822151  0.182651  1
  Si  Si307  1  0.363110  0.593915  0.307241  1
  Si  Si308  1  0.636820  0.406015  0.307247  1
  Si  Si309  1  0.636810  0.593929  0.307246  1
  Si  Si310  1  0.363129  0.405999  0.307245  1
  Si  Si311  1  0.352969  0.238560  0.225123  1
  Si  Si312  1  0.352953  0.761389  0.225124  1
  Si  Si313  1  0.646967  0.761403  0.225127  1
  Si  Si314  1  0.646991  0.238580  0.225123  1
  Si  Si315  1  0.499964  0.593322  0.276682  1
  Si  Si316  1  0.499976  0.406619  0.276682  1
  Si  Si317  1  0.499976  0.306018  0.225127  1
  Si  Si318  1  0.499962  0.693935  0.225129  1
  Si  Si319  1  0.363127  0.406015  0.143004  1
  Si  Si320  1  0.636804  0.593933  0.143011  1
  Si  Si321  1  0.636813  0.406019  0.143009  1
  Si  Si322  1  0.363120  0.593930  0.143005  1
  Si  Si323  1  0.499965  0.406625  0.173573  1
  Si  Si324  1  0.499957  0.593328  0.173575  1
  Si  Si325  1  0.233753  0.176997  0.359848  1
  Si  Si326  1  0.233725  0.822898  0.359845  1
  Si  Si327  1  0.266176  0.677035  0.267635  1
  Si  Si328  1  0.266190  0.322908  0.267636  1
  Si  Si329  1  0.166689  0.177785  0.267599  1
  Si  Si330  1  0.166677  0.822158  0.267595  1
  Si  Si331  1  0.136807  0.093915  0.320239  1
  Si  Si332  1  0.136789  0.906003  0.320237  1
  Si  Si333  1  0.253816  0.906278  0.225118  1
  Si  Si334  1  0.079981  0.261196  0.225127  1
  Si  Si335  1  0.179386  0.406454  0.225130  1
  Si  Si336  1  0.253827  0.093675  0.225120  1
  Si  Si337  1  0.079963  0.738756  0.225122  1
  Si  Si338  1  0.179370  0.593499  0.225127  1
  Si  Si339  1  0.333244  0.322130  0.359885  1
  Si  Si340  1  0.333216  0.677766  0.359884  1
  Si  Si341  1  0.266189  0.322938  0.182617  1
  Si  Si342  1  0.266178  0.677013  0.182616  1
  Si  Si343  1  0.166677  0.822134  0.182645  1
  Si  Si344  1  0.166687  0.177817  0.182648  1
  Si  Si345  1  0.733764  0.322933  0.622105  1
  Si  Si346  1  0.733742  0.677043  0.622107  1
  Si  Si347  1  0.833243  0.822166  0.622070  1
  Si  Si348  1  0.833263  0.177809  0.622070  1
  Si  Si349  1  0.746106  0.906291  0.579594  1
  Si  Si350  1  0.919959  0.738773  0.579597  1
  Si  Si351  1  0.919978  0.261211  0.579598  1
  Si  Si352  1  0.820555  0.593514  0.579600  1
  Si  Si353  1  0.746128  0.093690  0.579592  1
  Si  Si354  1  0.820574  0.406470  0.579599  1
  Si  Si355  1  0.766157  0.177000  0.444873  1
  Si  Si356  1  0.766153  0.822931  0.444872  1
  Si  Si357  1  0.733745  0.677027  0.537089  1
  Si  Si358  1  0.733773  0.322952  0.537086  1
  Si  Si359  1  0.833271  0.177828  0.537120  1
  Si  Si360  1  0.833244  0.822151  0.537120  1
  Si  Si361  1  0.863115  0.093933  0.484481  1
  Si  Si362  1  0.863106  0.906019  0.484479  1
  Si  Si363  1  0.852931  0.738563  0.402364  1
  Si  Si364  1  0.852943  0.261367  0.402366  1
  Si  Si365  1  0.679355  0.093482  0.402361  1
  Si  Si366  1  -0.000000  0.093321  0.453914  1
  Si  Si367  1  -0.000000  0.906619  0.453912  1
  Si  Si368  1  -0.000000  0.193922  0.402359  1
  Si  Si369  1  0.000000  0.806008  0.402359  1
  Si  Si370  1  0.679339  0.906438  0.402361  1
  Si  Si371  1  0.753805  0.593663  0.402368  1
  Si  Si372  1  0.753811  0.406262  0.402368  1
  Si  Si373  1  0.363110  0.593915  0.661711  1
  Si  Si374  1  0.636820  0.406015  0.661716  1
  Si  Si375  1  0.636810  0.593929  0.661716  1
  Si  Si376  1  0.363129  0.405999  0.661715  1
  Si  Si377  1  0.352969  0.238560  0.579592  1
  Si  Si378  1  0.352953  0.761389  0.579593  1
  Si  Si379  1  0.646967  0.761403  0.579596  1
  Si  Si380  1  0.646991  0.238580  0.579593  1
  Si  Si381  1  0.499964  0.593322  0.631151  1
  Si  Si382  1  0.499976  0.406619  0.631151  1
  Si  Si383  1  0.499976  0.306018  0.579596  1
  Si  Si384  1  0.499962  0.693935  0.579598  1
  Si  Si385  1  0.419954  0.238731  0.402359  1
  Si  Si386  1  0.579941  0.761173  0.402361  1
  Si  Si387  1  0.363127  0.406015  0.497473  1
  Si  Si388  1  0.636804  0.593933  0.497480  1
  Si  Si389  1  0.636813  0.406019  0.497479  1
  Si  Si390  1  0.363120  0.593930  0.497474  1
  Si  Si391  1  0.666659  0.677803  0.444839  1
  Si  Si392  1  0.579958  0.238749  0.402361  1
  Si  Si393  1  0.499965  0.406625  0.528042  1
  Si  Si394  1  0.499957  0.593328  0.528044  1
  Si  Si395  1  0.419936  0.761173  0.402353  1
  Si  Si396  1  0.666663  0.322129  0.444840  1
  Si  Si397  1  0.266176  0.677035  0.622104  1
  Si  Si398  1  0.266190  0.322908  0.622105  1
  Si  Si399  1  0.166689  0.177785  0.622069  1
  Si  Si400  1  0.166677  0.822158  0.622064  1
  Si  Si401  1  0.253816  0.906278  0.579587  1
  Si  Si402  1  0.079981  0.261196  0.579596  1
  Si  Si403  1  0.179386  0.406454  0.579599  1
  Si  Si404  1  0.253827  0.093675  0.579589  1
  Si  Si405  1  0.079963  0.738756  0.579591  1
  Si  Si406  1  0.179370  0.593499  0.579596  1
  Si  Si407  1  0.233718  0.822897  0.444864  1
  Si  Si408  1  0.233739  0.177006  0.444868  1
  Si  Si409  1  0.266189  0.322938  0.537086  1
  Si  Si410  1  0.266178  0.677013  0.537085  1
  Si  Si411  1  0.166677  0.822134  0.537114  1
  Si  Si412  1  0.166687  0.177817  0.537117  1
  Si  Si413  1  0.136792  0.906011  0.484476  1
  Si  Si414  1  0.136799  0.093926  0.484481  1
  Si  Si415  1  0.246086  0.593649  0.402365  1
  Si  Si416  1  0.146946  0.738535  0.402356  1
  Si  Si417  1  0.246106  0.406251  0.402363  1
  Si  Si418  1  0.320548  0.093475  0.402357  1
  Si  Si419  1  0.146969  0.261362  0.402357  1
  Si  Si420  1  0.320527  0.906427  0.402351  1
  Si  Si421  1  0.333248  0.322121  0.444836  1
  Si  Si422  1  0.333237  0.677794  0.444834  1
  H  H423  1  0.862325  0.133687  0.140230  1
  H  H424  1  0.862303  0.866277  0.140229  1
  H  H425  1  0.362313  0.366259  0.097637  1
  H  H426  1  0.637603  0.633673  0.097642  1
  H  H427  1  0.637610  0.366270  0.097642  1
  H  H428  1  0.362302  0.633681  0.097638  1
  H  H429  1  0.137612  0.866258  0.140224  1
  H  H430  1  0.137622  0.133677  0.140229  1
  H  H431  1  0.862295  0.866299  0.664493  1
  H  H432  1  0.862313  0.133667  0.664491  1
  H  H433  1  0.362279  0.633628  0.707083  1
  H  H434  1  0.637625  0.366288  0.707087  1
  H  H435  1  0.637612  0.633644  0.707088  1
  H  H436  1  0.362309  0.366273  0.707085  1
  H  H437  1  0.137628  0.133642  0.664488  1
  H  H438  1  0.137606  0.866299  0.664482  1
