# generated using pymatgen
data_Si26H2O53
_symmetry_space_group_name_H-M   'P 1'
_cell_length_a   19.04414329
_cell_length_b   14.09603100
_cell_length_c   63.01594608
_cell_angle_alpha   90.00000000
_cell_angle_beta   120.00000000
_cell_angle_gamma   90.00000000
_symmetry_Int_Tables_number   1
_chemical_formula_structural   Si26H2O53
_chemical_formula_sum   'Si104 H8 O212'
_cell_volume   14650.0591861
_cell_formula_units_Z   4
loop_
 _symmetry_equiv_pos_site_id
 _symmetry_equiv_pos_as_xyz
  1  'x, y, z'
loop_
 _atom_site_type_symbol
 _atom_site_label
 _atom_site_symmetry_multiplicity
 _atom_site_fract_x
 _atom_site_fract_y
 _atom_site_fract_z
 _atom_site_occupancy
  O  O1  1  0.454076  0.336910  0.195863  1
  O  O2  1  0.453668  0.337925  0.153447  1
  O  O3  1  0.454520  0.662674  0.195828  1
  O  O4  1  0.453438  0.662477  0.153337  1
  O  O5  1  0.401679  0.368087  0.106114  1
  O  O6  1  0.459815  0.500132  0.136810  1
  O  O7  1  0.401046  0.632403  0.105902  1
  O  O8  1  0.703573  0.338544  0.153247  1
  O  O9  1  0.843941  0.336840  0.195509  1
  O  O10  1  0.702921  0.662638  0.153180  1
  O  O11  1  0.843901  0.660927  0.195102  1
  O  O12  1  0.550832  0.372332  0.136658  1
  O  O13  1  0.550232  0.628142  0.136567  1
  O  O14  1  0.598433  0.368579  0.105967  1
  O  O15  1  0.641747  0.500426  0.136780  1
  O  O16  1  0.745944  0.194958  0.182291  1
  O  O17  1  0.746995  0.805440  0.182536  1
  O  O18  1  0.711399  0.353080  0.193395  1
  O  O19  1  0.578846  0.353019  0.193361  1
  O  O20  1  0.711916  0.647403  0.193458  1
  O  O21  1  0.579063  0.647680  0.193241  1
  O  O22  1  0.735415  0.000000  0.186918  1
  O  O23  1  0.529859  0.000000  0.185619  1
  O  O24  1  0.625106  0.112087  0.181349  1
  O  O25  1  0.625412  0.888132  0.181405  1
  O  O26  1  0.666030  0.500329  0.205798  1
  O  O27  1  0.507535  0.806377  0.182435  1
  O  O28  1  0.598069  0.632529  0.105940  1
  O  O29  1  0.507491  0.194086  0.182440  1
  O  O30  1  0.156022  0.334675  0.242897  1
  O  O31  1  0.298124  0.338604  0.244204  1
  O  O32  1  0.157557  0.659750  0.242464  1
  O  O33  1  0.298155  0.663339  0.242996  1
  O  O34  1  0.101286  0.370936  0.272176  1
  O  O35  1  0.449648  0.373404  0.272530  1
  O  O36  1  0.102136  0.626427  0.271706  1
  O  O37  1  0.450527  0.628122  0.272504  1
  O  O38  1  0.330573  0.499141  0.305715  1
  O  O39  1  0.401867  0.368694  0.227597  1
  O  O40  1  0.402604  0.631865  0.227387  1
  O  O41  1  0.102337  0.497395  0.244510  1
  O  O42  1  0.460611  0.499738  0.214155  1
  O  O43  1  0.101952  0.499939  0.299468  1
  O  O44  1  0.358603  0.500484  0.245149  1
  O  O45  1  0.250248  0.192114  0.257442  1
  O  O46  1  0.252167  0.805597  0.258881  1
  O  O47  1  0.286742  0.344584  0.281535  1
  O  O48  1  0.289750  0.648297  0.280661  1
  O  O49  1  0.263014  -0.000000  0.266477  1
  O  O50  1  0.249150  0.117259  0.294391  1
  O  O51  1  0.372259  0.113806  0.294298  1
  O  O52  1  0.246527  0.885794  0.294104  1
  O  O53  1  0.373055  0.888574  0.294421  1
  O  O54  1  -0.000000  0.630223  0.226643  1
  O  O55  1  -0.000000  0.632600  0.286028  1
  O  O56  1  -0.000000  0.365509  0.227153  1
  O  O57  1  0.843317  0.338766  0.270899  1
  O  O58  1  0.703196  0.337613  0.271039  1
  O  O59  1  0.844061  0.663246  0.270535  1
  O  O60  1  0.704506  0.661507  0.271183  1
  O  O61  1  0.898969  0.372013  0.241490  1
  O  O62  1  0.550801  0.371931  0.241837  1
  O  O63  1  0.899276  0.627314  0.241027  1
  O  O64  1  0.551690  0.627466  0.241907  1
  O  O65  1  0.598658  0.367751  0.286931  1
  O  O66  1  0.000000  0.368354  0.286594  1
  O  O67  1  0.599644  0.632245  0.287024  1
  O  O68  1  0.541083  0.500550  0.300256  1
  O  O69  1  0.898283  0.500694  0.268671  1
  O  O70  1  0.899175  0.498548  0.213729  1
  O  O71  1  0.642513  0.499677  0.269326  1
  O  O72  1  0.745832  0.195651  0.254299  1
  O  O73  1  0.745484  0.805140  0.254352  1
  O  O74  1  0.710686  0.355502  0.233274  1
  O  O75  1  0.710779  0.645430  0.233244  1
  O  O76  1  0.735169  0.000000  0.246619  1
  O  O77  1  0.751694  0.115938  0.219216  1
  O  O78  1  0.625069  0.112071  0.218796  1
  O  O79  1  0.751884  0.884705  0.219315  1
  O  O80  1  0.625103  0.888606  0.218807  1
  O  O81  1  0.296385  0.338253  0.361206  1
  O  O82  1  0.156354  0.338519  0.318468  1
  O  O83  1  0.296478  0.662081  0.360643  1
  O  O84  1  0.156918  0.661958  0.317888  1
  O  O85  1  0.449259  0.372749  0.377821  1
  O  O86  1  0.448980  0.628189  0.377676  1
  O  O87  1  0.357869  0.500265  0.377627  1
  O  O88  1  0.254098  0.196152  0.331522  1
  O  O89  1  0.253543  0.805011  0.331103  1
  O  O90  1  0.289996  0.356529  0.321561  1
  O  O91  1  0.420806  0.354556  0.320764  1
  O  O92  1  0.289980  0.645195  0.320700  1
  O  O93  1  0.421710  0.644982  0.320713  1
  O  O94  1  0.264198  0.001206  0.326760  1
  O  O95  1  0.467905  0.000000  0.327592  1
  O  O96  1  0.374522  0.112994  0.332829  1
  O  O97  1  0.373193  0.888504  0.331885  1
  O  O98  1  0.490771  0.194890  0.331320  1
  O  O99  1  0.490708  0.806257  0.331070  1
  O  O100  1  0.545823  0.337908  0.318497  1
  O  O101  1  0.545552  0.338032  0.360875  1
  O  O102  1  0.546693  0.663152  0.318620  1
  O  O103  1  0.545637  0.663661  0.360883  1
  O  O104  1  0.539880  0.500646  0.377457  1
  O  O105  1  0.454076  0.336910  0.498236  1
  O  O106  1  0.453668  0.337925  0.455820  1
  O  O107  1  0.454520  0.662674  0.498200  1
  O  O108  1  0.453438  0.662477  0.455710  1
  O  O109  1  0.401679  0.368087  0.408486  1
  O  O110  1  0.459815  0.500132  0.439183  1
  O  O111  1  0.401046  0.632403  0.408274  1
  O  O112  1  0.703573  0.338544  0.455619  1
  O  O113  1  0.843941  0.336840  0.497881  1
  O  O114  1  0.702921  0.662638  0.455552  1
  O  O115  1  0.843901  0.660927  0.497475  1
  O  O116  1  0.550832  0.372332  0.439030  1
  O  O117  1  0.550232  0.628142  0.438939  1
  O  O118  1  0.598433  0.368579  0.408339  1
  O  O119  1  0.641747  0.500426  0.439153  1
  O  O120  1  0.745944  0.194958  0.484663  1
  O  O121  1  0.746995  0.805440  0.484909  1
  O  O122  1  0.711399  0.353080  0.495767  1
  O  O123  1  0.578846  0.353019  0.495733  1
  O  O124  1  0.711916  0.647403  0.495831  1
  O  O125  1  0.579063  0.647680  0.495614  1
  O  O126  1  0.735415  -0.000000  0.489291  1
  O  O127  1  0.529859  0.000000  0.487992  1
  O  O128  1  0.625106  0.112087  0.483721  1
  O  O129  1  0.625412  0.888132  0.483777  1
  O  O130  1  0.666030  0.500329  0.508170  1
  O  O131  1  0.507535  0.806377  0.484808  1
  O  O132  1  0.598069  0.632529  0.408312  1
  O  O133  1  0.507491  0.194086  0.484812  1
  O  O134  1  0.156022  0.334675  0.545270  1
  O  O135  1  0.298124  0.338604  0.546577  1
  O  O136  1  0.157557  0.659750  0.544837  1
  O  O137  1  0.298155  0.663339  0.545369  1
  O  O138  1  0.101286  0.370936  0.574548  1
  O  O139  1  0.449648  0.373404  0.574902  1
  O  O140  1  0.102136  0.626427  0.574079  1
  O  O141  1  0.450527  0.628122  0.574876  1
  O  O142  1  0.330573  0.499141  0.608087  1
  O  O143  1  0.401867  0.368694  0.529969  1
  O  O144  1  0.402604  0.631865  0.529760  1
  O  O145  1  0.102337  0.497395  0.546883  1
  O  O146  1  0.460611  0.499738  0.516528  1
  O  O147  1  0.101952  0.499939  0.601841  1
  O  O148  1  0.358603  0.500484  0.547521  1
  O  O149  1  0.250248  0.192114  0.559815  1
  O  O150  1  0.252167  0.805597  0.561253  1
  O  O151  1  0.286742  0.344584  0.583907  1
  O  O152  1  0.289750  0.648297  0.583034  1
  O  O153  1  0.263014  0.000000  0.568850  1
  O  O154  1  0.249150  0.117259  0.596763  1
  O  O155  1  0.372259  0.113806  0.596671  1
  O  O156  1  0.246527  0.885794  0.596476  1
  O  O157  1  0.373055  0.888574  0.596793  1
  O  O158  1  -0.000000  0.630223  0.529016  1
  O  O159  1  0.000000  0.632600  0.588401  1
  O  O160  1  -0.000000  0.365509  0.529526  1
  O  O161  1  0.843317  0.338766  0.573271  1
  O  O162  1  0.703196  0.337613  0.573411  1
  O  O163  1  0.844061  0.663246  0.572907  1
  O  O164  1  0.704506  0.661507  0.573555  1
  O  O165  1  0.898969  0.372013  0.543863  1
  O  O166  1  0.550801  0.371931  0.544210  1
  O  O167  1  0.899276  0.627314  0.543399  1
  O  O168  1  0.551690  0.627466  0.544280  1
  O  O169  1  0.598658  0.367751  0.589304  1
  O  O170  1  -0.000000  0.368354  0.588966  1
  O  O171  1  0.599644  0.632245  0.589396  1
  O  O172  1  0.541083  0.500550  0.602629  1
  O  O173  1  0.898283  0.500694  0.571043  1
  O  O174  1  0.899175  0.498548  0.516102  1
  O  O175  1  0.642513  0.499677  0.571699  1
  O  O176  1  0.745832  0.195651  0.556671  1
  O  O177  1  0.745484  0.805140  0.556725  1
  O  O178  1  0.710686  0.355502  0.535647  1
  O  O179  1  0.710779  0.645430  0.535616  1
  O  O180  1  0.735169  -0.000000  0.548991  1
  O  O181  1  0.751694  0.115938  0.521588  1
  O  O182  1  0.625069  0.112071  0.521168  1
  O  O183  1  0.751884  0.884705  0.521687  1
  O  O184  1  0.625103  0.888606  0.521180  1
  O  O185  1  0.296385  0.338253  0.663578  1
  O  O186  1  0.156354  0.338519  0.620841  1
  O  O187  1  0.296478  0.662081  0.663016  1
  O  O188  1  0.156918  0.661958  0.620260  1
  O  O189  1  0.449259  0.372749  0.680194  1
  O  O190  1  0.448980  0.628189  0.680048  1
  O  O191  1  0.357869  0.500265  0.680000  1
  O  O192  1  0.254098  0.196152  0.633894  1
  O  O193  1  0.253543  0.805011  0.633476  1
  O  O194  1  0.289996  0.356529  0.623934  1
  O  O195  1  0.420806  0.354556  0.623136  1
  O  O196  1  0.289980  0.645195  0.623073  1
  O  O197  1  0.421710  0.644982  0.623086  1
  O  O198  1  0.264198  0.001206  0.629132  1
  O  O199  1  0.467905  -0.000000  0.629965  1
  O  O200  1  0.374522  0.112994  0.635201  1
  O  O201  1  0.373193  0.888504  0.634258  1
  O  O202  1  0.490771  0.194890  0.633693  1
  O  O203  1  0.490708  0.806257  0.633442  1
  O  O204  1  0.545823  0.337908  0.620869  1
  O  O205  1  0.545552  0.338032  0.663247  1
  O  O206  1  0.546693  0.663152  0.620992  1
  O  O207  1  0.545637  0.663661  0.663255  1
  O  O208  1  0.539880  0.500646  0.679830  1
  O  O209  1  0.401679  0.368087  0.710859  1
  O  O210  1  0.401046  0.632403  0.710647  1
  O  O211  1  0.598433  0.368579  0.710712  1
  O  O212  1  0.598069  0.632529  0.710685  1
  Si  Si213  1  0.463282  0.610225  0.133266  1
  Si  Si214  1  0.493323  0.695565  0.180462  1
  Si  Si215  1  0.493293  0.304808  0.180536  1
  Si  Si216  1  0.463950  0.390028  0.133445  1
  Si  Si217  1  0.626836  0.390280  0.133340  1
  Si  Si218  1  0.626375  0.610503  0.133295  1
  Si  Si219  1  0.754019  0.305562  0.180303  1
  Si  Si220  1  0.754340  0.694743  0.180289  1
  Si  Si221  1  0.719061  0.105627  0.191222  1
  Si  Si222  1  0.562303  0.103301  0.190583  1
  Si  Si223  1  0.719419  0.894674  0.191321  1
  Si  Si224  1  0.562469  0.897124  0.190584  1
  Si  Si225  1  0.666725  0.391665  0.206483  1
  Si  Si226  1  0.666968  0.609006  0.206477  1
  Si  Si227  1  0.090581  0.387506  0.245898  1
  Si  Si228  1  0.463942  0.389701  0.218842  1
  Si  Si229  1  0.090479  0.389734  0.295146  1
  Si  Si230  1  0.374177  0.391203  0.246474  1
  Si  Si231  1  0.464769  0.609838  0.218852  1
  Si  Si232  1  0.091255  0.607701  0.245469  1
  Si  Si233  1  0.090959  0.609950  0.294697  1
  Si  Si234  1  0.374301  0.610267  0.246194  1
  Si  Si235  1  0.244905  0.300705  0.255189  1
  Si  Si236  1  0.246628  0.694837  0.254575  1
  Si  Si237  1  0.278215  0.107699  0.274961  1
  Si  Si238  1  0.279087  0.895122  0.275907  1
  Si  Si239  1  0.332139  0.390497  0.307314  1
  Si  Si240  1  0.333302  0.607921  0.307080  1
  Si  Si241  1  0.718996  0.105945  0.237336  1
  Si  Si242  1  0.718989  0.894851  0.237386  1
  Si  Si243  1  0.536477  0.390311  0.295490  1
  Si  Si244  1  0.909550  0.390439  0.267719  1
  Si  Si245  1  0.910355  0.388540  0.218554  1
  Si  Si246  1  0.626906  0.389611  0.268104  1
  Si  Si247  1  0.909863  0.610679  0.267314  1
  Si  Si248  1  0.537344  0.610675  0.295608  1
  Si  Si249  1  0.910377  0.608767  0.218112  1
  Si  Si250  1  0.627877  0.609881  0.268184  1
  Si  Si251  1  0.753539  0.306173  0.259014  1
  Si  Si252  1  0.754057  0.694562  0.259003  1
  Si  Si253  1  0.373207  0.390225  0.381146  1
  Si  Si254  1  0.372788  0.610426  0.380906  1
  Si  Si255  1  0.246156  0.306603  0.333973  1
  Si  Si256  1  0.246728  0.694207  0.333421  1
  Si  Si257  1  0.281671  0.106777  0.322804  1
  Si  Si258  1  0.434953  0.103779  0.322992  1
  Si  Si259  1  0.279302  0.895395  0.322152  1
  Si  Si260  1  0.435898  0.897183  0.322620  1
  Si  Si261  1  0.506291  0.695589  0.333651  1
  Si  Si262  1  0.506056  0.305687  0.333679  1
  Si  Si263  1  0.535937  0.610766  0.380936  1
  Si  Si264  1  0.536043  0.390556  0.381002  1
  Si  Si265  1  0.463282  0.610225  0.435638  1
  Si  Si266  1  0.493323  0.695565  0.482835  1
  Si  Si267  1  0.493293  0.304808  0.482909  1
  Si  Si268  1  0.463950  0.390028  0.435818  1
  Si  Si269  1  0.626836  0.390280  0.435713  1
  Si  Si270  1  0.626375  0.610503  0.435667  1
  Si  Si271  1  0.754019  0.305562  0.482675  1
  Si  Si272  1  0.754340  0.694743  0.482662  1
  Si  Si273  1  0.719061  0.105627  0.493594  1
  Si  Si274  1  0.562303  0.103301  0.492955  1
  Si  Si275  1  0.719419  0.894674  0.493694  1
  Si  Si276  1  0.562469  0.897124  0.492956  1
  Si  Si277  1  0.666725  0.391665  0.508855  1
  Si  Si278  1  0.666968  0.609006  0.508849  1
  Si  Si279  1  0.090581  0.387506  0.548271  1
  Si  Si280  1  0.463942  0.389701  0.521214  1
  Si  Si281  1  0.090479  0.389734  0.597518  1
  Si  Si282  1  0.374177  0.391203  0.548847  1
  Si  Si283  1  0.464769  0.609838  0.521225  1
  Si  Si284  1  0.091255  0.607701  0.547842  1
  Si  Si285  1  0.090959  0.609950  0.597069  1
  Si  Si286  1  0.374301  0.610267  0.548566  1
  Si  Si287  1  0.244905  0.300705  0.557561  1
  Si  Si288  1  0.246628  0.694837  0.556947  1
  Si  Si289  1  0.278215  0.107699  0.577333  1
  Si  Si290  1  0.279087  0.895122  0.578280  1
  Si  Si291  1  0.332139  0.390497  0.609686  1
  Si  Si292  1  0.333302  0.607921  0.609452  1
  Si  Si293  1  0.718996  0.105945  0.539708  1
  Si  Si294  1  0.718989  0.894851  0.539758  1
  Si  Si295  1  0.536477  0.390311  0.597862  1
  Si  Si296  1  0.909550  0.390439  0.570092  1
  Si  Si297  1  0.910355  0.388540  0.520926  1
  Si  Si298  1  0.626906  0.389611  0.570477  1
  Si  Si299  1  0.909863  0.610679  0.569686  1
  Si  Si300  1  0.537344  0.610675  0.597980  1
  Si  Si301  1  0.910377  0.608767  0.520485  1
  Si  Si302  1  0.627877  0.609881  0.570556  1
  Si  Si303  1  0.753539  0.306173  0.561386  1
  Si  Si304  1  0.754057  0.694562  0.561375  1
  Si  Si305  1  0.373207  0.390225  0.683519  1
  Si  Si306  1  0.372788  0.610426  0.683278  1
  Si  Si307  1  0.246156  0.306603  0.636345  1
  Si  Si308  1  0.246728  0.694207  0.635793  1
  Si  Si309  1  0.281671  0.106777  0.625177  1
  Si  Si310  1  0.434953  0.103779  0.625364  1
  Si  Si311  1  0.279302  0.895395  0.624524  1
  Si  Si312  1  0.435898  0.897183  0.624993  1
  Si  Si313  1  0.506291  0.695589  0.636024  1
  Si  Si314  1  0.506056  0.305687  0.636052  1
  Si  Si315  1  0.535937  0.610766  0.683308  1
  Si  Si316  1  0.536043  0.390556  0.683374  1
  H  H317  1  0.401679  0.368087  0.091832  1
  H  H318  1  0.401046  0.632403  0.091620  1
  H  H319  1  0.598433  0.368579  0.091684  1
  H  H320  1  0.598069  0.632529  0.091658  1
  H  H321  1  0.401679  0.368087  0.725141  1
  H  H322  1  0.401046  0.632403  0.724929  1
  H  H323  1  0.598433  0.368579  0.724994  1
  H  H324  1  0.598069  0.632529  0.724967  1
