# generated using pymatgen
data_Si9H2O19
_symmetry_space_group_name_H-M   'P 1'
_cell_length_a   12.27583869
_cell_length_b   28.16119110
_cell_length_c   53.84576710
_cell_angle_alpha   50.13120226
_cell_angle_beta   90.00000000
_cell_angle_gamma   64.06390339
_symmetry_Int_Tables_number   1
_chemical_formula_structural   Si9H2O19
_chemical_formula_sum   'Si72 H16 O152'
_cell_volume   11740.2984421
_cell_formula_units_Z   8
loop_
 _symmetry_equiv_pos_site_id
 _symmetry_equiv_pos_as_xyz
  1  'x, y, z'
loop_
 _atom_site_type_symbol
 _atom_site_label
 _atom_site_symmetry_multiplicity
 _atom_site_fract_x
 _atom_site_fract_y
 _atom_site_fract_z
 _atom_site_occupancy
  O  O1  1  0.446561  0.400164  0.169972  1
  O  O2  1  0.165517  0.362684  0.149115  1
  O  O3  1  0.738817  0.258965  0.181338  1
  O  O4  1  0.355153  0.320036  0.195457  1
  O  O5  1  0.517931  0.186489  0.162097  1
  O  O6  1  0.397726  0.243232  0.183388  1
  O  O7  1  0.397754  0.743198  0.183400  1
  O  O8  1  0.446589  0.900130  0.169979  1
  O  O9  1  0.165551  0.862644  0.149120  1
  O  O10  1  0.738863  0.758931  0.181341  1
  O  O11  1  0.355180  0.820003  0.195461  1
  O  O12  1  0.517968  0.686470  0.162102  1
  O  O13  1  0.499971  0.000000  0.458447  1
  O  O14  1  0.446550  0.400144  0.296949  1
  O  O15  1  0.553356  0.099908  0.438260  1
  O  O16  1  0.691051  0.496571  0.299277  1
  O  O17  1  0.308871  0.003476  0.435933  1
  O  O18  1  0.548677  0.393912  0.340026  1
  O  O19  1  0.451240  0.106136  0.395184  1
  O  O20  1  0.934092  0.409358  0.344409  1
  O  O21  1  0.738001  0.471585  0.353330  1
  O  O22  1  0.771581  0.367058  0.359351  1
  O  O23  1  0.112106  0.392675  0.379183  1
  O  O24  1  0.165538  0.362637  0.342951  1
  O  O25  1  0.834351  0.137410  0.392261  1
  O  O26  1  0.663279  0.321472  0.403124  1
  O  O27  1  0.738851  0.258937  0.380260  1
  O  O28  1  0.261060  0.241116  0.354952  1
  O  O29  1  0.355151  0.320009  0.325196  1
  O  O30  1  0.644737  0.180049  0.410013  1
  O  O31  1  0.517977  0.186466  0.448091  1
  O  O32  1  0.397743  0.243193  0.388758  1
  O  O33  1  0.602126  0.256866  0.346444  1
  O  O34  1  0.065809  0.090696  0.390808  1
  O  O35  1  0.065771  0.090738  0.283596  1
  O  O36  1  0.261865  0.028482  0.381876  1
  O  O37  1  0.261858  0.028501  0.334245  1
  O  O38  1  0.228330  0.132992  0.375859  1
  O  O39  1  0.228294  0.133028  0.270182  1
  O  O40  1  0.887796  0.107404  0.356018  1
  O  O41  1  0.887742  0.107432  0.307179  1
  O  O42  1  0.336633  0.178586  0.332083  1
  O  O43  1  0.336614  0.178599  0.283396  1
  O  O44  1  0.481900  0.313605  0.287112  1
  O  O45  1  0.481930  0.313611  0.237840  1
  O  O46  1  0.547600  0.085096  0.339083  1
  O  O47  1  0.770794  0.062320  0.346721  1
  O  O48  1  0.456220  0.223414  0.292710  1
  O  O49  1  0.677143  0.201659  0.300010  1
  O  O50  1  -0.000000  0.000000  0.312162  1
  O  O51  1  -0.000000  0.000000  0.423034  1
  O  O52  1  0.446561  0.400164  0.505230  1
  O  O53  1  0.553297  0.099954  0.229958  1
  O  O54  1  0.691036  0.496598  0.438242  1
  O  O55  1  0.308821  0.003516  0.296946  1
  O  O56  1  0.548649  0.393948  0.466323  1
  O  O57  1  0.451199  0.106173  0.268863  1
  O  O58  1  0.934088  0.409380  0.451594  1
  O  O59  1  0.738012  0.471598  0.400950  1
  O  O60  1  0.771563  0.367085  0.465008  1
  O  O61  1  0.112124  0.392670  0.428014  1
  O  O62  1  0.165517  0.362684  0.484373  1
  O  O63  1  0.834339  0.137433  0.250816  1
  O  O64  1  0.663255  0.321495  0.451800  1
  O  O65  1  0.738817  0.258965  0.516596  1
  O  O66  1  0.261026  0.241151  0.218599  1
  O  O67  1  0.355153  0.320036  0.530715  1
  O  O68  1  0.644700  0.180087  0.204471  1
  O  O69  1  0.517931  0.186489  0.497355  1
  O  O70  1  0.397726  0.243232  0.518646  1
  O  O71  1  0.602147  0.256879  0.216541  1
  O  O72  1  0.322736  0.298433  0.435187  1
  O  O73  1  0.452300  0.414978  0.396116  1
  O  O74  1  0.229093  0.437771  0.388479  1
  O  O75  1  0.543676  0.276666  0.442485  1
  O  O76  1  0.499908  0.000000  0.276746  1
  O  O77  1  0.397754  0.743198  0.518658  1
  O  O78  1  -0.000000  0.500026  0.312171  1
  O  O79  1  0.553346  0.599913  0.229972  1
  O  O80  1  0.446589  0.900130  0.505236  1
  O  O81  1  0.308867  0.503486  0.296961  1
  O  O82  1  0.691054  0.996567  0.438245  1
  O  O83  1  0.451246  0.606141  0.268874  1
  O  O84  1  0.548684  0.893908  0.466333  1
  O  O85  1  0.065819  0.590704  0.283607  1
  O  O86  1  0.261890  0.528488  0.334253  1
  O  O87  1  0.228339  0.633002  0.270192  1
  O  O88  1  0.887795  0.607400  0.307190  1
  O  O89  1  0.834385  0.637403  0.250827  1
  O  O90  1  0.165551  0.862644  0.484378  1
  O  O91  1  0.336649  0.678593  0.283397  1
  O  O92  1  0.261074  0.741122  0.218600  1
  O  O93  1  0.738863  0.758931  0.516599  1
  O  O94  1  0.644755  0.680039  0.204487  1
  O  O95  1  0.355180  0.820003  0.530719  1
  O  O96  1  0.481946  0.813591  0.237841  1
  O  O97  1  0.602161  0.756851  0.216551  1
  O  O98  1  0.499958  0.500027  0.276762  1
  O  O99  1  0.934077  0.909386  0.344386  1
  O  O100  1  0.934102  0.909348  0.451599  1
  O  O101  1  0.738009  0.971610  0.353313  1
  O  O102  1  0.738023  0.971579  0.400948  1
  O  O103  1  0.771549  0.867095  0.359336  1
  O  O104  1  0.771585  0.867053  0.465011  1
  O  O105  1  0.112098  0.892671  0.379177  1
  O  O106  1  0.112105  0.892667  0.428009  1
  O  O107  1  0.663237  0.821504  0.403111  1
  O  O108  1  0.663257  0.821479  0.451802  1
  O  O109  1  0.517954  0.686486  0.448085  1
  O  O110  1  0.517968  0.686470  0.497360  1
  O  O111  1  0.452269  0.914990  0.396112  1
  O  O112  1  0.229073  0.937769  0.388471  1
  O  O113  1  0.543642  0.776674  0.442484  1
  O  O114  1  0.322722  0.798427  0.435191  1
  O  O115  1  0.553327  0.599949  0.438247  1
  O  O116  1  0.446547  0.900169  0.296937  1
  O  O117  1  0.308841  0.503515  0.435925  1
  O  O118  1  0.691015  0.996605  0.299260  1
  O  O119  1  0.451222  0.606168  0.395175  1
  O  O120  1  0.548638  0.893952  0.340011  1
  O  O121  1  0.065802  0.590728  0.390790  1
  O  O122  1  0.261910  0.528485  0.381878  1
  O  O123  1  0.228318  0.633022  0.375849  1
  O  O124  1  0.887779  0.607416  0.356014  1
  O  O125  1  0.834362  0.637439  0.392254  1
  O  O126  1  0.165534  0.862683  0.342927  1
  O  O127  1  0.336627  0.678603  0.332077  1
  O  O128  1  0.261052  0.741151  0.354939  1
  O  O129  1  0.738825  0.758970  0.380245  1
  O  O130  1  0.644734  0.680081  0.410003  1
  O  O131  1  0.355167  0.820028  0.325181  1
  O  O132  1  0.481951  0.813609  0.287106  1
  O  O133  1  0.602163  0.756881  0.346442  1
  O  O134  1  0.397733  0.743238  0.388741  1
  O  O135  1  0.677171  0.701647  0.300007  1
  O  O136  1  -0.000000  0.500056  0.423026  1
  O  O137  1  0.770812  0.562307  0.346722  1
  O  O138  1  0.547606  0.585099  0.339086  1
  O  O139  1  0.499940  0.500057  0.458440  1
  O  O140  1  0.456239  0.723414  0.292715  1
  O  O141  1  0.481930  0.313611  0.573098  1
  O  O142  1  0.553297  0.099954  0.565216  1
  O  O143  1  0.834339  0.137433  0.586073  1
  O  O144  1  0.261026  0.241151  0.553857  1
  O  O145  1  0.644700  0.180087  0.539729  1
  O  O146  1  0.602147  0.256879  0.551799  1
  O  O147  1  0.553346  0.599913  0.565229  1
  O  O148  1  0.834385  0.637403  0.586085  1
  O  O149  1  0.261074  0.741122  0.553858  1
  O  O150  1  0.644755  0.680039  0.539745  1
  O  O151  1  0.481946  0.813591  0.573099  1
  O  O152  1  0.602161  0.756851  0.551809  1
  Si  Si153  1  0.531187  0.175263  0.194903  1
  Si  Si154  1  0.287767  0.294421  0.185811  1
  Si  Si155  1  0.287806  0.794380  0.185818  1
  Si  Si156  1  0.531245  0.675218  0.194916  1
  Si  Si157  1  0.531242  0.175217  0.422823  1
  Si  Si158  1  0.446643  0.451030  0.300941  1
  Si  Si159  1  0.553280  0.049020  0.434267  1
  Si  Si160  1  0.287790  0.294377  0.352022  1
  Si  Si161  1  0.712107  0.205671  0.383188  1
  Si  Si162  1  0.787476  0.434287  0.339608  1
  Si  Si163  1  0.055155  0.415338  0.344589  1
  Si  Si164  1  0.688770  0.332004  0.371828  1
  Si  Si165  1  0.468654  0.324837  0.312389  1
  Si  Si166  1  0.468661  0.324859  0.205027  1
  Si  Si167  1  0.212424  0.065767  0.395604  1
  Si  Si168  1  0.212392  0.065801  0.295514  1
  Si  Si169  1  0.944746  0.084718  0.390620  1
  Si  Si170  1  0.944715  0.084751  0.287788  1
  Si  Si171  1  0.311145  0.168042  0.363381  1
  Si  Si172  1  0.311110  0.168079  0.259158  1
  Si  Si173  1  0.416304  0.166786  0.311697  1
  Si  Si174  1  0.808278  0.120245  0.327300  1
  Si  Si175  1  0.524613  0.265884  0.278475  1
  Si  Si176  1  0.699865  0.021188  0.360508  1
  Si  Si177  1  0.531187  0.175263  0.530160  1
  Si  Si178  1  0.446627  0.451059  0.467115  1
  Si  Si179  1  0.553225  0.049061  0.268072  1
  Si  Si180  1  0.287767  0.294421  0.521069  1
  Si  Si181  1  0.712081  0.205703  0.214118  1
  Si  Si182  1  0.787472  0.434308  0.439679  1
  Si  Si183  1  0.055145  0.415364  0.447400  1
  Si  Si184  1  0.688738  0.332041  0.476028  1
  Si  Si185  1  0.191606  0.379847  0.407897  1
  Si  Si186  1  0.475258  0.234200  0.456722  1
  Si  Si187  1  0.300039  0.478893  0.374692  1
  Si  Si188  1  0.583590  0.333285  0.423505  1
  Si  Si189  1  0.468695  0.824822  0.205033  1
  Si  Si190  1  0.553272  0.549025  0.268086  1
  Si  Si191  1  0.446657  0.951023  0.467122  1
  Si  Si192  1  0.712132  0.705660  0.214130  1
  Si  Si193  1  0.287806  0.794380  0.521076  1
  Si  Si194  1  0.212433  0.565777  0.295524  1
  Si  Si195  1  0.944763  0.584717  0.287799  1
  Si  Si196  1  0.311158  0.668049  0.259169  1
  Si  Si197  1  0.531226  0.675255  0.422808  1
  Si  Si198  1  0.531245  0.675218  0.530174  1
  Si  Si199  1  0.787460  0.934318  0.339589  1
  Si  Si200  1  0.787484  0.934281  0.439679  1
  Si  Si201  1  0.055141  0.915364  0.344573  1
  Si  Si202  1  0.055158  0.915335  0.447406  1
  Si  Si203  1  0.688730  0.832048  0.371813  1
  Si  Si204  1  0.688771  0.832001  0.476038  1
  Si  Si205  1  0.583564  0.833300  0.423498  1
  Si  Si206  1  0.191590  0.879843  0.407893  1
  Si  Si207  1  0.475253  0.734202  0.456724  1
  Si  Si208  1  0.300005  0.978899  0.374685  1
  Si  Si209  1  0.468671  0.824858  0.312376  1
  Si  Si210  1  0.553253  0.549053  0.434260  1
  Si  Si211  1  0.446602  0.951064  0.300927  1
  Si  Si212  1  0.712104  0.705704  0.383179  1
  Si  Si213  1  0.287791  0.794413  0.352005  1
  Si  Si214  1  0.212422  0.565793  0.395595  1
  Si  Si215  1  0.944740  0.584747  0.390611  1
  Si  Si216  1  0.311132  0.668073  0.363371  1
  Si  Si217  1  0.524646  0.765878  0.278474  1
  Si  Si218  1  0.699867  0.521184  0.360512  1
  Si  Si219  1  0.416316  0.666791  0.311696  1
  Si  Si220  1  0.808301  0.620231  0.327303  1
  Si  Si221  1  0.468661  0.324859  0.540285  1
  Si  Si222  1  0.712081  0.205703  0.549376  1
  Si  Si223  1  0.468695  0.824822  0.540291  1
  Si  Si224  1  0.712132  0.705660  0.549388  1
  H  H225  1  0.446561  0.400164  0.153258  1
  H  H226  1  0.165517  0.362684  0.132400  1
  H  H227  1  0.738817  0.258965  0.164623  1
  H  H228  1  0.517931  0.186489  0.145383  1
  H  H229  1  0.446589  0.900130  0.153264  1
  H  H230  1  0.165551  0.862644  0.132405  1
  H  H231  1  0.738863  0.758931  0.164627  1
  H  H232  1  0.517968  0.686470  0.145387  1
  H  H233  1  0.481930  0.313611  0.589812  1
  H  H234  1  0.553297  0.099954  0.581930  1
  H  H235  1  0.834339  0.137433  0.602788  1
  H  H236  1  0.261026  0.241151  0.570571  1
  H  H237  1  0.553346  0.599913  0.581944  1
  H  H238  1  0.834385  0.637403  0.602799  1
  H  H239  1  0.261074  0.741122  0.570573  1
  H  H240  1  0.481946  0.813591  0.589813  1
