# generated using pymatgen
data_Si47(HO24)4
_symmetry_space_group_name_H-M   'P 1'
_cell_length_a   26.79739289
_cell_length_b   12.91472158
_cell_length_c   57.37092392
_cell_angle_alpha   90.00000000
_cell_angle_beta   90.00000000
_cell_angle_gamma   90.00000000
_symmetry_Int_Tables_number   1
_chemical_formula_structural   Si47(HO24)4
_chemical_formula_sum   'Si188 H16 O384'
_cell_volume   19854.9791631
_cell_formula_units_Z   4
loop_
 _symmetry_equiv_pos_site_id
 _symmetry_equiv_pos_as_xyz
  1  'x, y, z'
loop_
 _atom_site_type_symbol
 _atom_site_label
 _atom_site_symmetry_multiplicity
 _atom_site_fract_x
 _atom_site_fract_y
 _atom_site_fract_z
 _atom_site_occupancy
  O  O1  1  0.171724  0.500053  0.147388  1
  O  O2  1  0.238131  0.641926  0.147559  1
  O  O3  1  0.238139  0.358148  0.147558  1
  O  O4  1  0.141931  0.692338  0.139965  1
  O  O5  1  0.084214  0.807742  0.113012  1
  O  O6  1  0.141925  0.307726  0.139970  1
  O  O7  1  0.084223  0.192347  0.113012  1
  O  O8  1  0.301754  0.500060  0.149260  1
  O  O9  1  0.047822  0.669080  0.141289  1
  O  O10  1  0.081400  0.831009  0.156966  1
  O  O11  1  0.047819  0.331024  0.141285  1
  O  O12  1  0.081397  0.169065  0.156967  1
  O  O13  1  0.663692  0.326880  0.136374  1
  O  O14  1  0.591908  0.673224  0.102840  1
  O  O15  1  0.408055  0.326877  0.102840  1
  O  O16  1  0.591910  0.326887  0.102842  1
  O  O17  1  0.408058  0.673220  0.102841  1
  O  O18  1  0.432226  -0.000000  0.147656  1
  O  O19  1  0.567754  -0.000000  0.147656  1
  O  O20  1  0.336288  0.673212  0.136377  1
  O  O21  1  0.499993  0.863371  0.148371  1
  O  O22  1  0.663690  0.673210  0.136371  1
  O  O23  1  0.499989  0.136730  0.148369  1
  O  O24  1  0.411607  0.799751  0.138029  1
  O  O25  1  0.588377  0.799770  0.138026  1
  O  O26  1  0.588370  0.200333  0.138024  1
  O  O27  1  0.411603  0.200322  0.138028  1
  O  O28  1  0.421072  0.602930  0.142451  1
  O  O29  1  0.578903  0.602942  0.142448  1
  O  O30  1  0.578906  0.397163  0.142449  1
  O  O31  1  0.421074  0.397158  0.142452  1
  O  O32  1  0.336294  0.326848  0.136371  1
  O  O33  1  0.499991  0.500037  0.148291  1
  O  O34  1  0.828252  0.500038  0.147382  1
  O  O35  1  0.761848  0.358167  0.147564  1
  O  O36  1  0.761839  0.641923  0.147559  1
  O  O37  1  0.915759  0.192357  0.113011  1
  O  O38  1  0.858053  0.307741  0.139963  1
  O  O39  1  0.915757  0.807740  0.113011  1
  O  O40  1  0.858055  0.692353  0.139964  1
  O  O41  1  0.698226  0.500043  0.149255  1
  O  O42  1  0.918587  0.169079  0.156966  1
  O  O43  1  0.952158  0.331013  0.141285  1
  O  O44  1  0.918581  0.831010  0.156966  1
  O  O45  1  0.952155  0.669080  0.141286  1
  O  O46  1  -0.000000  0.500045  0.147260  1
  O  O47  1  0.068343  0.000000  0.259515  1
  O  O48  1  0.328267  0.000000  0.380920  1
  O  O49  1  0.171713  0.499984  0.211238  1
  O  O50  1  0.173029  0.368628  0.179300  1
  O  O51  1  0.067966  0.141940  0.290543  1
  O  O52  1  0.261829  0.858169  0.381091  1
  O  O53  1  0.238143  0.358171  0.211086  1
  O  O54  1  0.067925  0.858152  0.290537  1
  O  O55  1  0.238108  0.641940  0.211000  1
  O  O56  1  0.261829  0.141963  0.381092  1
  O  O57  1  0.084219  0.192368  0.245600  1
  O  O58  1  0.141933  0.307788  0.218650  1
  O  O59  1  0.084226  0.807739  0.245606  1
  O  O60  1  0.141918  0.692390  0.218658  1
  O  O61  1  0.091917  0.173239  0.336387  1
  O  O62  1  0.163692  0.826889  0.369914  1
  O  O63  1  0.091913  0.826879  0.336385  1
  O  O64  1  0.163697  0.173236  0.369914  1
  O  O65  1  0.064339  -0.000000  0.320257  1
  O  O66  1  0.198218  -0.000000  0.382793  1
  O  O67  1  0.301754  0.500063  0.209368  1
  O  O68  1  0.068605  -0.000000  0.179309  1
  O  O69  1  0.067747  0.500055  0.381203  1
  O  O70  1  0.088372  0.299784  0.371566  1
  O  O71  1  0.088375  0.700331  0.371566  1
  O  O72  1  0.078900  0.102941  0.375991  1
  O  O73  1  0.078896  0.897165  0.375991  1
  O  O74  1  0.081395  0.169088  0.201651  1
  O  O75  1  0.047822  0.331010  0.217331  1
  O  O76  1  0.081394  0.831021  0.201645  1
  O  O77  1  0.047812  0.669063  0.217330  1
  O  O78  1  0.304450  0.359133  0.179307  1
  O  O79  1  0.304430  0.640966  0.179309  1
  O  O80  1  0.173185  0.631516  0.179319  1
  O  O81  1  0.431634  0.500056  0.332638  1
  O  O82  1  0.568340  0.500067  0.332639  1
  O  O83  1  0.499986  0.631518  0.331999  1
  O  O84  1  0.566223  0.136738  0.179304  1
  O  O85  1  0.499990  0.368612  0.332004  1
  O  O86  1  0.432011  0.641955  0.301615  1
  O  O87  1  0.567967  0.358174  0.301615  1
  O  O88  1  0.432014  0.358170  0.301614  1
  O  O89  1  0.567960  0.641967  0.301613  1
  O  O90  1  0.641920  0.192393  0.373496  1
  O  O91  1  0.415747  0.692369  0.346551  1
  O  O92  1  0.358048  0.807763  0.373502  1
  O  O93  1  0.584225  0.307765  0.346547  1
  O  O94  1  0.641931  0.807797  0.373505  1
  O  O95  1  0.415756  0.307759  0.346551  1
  O  O96  1  0.358047  0.192363  0.373502  1
  O  O97  1  0.584219  0.692391  0.346554  1
  O  O98  1  0.408066  0.673231  0.255770  1
  O  O99  1  0.591910  0.326892  0.255770  1
  O  O100  1  0.408066  0.326877  0.255773  1
  O  O101  1  0.591915  0.673241  0.255766  1
  O  O102  1  0.435644  0.500051  0.271901  1
  O  O103  1  0.564335  0.500059  0.271896  1
  O  O104  1  0.499988  0.640983  0.270644  1
  O  O105  1  0.499993  0.359150  0.270647  1
  O  O106  1  0.567753  -0.000000  0.210959  1
  O  O107  1  0.432227  -0.000000  0.210959  1
  O  O108  1  0.499994  0.863387  0.210247  1
  O  O109  1  0.499989  0.136732  0.210244  1
  O  O110  1  0.588375  0.799796  0.220591  1
  O  O111  1  0.411613  0.799793  0.220592  1
  O  O112  1  0.411604  0.200320  0.220589  1
  O  O113  1  0.588363  0.200342  0.220589  1
  O  O114  1  0.578899  0.602949  0.216167  1
  O  O115  1  0.421080  0.602934  0.216167  1
  O  O116  1  0.421078  0.397175  0.216167  1
  O  O117  1  0.578899  0.397189  0.216168  1
  O  O118  1  0.547817  0.169074  0.374822  1
  O  O119  1  0.418580  0.669079  0.390509  1
  O  O120  1  0.452155  0.831045  0.374822  1
  O  O121  1  0.581398  0.331027  0.390511  1
  O  O122  1  0.547821  0.831034  0.374824  1
  O  O123  1  0.418582  0.331034  0.390511  1
  O  O124  1  0.452155  0.169079  0.374824  1
  O  O125  1  0.581395  0.669090  0.390505  1
  O  O126  1  0.433588  0.500039  0.179306  1
  O  O127  1  0.499992  0.500067  0.210324  1
  O  O128  1  0.336266  0.673233  0.222247  1
  O  O129  1  0.499983  -0.000000  0.380797  1
  O  O130  1  0.663701  0.673229  0.222243  1
  O  O131  1  0.663693  0.326895  0.222244  1
  O  O132  1  0.336284  0.326881  0.222249  1
  O  O133  1  0.566393  0.500058  0.179304  1
  O  O134  1  0.566230  0.863384  0.179304  1
  O  O135  1  0.433759  0.863377  0.179305  1
  O  O136  1  0.433752  0.136725  0.179305  1
  O  O137  1  0.828264  0.500060  0.211236  1
  O  O138  1  0.671711  -0.000000  0.380916  1
  O  O139  1  0.931642  -0.000000  0.259518  1
  O  O140  1  0.826843  0.368602  0.179309  1
  O  O141  1  0.761830  0.641949  0.211063  1
  O  O142  1  0.738104  0.141943  0.381160  1
  O  O143  1  0.932014  0.858168  0.290543  1
  O  O144  1  0.738148  0.858174  0.381069  1
  O  O145  1  0.761862  0.358177  0.211026  1
  O  O146  1  0.932014  0.141936  0.290541  1
  O  O147  1  0.858050  0.692350  0.218651  1
  O  O148  1  0.915763  0.807759  0.245605  1
  O  O149  1  0.858052  0.307737  0.218657  1
  O  O150  1  0.915752  0.192360  0.245605  1
  O  O151  1  0.826918  0.631481  0.179297  1
  O  O152  1  0.836272  0.173236  0.369908  1
  O  O153  1  0.908071  0.826882  0.336383  1
  O  O154  1  0.836287  0.826883  0.369909  1
  O  O155  1  0.908070  0.173235  0.336384  1
  O  O156  1  0.698211  0.500050  0.209363  1
  O  O157  1  0.801757  -0.000000  0.382787  1
  O  O158  1  0.935644  -0.000000  0.320256  1
  O  O159  1  -0.000000  -0.000000  0.381834  1
  O  O160  1  0.932232  0.500067  0.381203  1
  O  O161  1  -0.000000  0.868590  0.260171  1
  O  O162  1  -0.000000  0.859137  0.321512  1
  O  O163  1  0.911610  0.299780  0.371567  1
  O  O164  1  0.911609  0.700341  0.371569  1
  O  O165  1  0.921079  0.102943  0.375990  1
  O  O166  1  0.921074  0.897176  0.375990  1
  O  O167  1  0.952153  0.669075  0.217332  1
  O  O168  1  0.918587  0.831018  0.201647  1
  O  O169  1  0.952156  0.331030  0.217330  1
  O  O170  1  0.918580  0.169085  0.201647  1
  O  O171  1  -0.000000  0.500046  0.211357  1
  O  O172  1  -0.000000  0.368545  0.179308  1
  O  O173  1  0.695543  0.640968  0.179300  1
  O  O174  1  0.000000  0.631554  0.179307  1
  O  O175  1  0.000000  0.131489  0.260154  1
  O  O176  1  0.695550  0.359136  0.179307  1
  O  O177  1  0.931380  0.000000  0.179309  1
  O  O178  1  -0.000000  0.363392  0.381918  1
  O  O179  1  -0.000000  0.868546  0.179308  1
  O  O180  1  -0.000000  0.636725  0.381913  1
  O  O181  1  -0.000000  0.131546  0.179311  1
  O  O182  1  -0.000000  0.140964  0.321511  1
  O  O183  1  0.328255  -0.000000  0.444773  1
  O  O184  1  0.171724  0.500053  0.614471  1
  O  O185  1  0.068335  -0.000000  0.566179  1
  O  O186  1  0.261844  0.141945  0.444599  1
  O  O187  1  0.238131  0.641926  0.614642  1
  O  O188  1  0.067961  0.858162  0.535155  1
  O  O189  1  0.238139  0.358148  0.614641  1
  O  O190  1  0.261841  0.858172  0.444599  1
  O  O191  1  0.067960  0.141927  0.535158  1
  O  O192  1  0.141931  0.692338  0.607048  1
  O  O193  1  0.084214  0.807742  0.580095  1
  O  O194  1  0.141925  0.307726  0.607053  1
  O  O195  1  0.084223  0.192347  0.580095  1
  O  O196  1  0.163696  0.173228  0.455784  1
  O  O197  1  0.091915  0.826879  0.489313  1
  O  O198  1  0.163696  0.826890  0.455784  1
  O  O199  1  0.091914  0.173221  0.489315  1
  O  O200  1  0.198223  -0.000000  0.442904  1
  O  O201  1  0.301754  0.500060  0.616343  1
  O  O202  1  0.064335  -0.000000  0.505439  1
  O  O203  1  0.067745  0.500055  0.444500  1
  O  O204  1  0.088370  0.299772  0.454133  1
  O  O205  1  0.088375  0.700334  0.454132  1
  O  O206  1  0.078903  0.102942  0.449708  1
  O  O207  1  0.078902  0.897164  0.449709  1
  O  O208  1  0.047822  0.669080  0.608373  1
  O  O209  1  0.081400  0.831009  0.624049  1
  O  O210  1  0.047819  0.331024  0.608368  1
  O  O211  1  0.081397  0.169065  0.624050  1
  O  O212  1  0.066390  -0.000000  0.412851  1
  O  O213  1  0.326920  0.868624  0.412857  1
  O  O214  1  0.326917  0.131500  0.412857  1
  O  O215  1  0.066219  0.363383  0.412852  1
  O  O216  1  0.195542  0.140984  0.412853  1
  O  O217  1  0.195541  0.859147  0.412853  1
  O  O218  1  0.066223  0.636718  0.412852  1
  O  O219  1  0.568327  0.500055  0.493061  1
  O  O220  1  0.431628  0.500048  0.493056  1
  O  O221  1  0.663692  0.326880  0.603457  1
  O  O222  1  0.499990  0.368561  0.412844  1
  O  O223  1  0.499984  0.631494  0.493714  1
  O  O224  1  0.499986  0.368613  0.493717  1
  O  O225  1  0.567960  0.641936  0.524082  1
  O  O226  1  0.432048  0.358153  0.524082  1
  O  O227  1  0.567966  0.358163  0.524084  1
  O  O228  1  0.432050  0.641936  0.524081  1
  O  O229  1  0.358052  0.192367  0.452191  1
  O  O230  1  0.584209  0.692352  0.479143  1
  O  O231  1  0.641919  0.807734  0.452186  1
  O  O232  1  0.415755  0.307740  0.479144  1
  O  O233  1  0.358049  0.807748  0.452191  1
  O  O234  1  0.584209  0.307755  0.479144  1
  O  O235  1  0.641923  0.192364  0.452188  1
  O  O236  1  0.415754  0.692352  0.479141  1
  O  O237  1  0.591908  0.673224  0.569924  1
  O  O238  1  0.408055  0.326877  0.569923  1
  O  O239  1  0.591910  0.326887  0.569925  1
  O  O240  1  0.408058  0.673220  0.569925  1
  O  O241  1  0.564329  0.500057  0.553797  1
  O  O242  1  0.435634  0.500051  0.553800  1
  O  O243  1  0.499990  0.640966  0.555054  1
  O  O244  1  0.499991  0.359128  0.555057  1
  O  O245  1  0.432226  -0.000000  0.614739  1
  O  O246  1  0.567754  -0.000000  0.614739  1
  O  O247  1  0.336288  0.673212  0.603460  1
  O  O248  1  0.499993  0.863371  0.615454  1
  O  O249  1  0.663690  0.673210  0.603454  1
  O  O250  1  0.499989  0.136730  0.615453  1
  O  O251  1  0.411607  0.799751  0.605112  1
  O  O252  1  0.588377  0.799770  0.605109  1
  O  O253  1  0.588370  0.200333  0.605107  1
  O  O254  1  0.411603  0.200322  0.605111  1
  O  O255  1  0.421072  0.602930  0.609535  1
  O  O256  1  0.578903  0.602942  0.609531  1
  O  O257  1  0.578906  0.397163  0.609532  1
  O  O258  1  0.421074  0.397158  0.609536  1
  O  O259  1  0.452159  0.169071  0.450870  1
  O  O260  1  0.581397  0.669077  0.435190  1
  O  O261  1  0.547820  0.831023  0.450870  1
  O  O262  1  0.418581  0.331039  0.435191  1
  O  O263  1  0.452160  0.831021  0.450872  1
  O  O264  1  0.581401  0.331028  0.435192  1
  O  O265  1  0.547826  0.169081  0.450870  1
  O  O266  1  0.418584  0.669079  0.435191  1
  O  O267  1  0.336294  0.326848  0.603454  1
  O  O268  1  0.499991  0.500037  0.615374  1
  O  O269  1  0.499988  0.631560  0.412847  1
  O  O270  1  0.431374  0.500055  0.412847  1
  O  O271  1  0.568608  0.500055  0.412846  1
  O  O272  1  0.499988  0.000000  0.444896  1
  O  O273  1  0.499990  0.131558  0.412849  1
  O  O274  1  0.499982  0.868551  0.412849  1
  O  O275  1  0.931643  -0.000000  0.566176  1
  O  O276  1  0.828252  0.500038  0.614465  1
  O  O277  1  0.671728  -0.000000  0.444765  1
  O  O278  1  0.673206  0.131526  0.412838  1
  O  O279  1  0.932018  0.141939  0.535155  1
  O  O280  1  0.761848  0.358167  0.614647  1
  O  O281  1  0.738134  0.858163  0.444599  1
  O  O282  1  0.932013  0.858160  0.535154  1
  O  O283  1  0.738128  0.141942  0.444594  1
  O  O284  1  0.761839  0.641923  0.614642  1
  O  O285  1  0.915759  0.192357  0.580094  1
  O  O286  1  0.858053  0.307741  0.607047  1
  O  O287  1  0.915757  0.807740  0.580094  1
  O  O288  1  0.858055  0.692353  0.607048  1
  O  O289  1  0.908062  0.173225  0.489312  1
  O  O290  1  0.933585  0.000000  0.412849  1
  O  O291  1  0.836289  0.826869  0.455784  1
  O  O292  1  0.908056  0.826886  0.489313  1
  O  O293  1  0.836278  0.173222  0.455778  1
  O  O294  1  0.933756  0.636730  0.412850  1
  O  O295  1  0.935641  -0.000000  0.505437  1
  O  O296  1  0.698226  0.500043  0.616338  1
  O  O297  1  0.801752  0.000000  0.442895  1
  O  O298  1  0.804437  0.140975  0.412846  1
  O  O299  1  -0.000000  0.859133  0.504184  1
  O  O300  1  0.932227  0.500060  0.444502  1
  O  O301  1  0.933759  0.363390  0.412850  1
  O  O302  1  -0.000000  0.636728  0.443788  1
  O  O303  1  0.911602  0.299783  0.454132  1
  O  O304  1  0.911602  0.700322  0.454130  1
  O  O305  1  0.921075  0.102945  0.449706  1
  O  O306  1  0.921072  0.897177  0.449705  1
  O  O307  1  0.918587  0.169079  0.624049  1
  O  O308  1  0.952158  0.331013  0.608368  1
  O  O309  1  0.918581  0.831010  0.624049  1
  O  O310  1  0.952155  0.669080  0.608369  1
  O  O311  1  -0.000000  0.140969  0.504186  1
  O  O312  1  -0.000000  0.500045  0.614343  1
  O  O313  1  0.000000  0.363383  0.443786  1
  O  O314  1  -0.000000  -0.000000  0.443866  1
  O  O315  1  -0.000000  0.131485  0.565540  1
  O  O316  1  -0.000000  0.868606  0.565541  1
  O  O317  1  0.673031  0.868645  0.412858  1
  O  O318  1  0.804451  0.859143  0.412850  1
  O  O319  1  0.171713  0.499984  0.678321  1
  O  O320  1  0.173029  0.368628  0.646383  1
  O  O321  1  0.238143  0.358171  0.678169  1
  O  O322  1  0.238108  0.641940  0.678083  1
  O  O323  1  0.084219  0.192368  0.712683  1
  O  O324  1  0.141933  0.307788  0.685733  1
  O  O325  1  0.084226  0.807739  0.712690  1
  O  O326  1  0.141918  0.692390  0.685741  1
  O  O327  1  0.301754  0.500063  0.676451  1
  O  O328  1  0.068605  0.000000  0.646393  1
  O  O329  1  0.081395  0.169088  0.668735  1
  O  O330  1  0.047822  0.331010  0.684414  1
  O  O331  1  0.081394  0.831021  0.668729  1
  O  O332  1  0.047812  0.669063  0.684413  1
  O  O333  1  0.304450  0.359133  0.646390  1
  O  O334  1  0.304430  0.640966  0.646393  1
  O  O335  1  0.173185  0.631516  0.646403  1
  O  O336  1  0.566223  0.136738  0.646387  1
  O  O337  1  0.408066  0.673231  0.722853  1
  O  O338  1  0.591910  0.326892  0.722853  1
  O  O339  1  0.408066  0.326877  0.722856  1
  O  O340  1  0.591915  0.673241  0.722850  1
  O  O341  1  0.567753  -0.000000  0.678042  1
  O  O342  1  0.432227  0.000000  0.678042  1
  O  O343  1  0.499994  0.863387  0.677330  1
  O  O344  1  0.499989  0.136732  0.677327  1
  O  O345  1  0.588375  0.799796  0.687674  1
  O  O346  1  0.411613  0.799793  0.687675  1
  O  O347  1  0.411604  0.200320  0.687673  1
  O  O348  1  0.588363  0.200342  0.687673  1
  O  O349  1  0.578899  0.602949  0.683250  1
  O  O350  1  0.421080  0.602934  0.683250  1
  O  O351  1  0.421078  0.397175  0.683251  1
  O  O352  1  0.578899  0.397189  0.683252  1
  O  O353  1  0.433588  0.500039  0.646389  1
  O  O354  1  0.499992  0.500067  0.677407  1
  O  O355  1  0.336266  0.673233  0.689330  1
  O  O356  1  0.663701  0.673229  0.689327  1
  O  O357  1  0.663693  0.326895  0.689327  1
  O  O358  1  0.336284  0.326881  0.689332  1
  O  O359  1  0.566393  0.500058  0.646388  1
  O  O360  1  0.566230  0.863384  0.646388  1
  O  O361  1  0.433759  0.863377  0.646388  1
  O  O362  1  0.433752  0.136725  0.646388  1
  O  O363  1  0.828264  0.500060  0.678319  1
  O  O364  1  0.826843  0.368602  0.646393  1
  O  O365  1  0.761830  0.641949  0.678146  1
  O  O366  1  0.761862  0.358177  0.678109  1
  O  O367  1  0.858050  0.692350  0.685734  1
  O  O368  1  0.915763  0.807759  0.712688  1
  O  O369  1  0.858052  0.307737  0.685740  1
  O  O370  1  0.915752  0.192360  0.712689  1
  O  O371  1  0.826918  0.631481  0.646381  1
  O  O372  1  0.698211  0.500050  0.676447  1
  O  O373  1  0.952153  0.669075  0.684416  1
  O  O374  1  0.918587  0.831018  0.668731  1
  O  O375  1  0.952156  0.331030  0.684413  1
  O  O376  1  0.918580  0.169085  0.668730  1
  O  O377  1  -0.000000  0.500046  0.678440  1
  O  O378  1  0.000000  0.368545  0.646391  1
  O  O379  1  0.695543  0.640968  0.646383  1
  O  O380  1  -0.000000  0.631554  0.646390  1
  O  O381  1  0.695550  0.359136  0.646390  1
  O  O382  1  0.931380  -0.000000  0.646392  1
  O  O383  1  -0.000000  0.868546  0.646391  1
  O  O384  1  0.000000  0.131546  0.646394  1
  Si  Si385  1  0.090469  0.250049  0.137045  1
  Si  Si386  1  0.090475  0.750039  0.137043  1
  Si  Si387  1  0.295410  0.380286  0.152444  1
  Si  Si388  1  0.180844  0.619193  0.152327  1
  Si  Si389  1  0.180842  0.380901  0.152315  1
  Si  Si390  1  0.295397  0.619824  0.152448  1
  Si  Si391  1  0.442536  0.500044  0.152470  1
  Si  Si392  1  0.557446  0.500048  0.152468  1
  Si  Si393  1  0.442485  0.880904  0.152444  1
  Si  Si394  1  0.557500  0.880917  0.152444  1
  Si  Si395  1  0.557496  0.119189  0.152444  1
  Si  Si396  1  0.442482  0.119180  0.152445  1
  Si  Si397  1  0.392829  0.691155  0.129256  1
  Si  Si398  1  0.607148  0.691169  0.129253  1
  Si  Si399  1  0.607149  0.308933  0.129254  1
  Si  Si400  1  0.392839  0.308922  0.129255  1
  Si  Si401  1  0.819140  0.380896  0.152322  1
  Si  Si402  1  0.819134  0.619187  0.152309  1
  Si  Si403  1  0.704580  0.380275  0.152446  1
  Si  Si404  1  0.704574  0.619811  0.152441  1
  Si  Si405  1  0.909507  0.250047  0.137044  1
  Si  Si406  1  0.909505  0.750047  0.137044  1
  Si  Si407  1  -0.000000  0.381265  0.152073  1
  Si  Si408  1  -0.000000  0.618831  0.152072  1
  Si  Si409  1  0.090488  0.250071  0.221569  1
  Si  Si410  1  0.057494  0.380915  0.385991  1
  Si  Si411  1  0.058296  0.881267  0.179305  1
  Si  Si412  1  0.057446  0.000000  0.386014  1
  Si  Si413  1  0.090456  0.750055  0.221571  1
  Si  Si414  1  0.107149  0.191175  0.362799  1
  Si  Si415  1  0.057496  0.619199  0.385991  1
  Si  Si416  1  0.107147  0.808942  0.362797  1
  Si  Si417  1  0.057764  0.119217  0.263779  1
  Si  Si418  1  0.319128  0.880904  0.385869  1
  Si  Si419  1  0.180855  0.380863  0.206288  1
  Si  Si420  1  0.057775  0.880910  0.263778  1
  Si  Si421  1  0.180813  0.619138  0.206306  1
  Si  Si422  1  0.319129  0.119215  0.385870  1
  Si  Si423  1  0.057499  0.119817  0.317293  1
  Si  Si424  1  0.204566  0.880302  0.385991  1
  Si  Si425  1  0.295408  0.380297  0.206171  1
  Si  Si426  1  0.057498  0.880283  0.317289  1
  Si  Si427  1  0.295381  0.619820  0.206167  1
  Si  Si428  1  0.204567  0.119817  0.385992  1
  Si  Si429  1  0.058297  0.118836  0.179311  1
  Si  Si430  1  0.442536  0.500054  0.206143  1
  Si  Si431  1  0.557447  0.500067  0.206142  1
  Si  Si432  1  0.442208  0.619205  0.328376  1
  Si  Si433  1  0.557766  0.380923  0.328374  1
  Si  Si434  1  0.442212  0.380913  0.328375  1
  Si  Si435  1  0.557763  0.619217  0.328377  1
  Si  Si436  1  0.442480  0.619815  0.274866  1
  Si  Si437  1  0.557502  0.380296  0.274866  1
  Si  Si438  1  0.442484  0.380290  0.274866  1
  Si  Si439  1  0.557498  0.619826  0.274863  1
  Si  Si440  1  0.499989  0.881275  0.385613  1
  Si  Si441  1  0.499984  0.118838  0.385613  1
  Si  Si442  1  0.557501  0.880927  0.206166  1
  Si  Si443  1  0.442487  0.880926  0.206166  1
  Si  Si444  1  0.442483  0.119198  0.206166  1
  Si  Si445  1  0.557495  0.119203  0.206165  1
  Si  Si446  1  0.607151  0.691183  0.229356  1
  Si  Si447  1  0.392830  0.691168  0.229355  1
  Si  Si448  1  0.392835  0.308931  0.229360  1
  Si  Si449  1  0.607145  0.308946  0.229358  1
  Si  Si450  1  0.590459  0.250076  0.370582  1
  Si  Si451  1  0.409504  0.750059  0.370588  1
  Si  Si452  1  0.590483  0.750082  0.370587  1
  Si  Si453  1  0.409506  0.250061  0.370587  1
  Si  Si454  1  0.942481  0.380929  0.385989  1
  Si  Si455  1  0.892836  0.808937  0.362795  1
  Si  Si456  1  0.941683  0.118830  0.179307  1
  Si  Si457  1  0.942536  -0.000000  0.386012  1
  Si  Si458  1  0.892832  0.191172  0.362798  1
  Si  Si459  1  0.909508  0.250049  0.221571  1
  Si  Si460  1  0.909505  0.750054  0.221571  1
  Si  Si461  1  0.942484  0.619202  0.385989  1
  Si  Si462  1  0.819130  0.619209  0.206285  1
  Si  Si463  1  0.680814  0.119151  0.385845  1
  Si  Si464  1  0.942216  0.880903  0.263782  1
  Si  Si465  1  0.680857  0.880869  0.385870  1
  Si  Si466  1  0.819150  0.380911  0.206299  1
  Si  Si467  1  0.942208  0.119194  0.263779  1
  Si  Si468  1  0.704566  0.619809  0.206162  1
  Si  Si469  1  0.795381  0.119822  0.385989  1
  Si  Si470  1  0.942484  0.880282  0.317291  1
  Si  Si471  1  0.795410  0.880296  0.385986  1
  Si  Si472  1  0.704585  0.380294  0.206167  1
  Si  Si473  1  0.942481  0.119820  0.317290  1
  Si  Si474  1  0.941681  0.881262  0.179305  1
  Si  Si475  1  -0.000000  0.381264  0.206544  1
  Si  Si476  1  -0.000000  0.618825  0.206542  1
  Si  Si477  1  0.057445  -0.000000  0.439687  1
  Si  Si478  1  0.057497  0.619191  0.439713  1
  Si  Si479  1  0.057496  0.119809  0.508409  1
  Si  Si480  1  0.057496  0.380919  0.439713  1
  Si  Si481  1  0.090469  0.250049  0.604128  1
  Si  Si482  1  0.204577  0.880286  0.439712  1
  Si  Si483  1  0.090475  0.750039  0.604126  1
  Si  Si484  1  0.295410  0.380286  0.619527  1
  Si  Si485  1  0.057495  0.880280  0.508407  1
  Si  Si486  1  0.107152  0.808935  0.462901  1
  Si  Si487  1  0.107149  0.191168  0.462902  1
  Si  Si488  1  0.319137  0.119199  0.439846  1
  Si  Si489  1  0.180844  0.619193  0.619411  1
  Si  Si490  1  0.057761  0.880895  0.561917  1
  Si  Si491  1  0.180842  0.380901  0.619399  1
  Si  Si492  1  0.319134  0.880915  0.439845  1
  Si  Si493  1  0.057764  0.119191  0.561919  1
  Si  Si494  1  0.204579  0.119830  0.439713  1
  Si  Si495  1  0.295397  0.619824  0.619531  1
  Si  Si496  1  0.442536  0.500044  0.619553  1
  Si  Si497  1  0.590472  0.250055  0.455114  1
  Si  Si498  1  0.557446  0.500048  0.619551  1
  Si  Si499  1  0.557761  0.619202  0.497322  1
  Si  Si500  1  0.442204  0.380895  0.497322  1
  Si  Si501  1  0.557765  0.380908  0.497324  1
  Si  Si502  1  0.442204  0.619203  0.497320  1
  Si  Si503  1  0.557495  0.619826  0.550830  1
  Si  Si504  1  0.442486  0.380286  0.550832  1
  Si  Si505  1  0.557496  0.380285  0.550832  1
  Si  Si506  1  0.442485  0.619812  0.550832  1
  Si  Si507  1  0.409503  0.750061  0.455110  1
  Si  Si508  1  0.590469  0.750055  0.455111  1
  Si  Si509  1  0.499988  0.881276  0.440085  1
  Si  Si510  1  0.409507  0.250045  0.455110  1
  Si  Si511  1  0.558297  0.618842  0.412846  1
  Si  Si512  1  0.499994  0.118836  0.440083  1
  Si  Si513  1  0.442485  0.880904  0.619527  1
  Si  Si514  1  0.557500  0.880917  0.619527  1
  Si  Si515  1  0.557496  0.119189  0.619527  1
  Si  Si516  1  0.442482  0.119180  0.619528  1
  Si  Si517  1  0.392829  0.691155  0.596340  1
  Si  Si518  1  0.607148  0.691169  0.596336  1
  Si  Si519  1  0.607149  0.308933  0.596337  1
  Si  Si520  1  0.392839  0.308922  0.596338  1
  Si  Si521  1  0.441682  0.381277  0.412850  1
  Si  Si522  1  0.441680  0.618837  0.412850  1
  Si  Si523  1  0.558298  0.381273  0.412852  1
  Si  Si524  1  0.942535  -0.000000  0.439686  1
  Si  Si525  1  0.942209  0.119192  0.561917  1
  Si  Si526  1  0.819140  0.380896  0.619406  1
  Si  Si527  1  0.680840  0.880914  0.439842  1
  Si  Si528  1  0.942208  0.880896  0.561916  1
  Si  Si529  1  0.680841  0.119211  0.439824  1
  Si  Si530  1  0.819134  0.619187  0.619392  1
  Si  Si531  1  0.942481  0.119813  0.508406  1
  Si  Si532  1  0.704580  0.380275  0.619529  1
  Si  Si533  1  0.795405  0.880304  0.439712  1
  Si  Si534  1  0.942479  0.880285  0.508406  1
  Si  Si535  1  0.795394  0.119834  0.439705  1
  Si  Si536  1  0.704574  0.619811  0.619524  1
  Si  Si537  1  0.942482  0.380922  0.439711  1
  Si  Si538  1  0.942485  0.619194  0.439710  1
  Si  Si539  1  0.892823  0.191168  0.462898  1
  Si  Si540  1  0.892835  0.808935  0.462899  1
  Si  Si541  1  0.909507  0.250047  0.604127  1
  Si  Si542  1  0.909505  0.750047  0.604127  1
  Si  Si543  1  -0.000000  0.381265  0.619157  1
  Si  Si544  1  -0.000000  0.618831  0.619155  1
  Si  Si545  1  0.090488  0.250071  0.688652  1
  Si  Si546  1  0.058296  0.881267  0.646388  1
  Si  Si547  1  0.090456  0.750055  0.688654  1
  Si  Si548  1  0.180855  0.380863  0.673371  1
  Si  Si549  1  0.180813  0.619138  0.673390  1
  Si  Si550  1  0.295408  0.380297  0.673255  1
  Si  Si551  1  0.295381  0.619820  0.673250  1
  Si  Si552  1  0.058297  0.118836  0.646394  1
  Si  Si553  1  0.442536  0.500054  0.673226  1
  Si  Si554  1  0.557447  0.500067  0.673225  1
  Si  Si555  1  0.557501  0.880927  0.673249  1
  Si  Si556  1  0.442487  0.880926  0.673249  1
  Si  Si557  1  0.442483  0.119198  0.673249  1
  Si  Si558  1  0.557495  0.119203  0.673249  1
  Si  Si559  1  0.607151  0.691183  0.696439  1
  Si  Si560  1  0.392830  0.691168  0.696438  1
  Si  Si561  1  0.392835  0.308931  0.696443  1
  Si  Si562  1  0.607145  0.308946  0.696441  1
  Si  Si563  1  0.941683  0.118830  0.646390  1
  Si  Si564  1  0.909508  0.250049  0.688654  1
  Si  Si565  1  0.909505  0.750054  0.688654  1
  Si  Si566  1  0.819130  0.619209  0.673368  1
  Si  Si567  1  0.819150  0.380911  0.673382  1
  Si  Si568  1  0.704566  0.619809  0.673245  1
  Si  Si569  1  0.704585  0.380294  0.673250  1
  Si  Si570  1  0.941681  0.881262  0.646389  1
  Si  Si571  1  -0.000000  0.381264  0.673627  1
  Si  Si572  1  -0.000000  0.618825  0.673626  1
  H  H573  1  0.084214  0.807742  0.097325  1
  H  H574  1  0.084223  0.192347  0.097324  1
  H  H575  1  0.591908  0.673224  0.087153  1
  H  H576  1  0.408055  0.326877  0.087152  1
  H  H577  1  0.591910  0.326887  0.087154  1
  H  H578  1  0.408058  0.673220  0.087154  1
  H  H579  1  0.915759  0.192357  0.097323  1
  H  H580  1  0.915757  0.807740  0.097323  1
  H  H581  1  0.084219  0.192368  0.728370  1
  H  H582  1  0.084226  0.807739  0.728377  1
  H  H583  1  0.408066  0.673231  0.738541  1
  H  H584  1  0.591910  0.326892  0.738541  1
  H  H585  1  0.408066  0.326877  0.738544  1
  H  H586  1  0.591915  0.673241  0.738537  1
  H  H587  1  0.915763  0.807759  0.728376  1
  H  H588  1  0.915752  0.192360  0.728376  1
