# generated using pymatgen
data_Si8H2O17
_symmetry_space_group_name_H-M   'P 1'
_cell_length_a   12.64886671
_cell_length_b   11.38395757
_cell_length_c   35.40908544
_cell_angle_alpha   90.00000000
_cell_angle_beta   90.00000000
_cell_angle_gamma   90.00000000
_symmetry_Int_Tables_number   1
_chemical_formula_structural   Si8H2O17
_chemical_formula_sum   'Si32 H8 O68'
_cell_volume   5098.70158213
_cell_formula_units_Z   4
loop_
 _symmetry_equiv_pos_site_id
 _symmetry_equiv_pos_as_xyz
  1  'x, y, z'
loop_
 _atom_site_type_symbol
 _atom_site_label
 _atom_site_symmetry_multiplicity
 _atom_site_fract_x
 _atom_site_fract_y
 _atom_site_fract_z
 _atom_site_occupancy
  O  O1  1  0.322819  0.826020  0.166624  1
  O  O2  1  0.322817  0.173756  0.166624  1
  O  O3  1  0.677283  0.826019  0.166625  1
  O  O4  1  0.677283  0.173759  0.166624  1
  O  O5  1  0.362491  -0.000000  0.210263  1
  O  O6  1  0.398570  0.811365  0.306034  1
  O  O7  1  0.398569  0.188383  0.306035  1
  O  O8  1  0.336021  0.793401  0.239178  1
  O  O9  1  0.336022  0.206360  0.239179  1
  O  O10  1  0.202878  0.792008  0.295133  1
  O  O11  1  0.202876  0.207732  0.295133  1
  O  O12  1  0.331392  0.615270  0.285886  1
  O  O13  1  0.331384  0.384478  0.285889  1
  O  O14  1  0.140305  0.845217  0.362848  1
  O  O15  1  0.140304  0.154521  0.362850  1
  O  O16  1  0.000000  0.159023  0.311795  1
  O  O17  1  0.360922  0.499878  0.347383  1
  O  O18  1  0.139981  -0.000000  0.312725  1
  O  O19  1  0.000000  0.840715  0.311794  1
  O  O20  1  0.327685  0.387785  0.409517  1
  O  O21  1  0.327685  0.611946  0.409521  1
  O  O22  1  0.362490  0.499882  0.522047  1
  O  O23  1  0.322812  0.326009  0.478408  1
  O  O24  1  0.322814  0.673749  0.478409  1
  O  O25  1  0.142383  0.000000  0.413275  1
  O  O26  1  0.336024  0.293406  0.550963  1
  O  O27  1  0.336025  0.706364  0.550963  1
  O  O28  1  0.200333  0.217184  0.428780  1
  O  O29  1  0.200334  0.782553  0.428779  1
  O  O30  1  0.398849  0.807372  0.428485  1
  O  O31  1  0.398848  0.192365  0.428488  1
  O  O32  1  -0.000000  0.157414  0.413715  1
  O  O33  1  -0.000000  0.842322  0.413714  1
  O  O34  1  0.637607  -0.000000  0.210262  1
  O  O35  1  0.601515  0.811368  0.306033  1
  O  O36  1  0.601514  0.188381  0.306034  1
  O  O37  1  0.664072  0.793402  0.239179  1
  O  O38  1  0.664070  0.206360  0.239179  1
  O  O39  1  0.797208  0.792003  0.295134  1
  O  O40  1  0.797207  0.207735  0.295134  1
  O  O41  1  0.668688  0.615270  0.285886  1
  O  O42  1  0.668696  0.384478  0.285889  1
  O  O43  1  0.859782  0.845218  0.362848  1
  O  O44  1  0.859780  0.154518  0.362850  1
  O  O45  1  0.639158  0.499877  0.347382  1
  O  O46  1  0.500040  0.000000  0.317317  1
  O  O47  1  0.500044  0.842253  0.367627  1
  O  O48  1  0.860103  -0.000000  0.312724  1
  O  O49  1  0.500048  0.154955  0.200654  1
  O  O50  1  0.500049  0.844815  0.200655  1
  O  O51  1  0.500043  0.157491  0.367629  1
  O  O52  1  0.500040  0.499868  0.297076  1
  O  O53  1  0.500041  0.499867  0.398785  1
  O  O54  1  0.672397  0.387784  0.409517  1
  O  O55  1  0.672397  0.611946  0.409521  1
  O  O56  1  0.637606  0.499880  0.522047  1
  O  O57  1  0.677279  0.326009  0.478407  1
  O  O58  1  0.677279  0.673745  0.478408  1
  O  O59  1  0.857702  -0.000000  0.413276  1
  O  O60  1  0.664073  0.293405  0.550963  1
  O  O61  1  0.664077  0.706364  0.550963  1
  O  O62  1  0.799750  0.217183  0.428779  1
  O  O63  1  0.799752  0.782551  0.428778  1
  O  O64  1  0.500043  -0.000000  0.417812  1
  O  O65  1  0.601236  0.807371  0.428486  1
  O  O66  1  0.601235  0.192366  0.428489  1
  O  O67  1  0.500048  0.654951  0.512440  1
  O  O68  1  0.500047  0.344812  0.512438  1
  Si  Si69  1  0.377622  0.499868  0.391145  1
  Si  Si70  1  0.377837  0.499874  0.303593  1
  Si  Si71  1  0.121482  0.864472  0.319308  1
  Si  Si72  1  0.121481  0.135267  0.319308  1
  Si  Si73  1  0.314180  0.750822  0.280466  1
  Si  Si74  1  0.314177  0.248926  0.280468  1
  Si  Si75  1  0.377804  0.864221  0.204344  1
  Si  Si76  1  0.377803  0.135549  0.204342  1
  Si  Si77  1  0.308098  0.281835  0.436875  1
  Si  Si78  1  0.377803  0.635546  0.516127  1
  Si  Si79  1  0.377802  0.364218  0.516126  1
  Si  Si80  1  0.308099  0.717905  0.436875  1
  Si  Si81  1  0.121678  0.864457  0.406405  1
  Si  Si82  1  0.121678  0.135280  0.406406  1
  Si  Si83  1  0.622459  0.499868  0.391145  1
  Si  Si84  1  0.878604  0.864471  0.319308  1
  Si  Si85  1  0.878603  0.135266  0.319308  1
  Si  Si86  1  0.685906  0.750821  0.280467  1
  Si  Si87  1  0.685907  0.248926  0.280469  1
  Si  Si88  1  0.622294  0.864221  0.204343  1
  Si  Si89  1  0.622293  0.135549  0.204342  1
  Si  Si90  1  0.622243  0.499874  0.303593  1
  Si  Si91  1  0.500041  0.135381  0.324044  1
  Si  Si92  1  0.500042  0.864367  0.324043  1
  Si  Si93  1  0.622294  0.635545  0.516128  1
  Si  Si94  1  0.500042  0.135461  0.411269  1
  Si  Si95  1  0.622292  0.364217  0.516126  1
  Si  Si96  1  0.878408  0.864456  0.406405  1
  Si  Si97  1  0.878407  0.135279  0.406406  1
  Si  Si98  1  0.691987  0.281835  0.436875  1
  Si  Si99  1  0.691987  0.717903  0.436874  1
  Si  Si100  1  0.500043  0.864279  0.411268  1
  H  H101  1  0.322819  0.826020  0.141207  1
  H  H102  1  0.322817  0.173756  0.141207  1
  H  H103  1  0.677283  0.826019  0.141207  1
  H  H104  1  0.677283  0.173759  0.141207  1
  H  H105  1  0.336024  0.293406  0.576380  1
  H  H106  1  0.336025  0.706364  0.576380  1
  H  H107  1  0.664073  0.293405  0.576380  1
  H  H108  1  0.664077  0.706364  0.576380  1
