# generated using pymatgen
data_Si6H2O13
_symmetry_space_group_name_H-M   'P 1'
_cell_length_a   12.87085738
_cell_length_b   12.87068762
_cell_length_c   29.37837624
_cell_angle_alpha   90.00000000
_cell_angle_beta   90.00000000
_cell_angle_gamma   90.00000000
_symmetry_Int_Tables_number   1
_chemical_formula_structural   Si6H2O13
_chemical_formula_sum   'Si24 H8 O52'
_cell_volume   4866.7273484
_cell_formula_units_Z   4
loop_
 _symmetry_equiv_pos_site_id
 _symmetry_equiv_pos_as_xyz
  1  'x, y, z'
loop_
 _atom_site_type_symbol
 _atom_site_label
 _atom_site_symmetry_multiplicity
 _atom_site_fract_x
 _atom_site_fract_y
 _atom_site_fract_z
 _atom_site_occupancy
  O  O1  1  0.866979  0.135367  0.329807  1
  O  O2  1  0.133066  0.135323  0.329799  1
  O  O3  1  0.000000  0.139122  0.391452  1
  O  O4  1  0.000000  0.139135  0.268153  1
  O  O5  1  0.808013  0.201919  0.406233  1
  O  O6  1  0.192060  0.201875  0.406227  1
  O  O7  1  0.807986  0.201939  0.253384  1
  O  O8  1  0.192034  0.201887  0.253373  1
  O  O9  1  0.831745  0.399336  0.255848  1
  O  O10  1  0.168220  0.399276  0.255850  1
  O  O11  1  0.831758  0.399315  0.403764  1
  O  O12  1  0.168240  0.399266  0.403772  1
  O  O13  1  0.669435  0.329674  0.286314  1
  O  O14  1  0.330559  0.329650  0.286302  1
  O  O15  1  0.669443  0.329643  0.373300  1
  O  O16  1  0.330559  0.329650  0.373295  1
  O  O17  1  0.693407  0.323603  0.200843  1
  O  O18  1  0.306559  0.323598  0.200828  1
  O  O19  1  0.693441  0.323587  0.458772  1
  O  O20  1  0.306614  0.323565  0.458771  1
  O  O21  1  0.000000  0.499889  0.392211  1
  O  O22  1  0.000000  0.499905  0.267415  1
  O  O23  1  0.499993  0.357751  0.329805  1
  O  O24  1  0.367423  0.499895  0.329798  1
  O  O25  1  0.868138  0.499921  0.329811  1
  O  O26  1  0.632553  0.499904  0.329820  1
  O  O27  1  0.131856  0.499868  0.329814  1
  O  O28  1  0.133029  0.864409  0.329802  1
  O  O29  1  0.866934  0.864462  0.329809  1
  O  O30  1  0.000000  0.860647  0.391453  1
  O  O31  1  -0.000000  0.860660  0.268156  1
  O  O32  1  0.140638  -0.000000  0.267860  1
  O  O33  1  0.192011  0.797852  0.406235  1
  O  O34  1  0.807967  0.797901  0.406238  1
  O  O35  1  0.191982  0.797858  0.253371  1
  O  O36  1  0.807930  0.797913  0.253385  1
  O  O37  1  0.168242  0.600466  0.255853  1
  O  O38  1  0.831756  0.600528  0.255857  1
  O  O39  1  0.168243  0.600459  0.403776  1
  O  O40  1  0.831763  0.600511  0.403770  1
  O  O41  1  0.330541  0.670155  0.286318  1
  O  O42  1  0.669417  0.670143  0.286320  1
  O  O43  1  0.330549  0.670116  0.373310  1
  O  O44  1  0.669430  0.670152  0.373309  1
  O  O45  1  0.306570  0.676176  0.200840  1
  O  O46  1  0.693398  0.676191  0.200847  1
  O  O47  1  0.306583  0.676162  0.458786  1
  O  O48  1  0.693419  0.676193  0.458781  1
  O  O49  1  0.499982  0.642049  0.329815  1
  O  O50  1  0.859365  -0.000000  0.391748  1
  O  O51  1  0.140667  -0.000000  0.391739  1
  O  O52  1  0.859334  -0.000000  0.267867  1
  Si  Si53  1  0.380775  0.378462  0.329799  1
  Si  Si54  1  0.619209  0.378470  0.329810  1
  Si  Si55  1  0.119119  0.499876  0.276693  1
  Si  Si56  1  0.119126  0.499867  0.382935  1
  Si  Si57  1  0.880869  0.499924  0.276690  1
  Si  Si58  1  0.751167  0.309710  0.247732  1
  Si  Si59  1  0.248823  0.309676  0.247722  1
  Si  Si60  1  0.751185  0.309685  0.411880  1
  Si  Si61  1  0.248848  0.309662  0.411883  1
  Si  Si62  1  0.880396  0.119450  0.382367  1
  Si  Si63  1  0.119667  0.119412  0.382360  1
  Si  Si64  1  0.880371  0.119464  0.277245  1
  Si  Si65  1  0.119643  0.119422  0.277239  1
  Si  Si66  1  0.880876  0.499914  0.382931  1
  Si  Si67  1  0.619200  0.621338  0.329817  1
  Si  Si68  1  0.380766  0.621329  0.329810  1
  Si  Si69  1  0.248815  0.690091  0.247730  1
  Si  Si70  1  0.751143  0.690123  0.247737  1
  Si  Si71  1  0.248825  0.690079  0.411896  1
  Si  Si72  1  0.751165  0.690120  0.411891  1
  Si  Si73  1  0.119634  0.880318  0.382362  1
  Si  Si74  1  0.880361  0.880359  0.382368  1
  Si  Si75  1  0.119607  0.880329  0.277242  1
  Si  Si76  1  0.880334  0.880372  0.277248  1
  H  H77  1  0.693407  0.323603  0.170208  1
  H  H78  1  0.306559  0.323598  0.170193  1
  H  H79  1  0.693441  0.323587  0.489407  1
  H  H80  1  0.306614  0.323565  0.489406  1
  H  H81  1  0.306570  0.676176  0.170205  1
  H  H82  1  0.693398  0.676191  0.170212  1
  H  H83  1  0.306583  0.676162  0.489420  1
  H  H84  1  0.693419  0.676193  0.489416  1
