# generated using pymatgen
data_Si6H2O13
_symmetry_space_group_name_H-M   'P 1'
_cell_length_a   11.87220547
_cell_length_b   21.48459692
_cell_length_c   45.29945363
_cell_angle_alpha   134.99964537
_cell_angle_beta   90.00000000
_cell_angle_gamma   90.00000000
_symmetry_Int_Tables_number   1
_chemical_formula_structural   Si6H2O13
_chemical_formula_sum   'Si48 H16 O104'
_cell_volume   8170.3237984
_cell_formula_units_Z   8
loop_
 _symmetry_equiv_pos_site_id
 _symmetry_equiv_pos_as_xyz
  1  'x, y, z'
loop_
 _atom_site_type_symbol
 _atom_site_label
 _atom_site_symmetry_multiplicity
 _atom_site_fract_x
 _atom_site_fract_y
 _atom_site_fract_z
 _atom_site_occupancy
  O  O1  1  0.887917  0.869313  0.233327  1
  O  O2  1  0.104942  0.877846  0.236858  1
  O  O3  1  0.710314  0.954759  0.254530  1
  O  O4  1  0.290326  0.952562  0.253826  1
  O  O5  1  0.777101  0.839201  0.176483  1
  O  O6  1  0.211226  0.835789  0.176095  1
  O  O7  1  0.895415  0.978225  0.230404  1
  O  O8  1  0.111899  0.982222  0.231039  1
  O  O9  1  -0.000000  0.769511  0.237028  1
  O  O10  1  0.006374  0.746498  0.176409  1
  O  O11  1  0.649103  0.903478  0.289480  1
  O  O12  1  0.351224  0.903122  0.289589  1
  O  O13  1  0.499944  0.968223  0.278329  1
  O  O14  1  0.000000  0.600837  0.176326  1
  O  O15  1  0.649788  0.402860  0.333319  1
  O  O16  1  0.351476  0.402558  0.333307  1
  O  O17  1  0.350457  0.065735  0.333411  1
  O  O18  1  0.996109  0.272318  0.296571  1
  O  O19  1  0.002093  0.086993  0.296429  1
  O  O20  1  0.000000  0.102927  0.244992  1
  O  O21  1  0.000000  0.244329  0.339984  1
  O  O22  1  0.648766  0.066375  0.333720  1
  O  O23  1  0.891185  0.803301  0.320252  1
  O  O24  1  0.106515  0.799747  0.319286  1
  O  O25  1  0.711376  0.778507  0.284806  1
  O  O26  1  0.290393  0.778374  0.285075  1
  O  O27  1  0.500654  0.835903  0.299723  1
  O  O28  1  0.893152  0.681091  0.244103  1
  O  O29  1  0.110922  0.680671  0.243493  1
  O  O30  1  0.894718  0.625339  0.318980  1
  O  O31  1  0.111646  0.630284  0.321719  1
  O  O32  1  0.709194  0.546949  0.285383  1
  O  O33  1  0.289255  0.546323  0.285249  1
  O  O34  1  0.887179  0.517736  0.242993  1
  O  O35  1  0.104340  0.521716  0.245737  1
  O  O36  1  0.996193  0.413138  0.238336  1
  O  O37  1  -0.000000  0.397590  0.176288  1
  O  O38  1  0.649680  0.434559  0.289392  1
  O  O39  1  0.351254  0.434119  0.289316  1
  O  O40  1  0.499580  0.532490  0.299839  1
  O  O41  1  0.500823  0.335714  0.277958  1
  O  O42  1  0.785575  0.662758  0.285377  1
  O  O43  1  0.216514  0.662362  0.285198  1
  O  O44  1  0.894208  0.298000  0.233667  1
  O  O45  1  0.111101  0.304572  0.235379  1
  O  O46  1  0.710356  0.278088  0.253887  1
  O  O47  1  0.290301  0.278384  0.254008  1
  O  O48  1  0.783755  0.160535  0.175963  1
  O  O49  1  0.215858  0.163906  0.176478  1
  O  O50  1  0.887811  0.180414  0.230718  1
  O  O51  1  0.105077  0.185502  0.231185  1
  O  O52  1  0.004772  0.255929  0.176241  1
  O  O53  1  0.889001  0.702209  0.455521  1
  O  O54  1  0.105365  0.695560  0.451095  1
  O  O55  1  0.708751  0.722644  0.433969  1
  O  O56  1  0.288885  0.720891  0.433838  1
  O  O57  1  0.777101  0.839201  0.511847  1
  O  O58  1  0.211226  0.835789  0.511459  1
  O  O59  1  0.892097  0.818183  0.457668  1
  O  O60  1  0.109393  0.818082  0.456992  1
  O  O61  1  0.006374  0.746498  0.511773  1
  O  O62  1  0.894484  0.375069  0.369402  1
  O  O63  1  0.111388  0.370251  0.366214  1
  O  O64  1  0.709830  0.454101  0.402888  1
  O  O65  1  0.289854  0.452886  0.402561  1
  O  O66  1  0.887611  0.482493  0.445236  1
  O  O67  1  0.104664  0.478361  0.442106  1
  O  O68  1  0.996150  0.587753  0.450145  1
  O  O69  1  0.000000  0.600837  0.511690  1
  O  O70  1  0.649307  0.565787  0.398542  1
  O  O71  1  0.350794  0.565295  0.398577  1
  O  O72  1  0.500262  0.467418  0.388057  1
  O  O73  1  0.783837  0.338289  0.402941  1
  O  O74  1  0.215379  0.337508  0.402802  1
  O  O75  1  0.499496  0.664030  0.409895  1
  O  O76  1  0.887961  0.196688  0.366333  1
  O  O77  1  0.104756  0.200808  0.369201  1
  O  O78  1  0.710032  0.222218  0.402811  1
  O  O79  1  0.289548  0.221375  0.402663  1
  O  O80  1  0.499623  0.164485  0.388282  1
  O  O81  1  0.895132  0.315076  0.442270  1
  O  O82  1  0.112152  0.319320  0.445121  1
  O  O83  1  0.351504  0.934238  0.354649  1
  O  O84  1  0.000000  0.728740  0.391650  1
  O  O85  1  0.998377  0.913508  0.391305  1
  O  O86  1  0.001194  0.897699  0.442864  1
  O  O87  1  0.997979  0.756029  0.347849  1
  O  O88  1  0.649761  0.934567  0.354359  1
  O  O89  1  0.000000  0.397590  0.511652  1
  O  O90  1  0.648942  0.597459  0.354607  1
  O  O91  1  0.350539  0.596821  0.354585  1
  O  O92  1  0.895467  0.126853  0.453889  1
  O  O93  1  0.112390  0.128145  0.452711  1
  O  O94  1  0.711388  0.046168  0.433523  1
  O  O95  1  0.291246  0.046717  0.434154  1
  O  O96  1  0.783755  0.160535  0.511327  1
  O  O97  1  0.215858  0.163906  0.511842  1
  O  O98  1  0.888755  0.017691  0.456761  1
  O  O99  1  0.106063  0.021816  0.456999  1
  O  O100  1  0.002278  0.228131  0.449500  1
  O  O101  1  0.004772  0.255929  0.511605  1
  O  O102  1  0.649679  0.097628  0.398705  1
  O  O103  1  0.351366  0.096888  0.398473  1
  O  O104  1  0.501021  0.032343  0.409839  1
  Si  Si105  1  0.812576  0.910288  0.222808  1
  Si  Si106  1  0.184248  0.913380  0.224359  1
  Si  Si107  1  0.629117  0.973726  0.287964  1
  Si  Si108  1  0.370688  0.972879  0.287690  1
  Si  Si109  1  0.001196  0.680477  0.225202  1
  Si  Si110  1  0.000000  0.822454  0.225050  1
  Si  Si111  1  0.996434  0.183313  0.250345  1
  Si  Si112  1  0.003766  0.038441  0.250257  1
  Si  Si113  1  0.001695  0.320353  0.342357  1
  Si  Si114  1  0.997329  0.175315  0.342321  1
  Si  Si115  1  0.816583  0.729965  0.282464  1
  Si  Si116  1  0.187298  0.728248  0.281771  1
  Si  Si117  1  0.629865  0.859296  0.305668  1
  Si  Si118  1  0.371159  0.859001  0.305846  1
  Si  Si119  1  0.813090  0.586003  0.281855  1
  Si  Si120  1  0.185726  0.589107  0.283602  1
  Si  Si121  1  0.630299  0.358898  0.287443  1
  Si  Si122  1  0.629207  0.527398  0.305825  1
  Si  Si123  1  0.371280  0.358638  0.287449  1
  Si  Si124  1  0.370089  0.527139  0.305827  1
  Si  Si125  1  0.996003  0.462058  0.224899  1
  Si  Si126  1  0.813205  0.227238  0.223535  1
  Si  Si127  1  0.186167  0.231356  0.224003  1
  Si  Si128  1  0.002225  0.324710  0.224821  1
  Si  Si129  1  0.809449  0.773740  0.465433  1
  Si  Si130  1  0.182493  0.768943  0.463269  1
  Si  Si131  1  0.000000  0.675534  0.463152  1
  Si  Si132  1  0.812978  0.414526  0.406530  1
  Si  Si133  1  0.185673  0.410585  0.404214  1
  Si  Si134  1  0.629126  0.641407  0.400497  1
  Si  Si135  1  0.629686  0.472867  0.382076  1
  Si  Si136  1  0.370237  0.640576  0.400355  1
  Si  Si137  1  0.370625  0.472471  0.382135  1
  Si  Si138  1  0.996475  0.538135  0.463154  1
  Si  Si139  1  0.813919  0.269601  0.404410  1
  Si  Si140  1  0.186309  0.271844  0.406328  1
  Si  Si141  1  0.629247  0.141786  0.382435  1
  Si  Si142  1  0.370259  0.140978  0.382126  1
  Si  Si143  1  0.001917  0.817675  0.437859  1
  Si  Si144  1  0.997576  0.962260  0.437521  1
  Si  Si145  1  0.002335  0.680384  0.345777  1
  Si  Si146  1  0.997343  0.825024  0.345489  1
  Si  Si147  1  0.814354  0.085890  0.463835  1
  Si  Si148  1  0.187224  0.089152  0.464247  1
  Si  Si149  1  0.630410  0.027174  0.400236  1
  Si  Si150  1  0.371423  0.027158  0.400472  1
  Si  Si151  1  0.003283  0.317201  0.463029  1
  Si  Si152  1  0.004059  0.179929  0.463014  1
  H  H153  1  0.777101  0.839201  0.156615  1
  H  H154  1  0.211226  0.835789  0.156228  1
  H  H155  1  0.006374  0.746498  0.156541  1
  H  H156  1  -0.000000  0.600837  0.156458  1
  H  H157  1  -0.000000  0.397590  0.156420  1
  H  H158  1  0.783755  0.160535  0.156095  1
  H  H159  1  0.215858  0.163906  0.156611  1
  H  H160  1  0.004772  0.255929  0.156373  1
  H  H161  1  0.777101  0.839201  0.531715  1
  H  H162  1  0.211226  0.835789  0.531327  1
  H  H163  1  0.006374  0.746498  0.531641  1
  H  H164  1  0.000000  0.600837  0.531558  1
  H  H165  1  0.000000  0.397590  0.531519  1
  H  H166  1  0.783755  0.160535  0.531195  1
  H  H167  1  0.215858  0.163906  0.531710  1
  H  H168  1  0.004772  0.255929  0.531473  1
