# generated using pymatgen
data_Si115(H4O117)2
_symmetry_space_group_name_H-M   'P 1'
_cell_length_a   19.43965416
_cell_length_b   16.47174882
_cell_length_c   69.36229937
_cell_angle_alpha   90.00000000
_cell_angle_beta   90.00000000
_cell_angle_gamma   90.00000000
_symmetry_Int_Tables_number   1
_chemical_formula_structural   Si115(H4O117)2
_chemical_formula_sum   'Si230 H16 O468'
_cell_volume   22210.16204
_cell_formula_units_Z   2
loop_
 _symmetry_equiv_pos_site_id
 _symmetry_equiv_pos_as_xyz
  1  'x, y, z'
loop_
 _atom_site_type_symbol
 _atom_site_label
 _atom_site_symmetry_multiplicity
 _atom_site_fract_x
 _atom_site_fract_y
 _atom_site_fract_z
 _atom_site_occupancy
  O  O1  1  -0.000000  0.861261  0.278766  1
  O  O2  1  0.715908  0.750959  0.260268  1
  O  O3  1  0.715920  0.248970  0.260269  1
  O  O4  1  0.784016  0.250981  0.203005  1
  O  O5  1  0.783995  0.748995  0.203006  1
  O  O6  1  0.822320  0.784186  0.279108  1
  O  O7  1  0.822333  0.215741  0.279111  1
  O  O8  1  0.677597  0.284203  0.184164  1
  O  O9  1  0.677575  0.715776  0.184166  1
  O  O10  1  0.803322  0.867673  0.248630  1
  O  O11  1  0.803343  0.132279  0.248630  1
  O  O12  1  0.696592  0.367671  0.214645  1
  O  O13  1  0.696575  0.632293  0.214645  1
  O  O14  1  0.724782  0.883194  0.279009  1
  O  O15  1  0.724797  0.116729  0.279008  1
  O  O16  1  0.775131  0.383217  0.184265  1
  O  O17  1  0.775112  0.616762  0.184266  1
  O  O18  1  0.891416  0.785280  0.184374  1
  O  O19  1  0.891435  0.214702  0.184374  1
  O  O20  1  0.789943  0.881096  0.184393  1
  O  O21  1  0.789964  0.118882  0.184392  1
  O  O22  1  0.709976  0.381070  0.278882  1
  O  O23  1  0.709970  0.618853  0.278882  1
  O  O24  1  0.862295  0.866299  0.215914  1
  O  O25  1  0.862313  0.133667  0.215913  1
  O  O26  1  0.000000  0.000000  0.263271  1
  O  O27  1  0.933344  0.889479  0.246880  1
  O  O28  1  0.933367  0.110464  0.246877  1
  O  O29  1  0.000000  0.138664  0.278767  1
  O  O30  1  0.853129  0.000000  0.234861  1
  O  O31  1  0.884217  0.652779  0.166213  1
  O  O32  1  0.000000  0.731729  0.166209  1
  O  O33  1  0.000000  0.268244  0.166212  1
  O  O34  1  0.680228  0.849220  0.166210  1
  O  O35  1  0.680254  0.150765  0.166207  1
  O  O36  1  0.837709  0.499994  0.166215  1
  O  O37  1  0.884240  0.347207  0.166213  1
  O  O38  1  0.729982  0.000000  0.166206  1
  O  O39  1  0.783998  0.748976  0.129415  1
  O  O40  1  0.784026  0.251002  0.129414  1
  O  O41  1  0.677578  0.715770  0.148256  1
  O  O42  1  0.677605  0.284215  0.148254  1
  O  O43  1  0.696576  0.632271  0.117780  1
  O  O44  1  0.696596  0.367697  0.117778  1
  O  O45  1  0.775113  0.616753  0.148160  1
  O  O46  1  0.775140  0.383229  0.148158  1
  O  O47  1  0.891438  0.214713  0.148048  1
  O  O48  1  0.891414  0.785271  0.148048  1
  O  O49  1  0.789968  0.118893  0.148024  1
  O  O50  1  0.789941  0.881086  0.148025  1
  O  O51  1  0.862325  0.133687  0.116506  1
  O  O52  1  0.862303  0.866277  0.116506  1
  O  O53  1  0.566643  0.748112  0.166210  1
  O  O54  1  0.433293  0.251843  0.166210  1
  O  O55  1  0.646794  0.499973  0.228411  1
  O  O56  1  0.353140  0.499956  0.228406  1
  O  O57  1  0.499980  0.361273  0.184504  1
  O  O58  1  0.499966  0.638675  0.184505  1
  O  O59  1  0.391389  0.714657  0.278892  1
  O  O60  1  0.608504  0.285253  0.278900  1
  O  O61  1  0.608496  0.714668  0.278901  1
  O  O62  1  0.391408  0.285234  0.278896  1
  O  O63  1  0.362279  0.633628  0.247358  1
  O  O64  1  0.637625  0.366288  0.247361  1
  O  O65  1  0.637612  0.633644  0.247362  1
  O  O66  1  0.362309  0.366273  0.247360  1
  O  O67  1  0.499971  0.499971  0.199999  1
  O  O68  1  0.433369  0.610459  0.216396  1
  O  O69  1  0.566569  0.389479  0.216395  1
  O  O70  1  0.566556  0.610463  0.216396  1
  O  O71  1  0.433384  0.389469  0.216396  1
  O  O72  1  0.566666  0.251857  0.166207  1
  O  O73  1  0.433277  0.748105  0.166211  1
  O  O74  1  0.337676  0.000000  0.297028  1
  O  O75  1  0.646774  0.499977  0.104006  1
  O  O76  1  0.362313  0.366259  0.085061  1
  O  O77  1  0.637603  0.633673  0.085064  1
  O  O78  1  0.637610  0.366270  0.085064  1
  O  O79  1  0.362302  0.633681  0.085061  1
  O  O80  1  0.499958  0.499976  0.132422  1
  O  O81  1  0.433379  0.389481  0.116023  1
  O  O82  1  0.566554  0.610469  0.116030  1
  O  O83  1  0.566565  0.389482  0.116030  1
  O  O84  1  0.433369  0.610470  0.116025  1
  O  O85  1  0.499960  0.361282  0.147918  1
  O  O86  1  0.499956  0.638672  0.147919  1
  O  O87  1  0.353160  0.499973  0.104001  1
  O  O88  1  0.115724  0.347186  0.166212  1
  O  O89  1  0.115703  0.652760  0.166208  1
  O  O90  1  0.319705  0.150745  0.166207  1
  O  O91  1  0.146783  0.000000  0.234863  1
  O  O92  1  0.066529  0.889473  0.246870  1
  O  O93  1  0.162236  0.499975  0.166213  1
  O  O94  1  0.066555  0.110459  0.246875  1
  O  O95  1  0.284010  0.248946  0.260267  1
  O  O96  1  0.283978  0.750944  0.260265  1
  O  O97  1  0.215925  0.748989  0.203004  1
  O  O98  1  0.215938  0.250955  0.203005  1
  O  O99  1  0.177590  0.215720  0.279107  1
  O  O100  1  0.177561  0.784170  0.279104  1
  O  O101  1  0.322343  0.715767  0.184164  1
  O  O102  1  0.322355  0.284182  0.184163  1
  O  O103  1  0.196579  0.132254  0.248626  1
  O  O104  1  0.196548  0.867634  0.248624  1
  O  O105  1  0.303347  0.632277  0.214641  1
  O  O106  1  0.303364  0.367641  0.214644  1
  O  O107  1  0.275113  0.116728  0.279007  1
  O  O108  1  0.275091  0.883175  0.279002  1
  O  O109  1  0.224806  0.616756  0.184263  1
  O  O110  1  0.224822  0.383198  0.184266  1
  O  O111  1  0.108523  0.214686  0.184372  1
  O  O112  1  0.108511  0.785264  0.184368  1
  O  O113  1  0.209990  0.118860  0.184390  1
  O  O114  1  0.209977  0.881088  0.184388  1
  O  O115  1  0.289918  0.618840  0.278879  1
  O  O116  1  0.289940  0.381060  0.278877  1
  O  O117  1  0.137628  0.133642  0.215910  1
  O  O118  1  0.137606  0.866299  0.215906  1
  O  O119  1  0.269957  -0.000000  0.166202  1
  O  O120  1  0.319690  0.849204  0.166205  1
  O  O121  1  0.215934  0.250991  0.129413  1
  O  O122  1  0.215927  0.748962  0.129411  1
  O  O123  1  0.322359  0.284193  0.148253  1
  O  O124  1  0.322346  0.715753  0.148253  1
  O  O125  1  0.303356  0.367693  0.117777  1
  O  O126  1  0.303346  0.632254  0.117777  1
  O  O127  1  0.224826  0.383213  0.148159  1
  O  O128  1  0.224809  0.616741  0.148157  1
  O  O129  1  0.108507  0.785251  0.148043  1
  O  O130  1  0.108519  0.214699  0.148046  1
  O  O131  1  0.209977  0.881074  0.148020  1
  O  O132  1  0.209990  0.118884  0.148023  1
  O  O133  1  0.137612  0.866258  0.116502  1
  O  O134  1  0.137622  0.133677  0.116506  1
  O  O135  1  0.000000  0.861261  0.540469  1
  O  O136  1  0.715908  0.750959  0.521972  1
  O  O137  1  0.715920  0.248970  0.521972  1
  O  O138  1  0.784016  0.250981  0.464709  1
  O  O139  1  0.783995  0.748995  0.464709  1
  O  O140  1  0.822320  0.784186  0.540812  1
  O  O141  1  0.822333  0.215741  0.540814  1
  O  O142  1  0.677597  0.284203  0.445868  1
  O  O143  1  0.677575  0.715776  0.445870  1
  O  O144  1  0.803322  0.867673  0.510334  1
  O  O145  1  0.803343  0.132279  0.510333  1
  O  O146  1  0.696592  0.367671  0.476348  1
  O  O147  1  0.696575  0.632293  0.476348  1
  O  O148  1  0.724782  0.883194  0.540712  1
  O  O149  1  0.724797  0.116729  0.540712  1
  O  O150  1  0.775131  0.383217  0.445968  1
  O  O151  1  0.775112  0.616762  0.445970  1
  O  O152  1  0.891416  0.785280  0.446077  1
  O  O153  1  0.891435  0.214702  0.446077  1
  O  O154  1  0.789943  0.881096  0.446096  1
  O  O155  1  0.789964  0.118882  0.446095  1
  O  O156  1  0.709976  0.381070  0.540586  1
  O  O157  1  0.709970  0.618853  0.540585  1
  O  O158  1  0.862295  0.866299  0.477617  1
  O  O159  1  0.862313  0.133667  0.477616  1
  O  O160  1  0.000000  0.000000  0.524975  1
  O  O161  1  0.933344  0.889479  0.508583  1
  O  O162  1  0.933367  0.110464  0.508580  1
  O  O163  1  0.000000  0.138664  0.540470  1
  O  O164  1  0.853129  0.000000  0.496565  1
  O  O165  1  0.884217  0.652779  0.427916  1
  O  O166  1  -0.000000  0.731729  0.427913  1
  O  O167  1  0.000000  0.268244  0.427915  1
  O  O168  1  0.680228  0.849220  0.427913  1
  O  O169  1  0.680254  0.150765  0.427911  1
  O  O170  1  0.837709  0.499994  0.427918  1
  O  O171  1  0.884240  0.347207  0.427916  1
  O  O172  1  0.729982  0.000000  0.427910  1
  O  O173  1  -0.000000  0.861277  0.315352  1
  O  O174  1  0.000000  0.138661  0.315353  1
  O  O175  1  0.715904  0.248950  0.333860  1
  O  O176  1  0.715904  0.750977  0.333859  1
  O  O177  1  0.783998  0.748976  0.391119  1
  O  O178  1  0.784026  0.251002  0.391117  1
  O  O179  1  0.822328  0.215737  0.315020  1
  O  O180  1  0.822321  0.784196  0.315019  1
  O  O181  1  0.677578  0.715770  0.409960  1
  O  O182  1  0.677605  0.284215  0.409958  1
  O  O183  1  0.803332  0.132257  0.345497  1
  O  O184  1  0.803327  0.867690  0.345494  1
  O  O185  1  0.696576  0.632271  0.379484  1
  O  O186  1  0.696596  0.367697  0.379481  1
  O  O187  1  0.724792  0.116722  0.315116  1
  O  O188  1  0.724779  0.883202  0.315116  1
  O  O189  1  0.775113  0.616753  0.409863  1
  O  O190  1  0.775140  0.383229  0.409861  1
  O  O191  1  0.891438  0.214713  0.409751  1
  O  O192  1  0.891414  0.785271  0.409752  1
  O  O193  1  0.789968  0.118893  0.409728  1
  O  O194  1  0.789941  0.881086  0.409728  1
  O  O195  1  0.709963  0.618865  0.315250  1
  O  O196  1  0.709970  0.381058  0.315249  1
  O  O197  1  0.862325  0.133687  0.378210  1
  O  O198  1  0.862303  0.866277  0.378209  1
  O  O199  1  -0.000000  -0.000000  0.330850  1
  O  O200  1  0.933359  0.110469  0.347243  1
  O  O201  1  0.933354  0.889478  0.347244  1
  O  O202  1  0.853148  0.000000  0.359269  1
  O  O203  1  0.819684  0.349185  0.297066  1
  O  O204  1  0.769945  0.499963  0.297069  1
  O  O205  1  0.933255  0.751846  0.297062  1
  O  O206  1  0.933267  0.248085  0.297064  1
  O  O207  1  0.819675  0.650744  0.297066  1
  O  O208  1  0.566643  0.748112  0.427914  1
  O  O209  1  0.433293  0.251843  0.427914  1
  O  O210  1  0.646794  0.499973  0.490114  1
  O  O211  1  0.353140  0.499956  0.490109  1
  O  O212  1  0.499980  0.361273  0.446207  1
  O  O213  1  0.499966  0.638675  0.446208  1
  O  O214  1  0.391389  0.714657  0.540595  1
  O  O215  1  0.608504  0.285253  0.540604  1
  O  O216  1  0.608496  0.714668  0.540605  1
  O  O217  1  0.391408  0.285234  0.540599  1
  O  O218  1  0.362279  0.633628  0.509062  1
  O  O219  1  0.637625  0.366288  0.509064  1
  O  O220  1  0.637612  0.633644  0.509065  1
  O  O221  1  0.362309  0.366273  0.509063  1
  O  O222  1  0.499971  0.499971  0.461703  1
  O  O223  1  0.433369  0.610459  0.478099  1
  O  O224  1  0.566569  0.389479  0.478099  1
  O  O225  1  0.566556  0.610463  0.478100  1
  O  O226  1  0.433384  0.389469  0.478099  1
  O  O227  1  0.566666  0.251857  0.427910  1
  O  O228  1  0.433277  0.748105  0.427914  1
  O  O229  1  0.337676  0.000000  0.558731  1
  O  O230  1  0.615695  0.152756  0.297062  1
  O  O231  1  0.646774  0.499977  0.365710  1
  O  O232  1  0.391413  0.285228  0.315227  1
  O  O233  1  0.608487  0.714682  0.315226  1
  O  O234  1  0.608494  0.285247  0.315226  1
  O  O235  1  0.391398  0.714677  0.315222  1
  O  O236  1  0.362313  0.366259  0.346764  1
  O  O237  1  0.637603  0.633673  0.346768  1
  O  O238  1  0.637610  0.366270  0.346767  1
  O  O239  1  0.362302  0.633681  0.346765  1
  O  O240  1  0.499958  0.499976  0.394125  1
  O  O241  1  0.433379  0.389481  0.377726  1
  O  O242  1  0.566554  0.610469  0.377733  1
  O  O243  1  0.566565  0.389482  0.377733  1
  O  O244  1  0.433369  0.610470  0.377729  1
  O  O245  1  0.499960  0.361282  0.409621  1
  O  O246  1  0.499956  0.638672  0.409623  1
  O  O247  1  0.353160  0.499973  0.365704  1
  O  O248  1  0.615676  0.847172  0.297062  1
  O  O249  1  0.662199  0.000000  0.297061  1
  O  O250  1  0.384193  0.847166  0.297054  1
  O  O251  1  0.384220  0.152734  0.297060  1
  O  O252  1  0.499938  0.768198  0.297057  1
  O  O253  1  0.499957  0.231705  0.297060  1
  O  O254  1  0.115724  0.347186  0.427915  1
  O  O255  1  0.115703  0.652760  0.427911  1
  O  O256  1  0.319705  0.150745  0.427910  1
  O  O257  1  0.146783  0.000000  0.496566  1
  O  O258  1  0.066529  0.889473  0.508574  1
  O  O259  1  0.162236  0.499975  0.427916  1
  O  O260  1  0.066555  0.110459  0.508579  1
  O  O261  1  0.284010  0.248946  0.521970  1
  O  O262  1  0.283978  0.750944  0.521969  1
  O  O263  1  0.215925  0.748989  0.464707  1
  O  O264  1  0.215938  0.250955  0.464708  1
  O  O265  1  0.177590  0.215720  0.540811  1
  O  O266  1  0.177561  0.784170  0.540808  1
  O  O267  1  0.322343  0.715767  0.445867  1
  O  O268  1  0.322355  0.284182  0.445866  1
  O  O269  1  0.196579  0.132254  0.510330  1
  O  O270  1  0.196548  0.867634  0.510327  1
  O  O271  1  0.303347  0.632277  0.476344  1
  O  O272  1  0.303364  0.367641  0.476347  1
  O  O273  1  0.275113  0.116728  0.540710  1
  O  O274  1  0.275091  0.883175  0.540705  1
  O  O275  1  0.224806  0.616756  0.445967  1
  O  O276  1  0.224822  0.383198  0.445969  1
  O  O277  1  0.108523  0.214686  0.446075  1
  O  O278  1  0.108511  0.785264  0.446072  1
  O  O279  1  0.209990  0.118860  0.446094  1
  O  O280  1  0.209977  0.881088  0.446091  1
  O  O281  1  0.289918  0.618840  0.540582  1
  O  O282  1  0.289940  0.381060  0.540581  1
  O  O283  1  0.137628  0.133642  0.477614  1
  O  O284  1  0.137606  0.866299  0.477609  1
  O  O285  1  0.269957  -0.000000  0.427906  1
  O  O286  1  0.319690  0.849204  0.427909  1
  O  O287  1  0.146760  -0.000000  0.359268  1
  O  O288  1  0.283982  0.750960  0.333856  1
  O  O289  1  0.283993  0.248956  0.333858  1
  O  O290  1  0.215934  0.250991  0.391116  1
  O  O291  1  0.215927  0.748962  0.391115  1
  O  O292  1  0.177548  0.784162  0.315014  1
  O  O293  1  0.177570  0.215742  0.315016  1
  O  O294  1  0.322359  0.284193  0.409956  1
  O  O295  1  0.322346  0.715753  0.409957  1
  O  O296  1  0.196559  0.867682  0.345487  1
  O  O297  1  0.196569  0.132252  0.345492  1
  O  O298  1  0.303356  0.367693  0.379481  1
  O  O299  1  0.303346  0.632254  0.379481  1
  O  O300  1  0.275094  0.883159  0.315108  1
  O  O301  1  0.275115  0.116720  0.315115  1
  O  O302  1  0.224826  0.383213  0.409862  1
  O  O303  1  0.224809  0.616741  0.409860  1
  O  O304  1  0.108507  0.785251  0.409746  1
  O  O305  1  0.108519  0.214699  0.409750  1
  O  O306  1  0.209977  0.881074  0.409723  1
  O  O307  1  0.209990  0.118884  0.409726  1
  O  O308  1  0.289945  0.381051  0.315246  1
  O  O309  1  0.289925  0.618857  0.315248  1
  O  O310  1  0.137612  0.866258  0.378206  1
  O  O311  1  0.137622  0.133677  0.378210  1
  O  O312  1  0.066540  0.889473  0.347243  1
  O  O313  1  0.066545  0.110463  0.347247  1
  O  O314  1  0.180231  0.349177  0.297060  1
  O  O315  1  0.066644  0.248089  0.297058  1
  O  O316  1  0.229960  0.499947  0.297066  1
  O  O317  1  0.180209  0.650719  0.297063  1
  O  O318  1  0.066622  0.751825  0.297061  1
  O  O319  1  0.784016  0.250981  0.726412  1
  O  O320  1  0.783995  0.748995  0.726413  1
  O  O321  1  0.677597  0.284203  0.707571  1
  O  O322  1  0.677575  0.715776  0.707573  1
  O  O323  1  0.696592  0.367671  0.738051  1
  O  O324  1  0.696575  0.632293  0.738052  1
  O  O325  1  0.775131  0.383217  0.707672  1
  O  O326  1  0.775112  0.616762  0.707673  1
  O  O327  1  0.891416  0.785280  0.707780  1
  O  O328  1  0.891435  0.214702  0.707780  1
  O  O329  1  0.789943  0.881096  0.707800  1
  O  O330  1  0.789964  0.118882  0.707799  1
  O  O331  1  0.862295  0.866299  0.739321  1
  O  O332  1  0.862313  0.133667  0.739320  1
  O  O333  1  0.884217  0.652779  0.689620  1
  O  O334  1  0.000000  0.731729  0.689616  1
  O  O335  1  0.000000  0.268244  0.689619  1
  O  O336  1  0.680228  0.849220  0.689616  1
  O  O337  1  0.680254  0.150765  0.689614  1
  O  O338  1  0.837709  0.499994  0.689621  1
  O  O339  1  0.884240  0.347207  0.689620  1
  O  O340  1  0.729982  0.000000  0.689613  1
  O  O341  1  0.000000  0.861277  0.577055  1
  O  O342  1  0.000000  0.138661  0.577056  1
  O  O343  1  0.715904  0.248950  0.595563  1
  O  O344  1  0.715904  0.750977  0.595563  1
  O  O345  1  0.783998  0.748976  0.652822  1
  O  O346  1  0.784026  0.251002  0.652821  1
  O  O347  1  0.822328  0.215737  0.576724  1
  O  O348  1  0.822321  0.784196  0.576722  1
  O  O349  1  0.677578  0.715770  0.671663  1
  O  O350  1  0.677605  0.284215  0.671661  1
  O  O351  1  0.803332  0.132257  0.607200  1
  O  O352  1  0.803327  0.867690  0.607198  1
  O  O353  1  0.696576  0.632271  0.641187  1
  O  O354  1  0.696596  0.367697  0.641185  1
  O  O355  1  0.724792  0.116722  0.576819  1
  O  O356  1  0.724779  0.883202  0.576819  1
  O  O357  1  0.775113  0.616753  0.671567  1
  O  O358  1  0.775140  0.383229  0.671565  1
  O  O359  1  0.891438  0.214713  0.671454  1
  O  O360  1  0.891414  0.785271  0.671455  1
  O  O361  1  0.789968  0.118893  0.671431  1
  O  O362  1  0.789941  0.881086  0.671432  1
  O  O363  1  0.709963  0.618865  0.576953  1
  O  O364  1  0.709970  0.381058  0.576953  1
  O  O365  1  0.862325  0.133687  0.639913  1
  O  O366  1  0.862303  0.866277  0.639913  1
  O  O367  1  0.000000  0.000000  0.592553  1
  O  O368  1  0.933359  0.110469  0.608946  1
  O  O369  1  0.933354  0.889478  0.608947  1
  O  O370  1  0.853148  0.000000  0.620972  1
  O  O371  1  0.819684  0.349185  0.558770  1
  O  O372  1  0.769945  0.499963  0.558772  1
  O  O373  1  0.933255  0.751846  0.558765  1
  O  O374  1  0.933267  0.248085  0.558768  1
  O  O375  1  0.819675  0.650744  0.558769  1
  O  O376  1  0.566643  0.748112  0.689617  1
  O  O377  1  0.433293  0.251843  0.689617  1
  O  O378  1  0.646794  0.499973  0.751818  1
  O  O379  1  0.353140  0.499956  0.751813  1
  O  O380  1  0.499980  0.361273  0.707911  1
  O  O381  1  0.499966  0.638675  0.707912  1
  O  O382  1  0.362279  0.633628  0.770765  1
  O  O383  1  0.637625  0.366288  0.770768  1
  O  O384  1  0.637612  0.633644  0.770769  1
  O  O385  1  0.362309  0.366273  0.770767  1
  O  O386  1  0.499971  0.499971  0.723406  1
  O  O387  1  0.433369  0.610459  0.739803  1
  O  O388  1  0.566569  0.389479  0.739802  1
  O  O389  1  0.566556  0.610463  0.739803  1
  O  O390  1  0.433384  0.389469  0.739803  1
  O  O391  1  0.566666  0.251857  0.689614  1
  O  O392  1  0.433277  0.748105  0.689617  1
  O  O393  1  0.615695  0.152756  0.558765  1
  O  O394  1  0.646774  0.499977  0.627413  1
  O  O395  1  0.391413  0.285228  0.576931  1
  O  O396  1  0.608487  0.714682  0.576930  1
  O  O397  1  0.608494  0.285247  0.576929  1
  O  O398  1  0.391398  0.714677  0.576925  1
  O  O399  1  0.362313  0.366259  0.608467  1
  O  O400  1  0.637603  0.633673  0.608471  1
  O  O401  1  0.637610  0.366270  0.608471  1
  O  O402  1  0.362302  0.633681  0.608468  1
  O  O403  1  0.499958  0.499976  0.655829  1
  O  O404  1  0.433379  0.389481  0.639430  1
  O  O405  1  0.566554  0.610469  0.639436  1
  O  O406  1  0.566565  0.389482  0.639436  1
  O  O407  1  0.433369  0.610470  0.639432  1
  O  O408  1  0.499960  0.361282  0.671325  1
  O  O409  1  0.499956  0.638672  0.671326  1
  O  O410  1  0.353160  0.499973  0.627407  1
  O  O411  1  0.615676  0.847172  0.558766  1
  O  O412  1  0.662199  0.000000  0.558764  1
  O  O413  1  0.384193  0.847166  0.558757  1
  O  O414  1  0.384220  0.152734  0.558764  1
  O  O415  1  0.499938  0.768198  0.558761  1
  O  O416  1  0.499957  0.231705  0.558763  1
  O  O417  1  0.115724  0.347186  0.689619  1
  O  O418  1  0.115703  0.652760  0.689615  1
  O  O419  1  0.319705  0.150745  0.689614  1
  O  O420  1  0.162236  0.499975  0.689620  1
  O  O421  1  0.215925  0.748989  0.726411  1
  O  O422  1  0.215938  0.250955  0.726412  1
  O  O423  1  0.322343  0.715767  0.707571  1
  O  O424  1  0.322355  0.284182  0.707570  1
  O  O425  1  0.303347  0.632277  0.738048  1
  O  O426  1  0.303364  0.367641  0.738051  1
  O  O427  1  0.224806  0.616756  0.707670  1
  O  O428  1  0.224822  0.383198  0.707673  1
  O  O429  1  0.108523  0.214686  0.707778  1
  O  O430  1  0.108511  0.785264  0.707775  1
  O  O431  1  0.209990  0.118860  0.707797  1
  O  O432  1  0.209977  0.881088  0.707795  1
  O  O433  1  0.137628  0.133642  0.739317  1
  O  O434  1  0.137606  0.866299  0.739313  1
  O  O435  1  0.269957  0.000000  0.689609  1
  O  O436  1  0.319690  0.849204  0.689612  1
  O  O437  1  0.146760  0.000000  0.620971  1
  O  O438  1  0.283982  0.750960  0.595559  1
  O  O439  1  0.283993  0.248956  0.595562  1
  O  O440  1  0.215934  0.250991  0.652819  1
  O  O441  1  0.215927  0.748962  0.652818  1
  O  O442  1  0.177548  0.784162  0.576717  1
  O  O443  1  0.177570  0.215742  0.576719  1
  O  O444  1  0.322359  0.284193  0.671659  1
  O  O445  1  0.322346  0.715753  0.671660  1
  O  O446  1  0.196559  0.867682  0.607191  1
  O  O447  1  0.196569  0.132252  0.607196  1
  O  O448  1  0.303356  0.367693  0.641184  1
  O  O449  1  0.303346  0.632254  0.641184  1
  O  O450  1  0.275094  0.883159  0.576811  1
  O  O451  1  0.275115  0.116720  0.576819  1
  O  O452  1  0.224826  0.383213  0.671566  1
  O  O453  1  0.224809  0.616741  0.671564  1
  O  O454  1  0.108507  0.785251  0.671450  1
  O  O455  1  0.108519  0.214699  0.671453  1
  O  O456  1  0.209977  0.881074  0.671427  1
  O  O457  1  0.209990  0.118884  0.671429  1
  O  O458  1  0.289945  0.381051  0.576950  1
  O  O459  1  0.289925  0.618857  0.576951  1
  O  O460  1  0.137612  0.866258  0.639909  1
  O  O461  1  0.137622  0.133677  0.639913  1
  O  O462  1  0.066540  0.889473  0.608947  1
  O  O463  1  0.066545  0.110463  0.608951  1
  O  O464  1  0.180231  0.349177  0.558764  1
  O  O465  1  0.066644  0.248089  0.558761  1
  O  O466  1  0.229960  0.499947  0.558770  1
  O  O467  1  0.180209  0.650719  0.558766  1
  O  O468  1  0.066622  0.751825  0.558765  1
  Si  Si469  1  0.766154  0.822918  0.265678  1
  Si  Si470  1  0.766168  0.177013  0.265679  1
  Si  Si471  1  0.733764  0.322933  0.197595  1
  Si  Si472  1  0.733742  0.677043  0.197596  1
  Si  Si473  1  0.833243  0.822166  0.197569  1
  Si  Si474  1  0.833263  0.177809  0.197569  1
  Si  Si475  1  0.863094  0.906021  0.236436  1
  Si  Si476  1  0.863112  0.093935  0.236434  1
  Si  Si477  1  0.000000  0.093318  0.258998  1
  Si  Si478  1  0.746106  0.906291  0.166209  1
  Si  Si479  1  0.919959  0.738773  0.166211  1
  Si  Si480  1  0.919978  0.261211  0.166212  1
  Si  Si481  1  0.820555  0.593514  0.166214  1
  Si  Si482  1  0.000000  0.906615  0.258998  1
  Si  Si483  1  0.746128  0.093690  0.166207  1
  Si  Si484  1  0.820574  0.406470  0.166213  1
  Si  Si485  1  0.666676  0.322145  0.265705  1
  Si  Si486  1  0.666668  0.677782  0.265706  1
  Si  Si487  1  0.733745  0.677027  0.134828  1
  Si  Si488  1  0.733773  0.322952  0.134826  1
  Si  Si489  1  0.833271  0.177828  0.134850  1
  Si  Si490  1  0.833244  0.822151  0.134851  1
  Si  Si491  1  0.363110  0.593915  0.226835  1
  Si  Si492  1  0.636820  0.406015  0.226839  1
  Si  Si493  1  0.636810  0.593929  0.226839  1
  Si  Si494  1  0.363129  0.405999  0.226838  1
  Si  Si495  1  0.352969  0.238560  0.166208  1
  Si  Si496  1  0.352953  0.761389  0.166208  1
  Si  Si497  1  0.646967  0.761403  0.166211  1
  Si  Si498  1  0.646991  0.238580  0.166208  1
  Si  Si499  1  0.499964  0.593322  0.204273  1
  Si  Si500  1  0.499976  0.406619  0.204273  1
  Si  Si501  1  0.499976  0.306018  0.166210  1
  Si  Si502  1  0.499962  0.693935  0.166212  1
  Si  Si503  1  0.363127  0.406015  0.105579  1
  Si  Si504  1  0.636804  0.593933  0.105585  1
  Si  Si505  1  0.636813  0.406019  0.105583  1
  Si  Si506  1  0.363120  0.593930  0.105580  1
  Si  Si507  1  0.499965  0.406625  0.128149  1
  Si  Si508  1  0.499957  0.593328  0.128150  1
  Si  Si509  1  0.233753  0.176997  0.265674  1
  Si  Si510  1  0.233725  0.822898  0.265672  1
  Si  Si511  1  0.266176  0.677035  0.197594  1
  Si  Si512  1  0.266190  0.322908  0.197594  1
  Si  Si513  1  0.166689  0.177785  0.197568  1
  Si  Si514  1  0.166677  0.822158  0.197564  1
  Si  Si515  1  0.136807  0.093915  0.236432  1
  Si  Si516  1  0.136789  0.906003  0.236430  1
  Si  Si517  1  0.253816  0.906278  0.166204  1
  Si  Si518  1  0.079981  0.261196  0.166210  1
  Si  Si519  1  0.179386  0.406454  0.166212  1
  Si  Si520  1  0.253827  0.093675  0.166205  1
  Si  Si521  1  0.079963  0.738756  0.166207  1
  Si  Si522  1  0.179370  0.593499  0.166210  1
  Si  Si523  1  0.333244  0.322130  0.265702  1
  Si  Si524  1  0.333216  0.677766  0.265701  1
  Si  Si525  1  0.266189  0.322938  0.134825  1
  Si  Si526  1  0.266178  0.677013  0.134825  1
  Si  Si527  1  0.166677  0.822134  0.134846  1
  Si  Si528  1  0.166687  0.177817  0.134848  1
  Si  Si529  1  0.766154  0.822918  0.527382  1
  Si  Si530  1  0.766168  0.177013  0.527383  1
  Si  Si531  1  0.733764  0.322933  0.459298  1
  Si  Si532  1  0.733742  0.677043  0.459300  1
  Si  Si533  1  0.833243  0.822166  0.459272  1
  Si  Si534  1  0.833263  0.177809  0.459272  1
  Si  Si535  1  0.863094  0.906021  0.498140  1
  Si  Si536  1  0.863112  0.093935  0.498137  1
  Si  Si537  1  0.000000  0.093318  0.520702  1
  Si  Si538  1  0.746106  0.906291  0.427912  1
  Si  Si539  1  0.919959  0.738773  0.427915  1
  Si  Si540  1  0.919978  0.261211  0.427915  1
  Si  Si541  1  0.820555  0.593514  0.427917  1
  Si  Si542  1  0.000000  0.906615  0.520701  1
  Si  Si543  1  0.746128  0.093690  0.427911  1
  Si  Si544  1  0.820574  0.406470  0.427916  1
  Si  Si545  1  0.666676  0.322145  0.527408  1
  Si  Si546  1  0.666668  0.677782  0.527409  1
  Si  Si547  1  0.766157  0.177000  0.328448  1
  Si  Si548  1  0.766153  0.822931  0.328448  1
  Si  Si549  1  0.733745  0.677027  0.396531  1
  Si  Si550  1  0.733773  0.322952  0.396529  1
  Si  Si551  1  0.833271  0.177828  0.396554  1
  Si  Si552  1  0.833244  0.822151  0.396554  1
  Si  Si553  1  0.863115  0.093933  0.357691  1
  Si  Si554  1  0.863106  0.906019  0.357689  1
  Si  Si555  1  0.852931  0.738563  0.297064  1
  Si  Si556  1  0.852943  0.261367  0.297066  1
  Si  Si557  1  0.679355  0.093482  0.297062  1
  Si  Si558  1  -0.000000  0.093321  0.335123  1
  Si  Si559  1  0.000000  0.906619  0.335121  1
  Si  Si560  1  0.000000  0.193922  0.297061  1
  Si  Si561  1  0.000000  0.806008  0.297060  1
  Si  Si562  1  0.679339  0.906438  0.297062  1
  Si  Si563  1  0.753805  0.593663  0.297067  1
  Si  Si564  1  0.753811  0.406262  0.297067  1
  Si  Si565  1  0.363110  0.593915  0.488539  1
  Si  Si566  1  0.636820  0.406015  0.488543  1
  Si  Si567  1  0.636810  0.593929  0.488542  1
  Si  Si568  1  0.363129  0.405999  0.488542  1
  Si  Si569  1  0.352969  0.238560  0.427911  1
  Si  Si570  1  0.352953  0.761389  0.427911  1
  Si  Si571  1  0.646967  0.761403  0.427914  1
  Si  Si572  1  0.646991  0.238580  0.427911  1
  Si  Si573  1  0.499964  0.593322  0.465977  1
  Si  Si574  1  0.499976  0.406619  0.465976  1
  Si  Si575  1  0.499976  0.306018  0.427914  1
  Si  Si576  1  0.499962  0.693935  0.427915  1
  Si  Si577  1  0.419954  0.238731  0.297060  1
  Si  Si578  1  0.579941  0.761173  0.297062  1
  Si  Si579  1  0.363127  0.406015  0.367283  1
  Si  Si580  1  0.636804  0.593933  0.367288  1
  Si  Si581  1  0.636813  0.406019  0.367287  1
  Si  Si582  1  0.363120  0.593930  0.367284  1
  Si  Si583  1  0.666659  0.677803  0.328423  1
  Si  Si584  1  0.579958  0.238749  0.297062  1
  Si  Si585  1  0.499965  0.406625  0.389852  1
  Si  Si586  1  0.499957  0.593328  0.389853  1
  Si  Si587  1  0.419936  0.761173  0.297056  1
  Si  Si588  1  0.666663  0.322129  0.328424  1
  Si  Si589  1  0.233753  0.176997  0.527378  1
  Si  Si590  1  0.233725  0.822898  0.527376  1
  Si  Si591  1  0.266176  0.677035  0.459298  1
  Si  Si592  1  0.266190  0.322908  0.459298  1
  Si  Si593  1  0.166689  0.177785  0.459271  1
  Si  Si594  1  0.166677  0.822158  0.459268  1
  Si  Si595  1  0.136807  0.093915  0.498135  1
  Si  Si596  1  0.136789  0.906003  0.498133  1
  Si  Si597  1  0.253816  0.906278  0.427907  1
  Si  Si598  1  0.079981  0.261196  0.427914  1
  Si  Si599  1  0.179386  0.406454  0.427916  1
  Si  Si600  1  0.253827  0.093675  0.427909  1
  Si  Si601  1  0.079963  0.738756  0.427910  1
  Si  Si602  1  0.179370  0.593499  0.427914  1
  Si  Si603  1  0.333244  0.322130  0.527406  1
  Si  Si604  1  0.333216  0.677766  0.527405  1
  Si  Si605  1  0.233718  0.822897  0.328442  1
  Si  Si606  1  0.233739  0.177006  0.328445  1
  Si  Si607  1  0.266189  0.322938  0.396529  1
  Si  Si608  1  0.266178  0.677013  0.396528  1
  Si  Si609  1  0.166677  0.822134  0.396550  1
  Si  Si610  1  0.166687  0.177817  0.396552  1
  Si  Si611  1  0.136792  0.906011  0.357687  1
  Si  Si612  1  0.136799  0.093926  0.357690  1
  Si  Si613  1  0.246086  0.593649  0.297065  1
  Si  Si614  1  0.146946  0.738535  0.297058  1
  Si  Si615  1  0.246106  0.406251  0.297063  1
  Si  Si616  1  0.320548  0.093475  0.297059  1
  Si  Si617  1  0.146969  0.261362  0.297059  1
  Si  Si618  1  0.320527  0.906427  0.297054  1
  Si  Si619  1  0.333248  0.322121  0.328421  1
  Si  Si620  1  0.333237  0.677794  0.328419  1
  Si  Si621  1  0.733764  0.322933  0.721002  1
  Si  Si622  1  0.733742  0.677043  0.721003  1
  Si  Si623  1  0.833243  0.822166  0.720976  1
  Si  Si624  1  0.833263  0.177809  0.720976  1
  Si  Si625  1  0.746106  0.906291  0.689615  1
  Si  Si626  1  0.919959  0.738773  0.689618  1
  Si  Si627  1  0.919978  0.261211  0.689619  1
  Si  Si628  1  0.820555  0.593514  0.689620  1
  Si  Si629  1  0.746128  0.093690  0.689614  1
  Si  Si630  1  0.820574  0.406470  0.689620  1
  Si  Si631  1  0.766157  0.177000  0.590152  1
  Si  Si632  1  0.766153  0.822931  0.590151  1
  Si  Si633  1  0.733745  0.677027  0.658235  1
  Si  Si634  1  0.733773  0.322952  0.658232  1
  Si  Si635  1  0.833271  0.177828  0.658257  1
  Si  Si636  1  0.833244  0.822151  0.658258  1
  Si  Si637  1  0.863115  0.093933  0.619394  1
  Si  Si638  1  0.863106  0.906019  0.619393  1
  Si  Si639  1  0.852931  0.738563  0.558767  1
  Si  Si640  1  0.852943  0.261367  0.558769  1
  Si  Si641  1  0.679355  0.093482  0.558765  1
  Si  Si642  1  0.000000  0.093321  0.596826  1
  Si  Si643  1  -0.000000  0.906619  0.596825  1
  Si  Si644  1  0.000000  0.193922  0.558764  1
  Si  Si645  1  0.000000  0.806008  0.558764  1
  Si  Si646  1  0.679339  0.906438  0.558765  1
  Si  Si647  1  0.753805  0.593663  0.558770  1
  Si  Si648  1  0.753811  0.406262  0.558770  1
  Si  Si649  1  0.363110  0.593915  0.750242  1
  Si  Si650  1  0.636820  0.406015  0.750246  1
  Si  Si651  1  0.636810  0.593929  0.750246  1
  Si  Si652  1  0.363129  0.405999  0.750245  1
  Si  Si653  1  0.352969  0.238560  0.689614  1
  Si  Si654  1  0.352953  0.761389  0.689615  1
  Si  Si655  1  0.646967  0.761403  0.689617  1
  Si  Si656  1  0.646991  0.238580  0.689615  1
  Si  Si657  1  0.499964  0.593322  0.727680  1
  Si  Si658  1  0.499976  0.406619  0.727680  1
  Si  Si659  1  0.499976  0.306018  0.689617  1
  Si  Si660  1  0.499962  0.693935  0.689619  1
  Si  Si661  1  0.419954  0.238731  0.558764  1
  Si  Si662  1  0.579941  0.761173  0.558766  1
  Si  Si663  1  0.363127  0.406015  0.628986  1
  Si  Si664  1  0.636804  0.593933  0.628992  1
  Si  Si665  1  0.636813  0.406019  0.628990  1
  Si  Si666  1  0.363120  0.593930  0.628987  1
  Si  Si667  1  0.666659  0.677803  0.590126  1
  Si  Si668  1  0.579958  0.238749  0.558765  1
  Si  Si669  1  0.499965  0.406625  0.651555  1
  Si  Si670  1  0.499957  0.593328  0.651557  1
  Si  Si671  1  0.419936  0.761173  0.558759  1
  Si  Si672  1  0.666663  0.322129  0.590127  1
  Si  Si673  1  0.266176  0.677035  0.721001  1
  Si  Si674  1  0.266190  0.322908  0.721001  1
  Si  Si675  1  0.166689  0.177785  0.720975  1
  Si  Si676  1  0.166677  0.822158  0.720971  1
  Si  Si677  1  0.253816  0.906278  0.689610  1
  Si  Si678  1  0.079981  0.261196  0.689617  1
  Si  Si679  1  0.179386  0.406454  0.689619  1
  Si  Si680  1  0.253827  0.093675  0.689612  1
  Si  Si681  1  0.079963  0.738756  0.689614  1
  Si  Si682  1  0.179370  0.593499  0.689617  1
  Si  Si683  1  0.233718  0.822897  0.590145  1
  Si  Si684  1  0.233739  0.177006  0.590148  1
  Si  Si685  1  0.266189  0.322938  0.658232  1
  Si  Si686  1  0.266178  0.677013  0.658231  1
  Si  Si687  1  0.166677  0.822134  0.658253  1
  Si  Si688  1  0.166687  0.177817  0.658255  1
  Si  Si689  1  0.136792  0.906011  0.619390  1
  Si  Si690  1  0.136799  0.093926  0.619394  1
  Si  Si691  1  0.246086  0.593649  0.558768  1
  Si  Si692  1  0.146946  0.738535  0.558761  1
  Si  Si693  1  0.246106  0.406251  0.558766  1
  Si  Si694  1  0.320548  0.093475  0.558762  1
  Si  Si695  1  0.146969  0.261362  0.558762  1
  Si  Si696  1  0.320527  0.906427  0.558758  1
  Si  Si697  1  0.333248  0.322121  0.590125  1
  Si  Si698  1  0.333237  0.677794  0.590123  1
  H  H699  1  0.862325  0.133687  0.103531  1
  H  H700  1  0.862303  0.866277  0.103531  1
  H  H701  1  0.362313  0.366259  0.072085  1
  H  H702  1  0.637603  0.633673  0.072089  1
  H  H703  1  0.637610  0.366270  0.072089  1
  H  H704  1  0.362302  0.633681  0.072086  1
  H  H705  1  0.137612  0.866258  0.103527  1
  H  H706  1  0.137622  0.133677  0.103531  1
  H  H707  1  0.862295  0.866299  0.752296  1
  H  H708  1  0.862313  0.133667  0.752295  1
  H  H709  1  0.362279  0.633628  0.783741  1
  H  H710  1  0.637625  0.366288  0.783743  1
  H  H711  1  0.637612  0.633644  0.783744  1
  H  H712  1  0.362309  0.366273  0.783742  1
  H  H713  1  0.137628  0.133642  0.752292  1
  H  H714  1  0.137606  0.866299  0.752288  1
