# generated using pymatgen
data_Si8H2O17
_symmetry_space_group_name_H-M   'P 1'
_cell_length_a   7.67548774
_cell_length_b   23.17903353
_cell_length_c   40.33534470
_cell_angle_alpha   54.18632819
_cell_angle_beta   90.00000000
_cell_angle_gamma   80.03446768
_symmetry_Int_Tables_number   1
_chemical_formula_structural   Si8H2O17
_chemical_formula_sum   'Si32 H8 O68'
_cell_volume   5685.20038836
_cell_formula_units_Z   4
loop_
 _symmetry_equiv_pos_site_id
 _symmetry_equiv_pos_as_xyz
  1  'x, y, z'
loop_
 _atom_site_type_symbol
 _atom_site_label
 _atom_site_symmetry_multiplicity
 _atom_site_fract_x
 _atom_site_fract_y
 _atom_site_fract_z
 _atom_site_occupancy
  O  O1  1  0.320633  0.313517  0.176420  1
  O  O2  1  0.320628  0.813528  0.176424  1
  O  O3  1  0.177844  0.066855  0.277903  1
  O  O4  1  0.177842  0.566863  0.277901  1
  O  O5  1  0.822009  0.933247  0.322831  1
  O  O6  1  0.822008  0.433256  0.322827  1
  O  O7  1  0.822008  0.933256  0.413882  1
  O  O8  1  0.822008  0.433247  0.413884  1
  O  O9  1  0.177843  0.066863  0.368954  1
  O  O10  1  0.177843  0.566855  0.368958  1
  O  O11  1  0.287399  0.974734  0.354409  1
  O  O12  1  0.287398  0.474734  0.354406  1
  O  O13  1  0.712454  0.025376  0.337377  1
  O  O14  1  0.712452  0.525377  0.337379  1
  O  O15  1  0.278014  0.924137  0.311475  1
  O  O16  1  0.278013  0.424147  0.311467  1
  O  O17  1  0.721839  0.075964  0.260417  1
  O  O18  1  0.721836  0.575974  0.260418  1
  O  O19  1  0.721837  0.075974  0.380310  1
  O  O20  1  0.721838  0.575964  0.380318  1
  O  O21  1  0.278014  0.924147  0.431368  1
  O  O22  1  0.278015  0.424137  0.431367  1
  O  O23  1  0.499927  -0.000000  0.302562  1
  O  O24  1  0.499924  0.500059  0.302560  1
  O  O25  1  0.499926  -0.000000  0.389222  1
  O  O26  1  0.499926  0.500052  0.389225  1
  O  O27  1  0.903621  0.172567  0.232215  1
  O  O28  1  0.903616  0.672577  0.232218  1
  O  O29  1  0.096236  0.827534  0.348243  1
  O  O30  1  0.096230  0.327544  0.348233  1
  O  O31  1  0.096232  0.827544  0.459570  1
  O  O32  1  0.096235  0.327533  0.459567  1
  O  O33  1  0.903617  0.172577  0.343542  1
  O  O34  1  0.903620  0.672567  0.343552  1
  O  O35  1  0.056120  0.153989  0.294128  1
  O  O36  1  0.056118  0.653989  0.294133  1
  O  O37  1  0.943733  0.846122  0.397657  1
  O  O38  1  0.943732  0.346122  0.397652  1
  O  O39  1  0.230545  0.197925  0.234111  1
  O  O40  1  0.230538  0.697935  0.234113  1
  O  O41  1  0.769313  0.802176  0.367192  1
  O  O42  1  0.769307  0.302185  0.367183  1
  O  O43  1  0.769308  0.802185  0.457675  1
  O  O44  1  0.769313  0.302176  0.457672  1
  O  O45  1  0.230539  0.197935  0.324593  1
  O  O46  1  0.230544  0.697925  0.324603  1
  O  O47  1  0.679226  0.686582  0.387242  1
  O  O48  1  0.679219  0.186593  0.387231  1
  O  O49  1  0.320633  0.313517  0.512682  1
  O  O50  1  0.320628  0.813528  0.512685  1
  O  O51  1  0.320628  0.313528  0.304544  1
  O  O52  1  0.320634  0.813517  0.304554  1
  O  O53  1  0.679218  0.686593  0.179104  1
  O  O54  1  0.679224  0.186582  0.179100  1
  O  O55  1  0.440731  0.795986  0.368808  1
  O  O56  1  0.440723  0.295996  0.368798  1
  O  O57  1  0.559129  0.204115  0.231563  1
  O  O58  1  0.559121  0.704124  0.231567  1
  O  O59  1  0.559122  0.204124  0.322977  1
  O  O60  1  0.559129  0.704115  0.322986  1
  O  O61  1  0.440724  0.795996  0.460221  1
  O  O62  1  0.440729  0.295986  0.460218  1
  O  O63  1  0.646700  0.731380  0.436242  1
  O  O64  1  0.646700  0.231380  0.436234  1
  O  O65  1  0.353152  0.268731  0.255543  1
  O  O66  1  0.353151  0.768731  0.255551  1
  O  O67  1  0.679218  0.686593  0.515365  1
  O  O68  1  0.679224  0.186582  0.515362  1
  Si  Si69  1  0.283494  0.841161  0.332241  1
  Si  Si70  1  0.283489  0.341171  0.332230  1
  Si  Si71  1  0.716363  0.158939  0.225377  1
  Si  Si72  1  0.716357  0.658950  0.225380  1
  Si  Si73  1  0.716358  0.158950  0.359544  1
  Si  Si74  1  0.716361  0.658939  0.359555  1
  Si  Si75  1  0.283490  0.841171  0.466408  1
  Si  Si76  1  0.283494  0.341160  0.466405  1
  Si  Si77  1  0.304531  0.990788  0.310776  1
  Si  Si78  1  0.304528  0.490794  0.310772  1
  Si  Si79  1  0.695324  0.009316  0.304543  1
  Si  Si80  1  0.695320  0.509323  0.304543  1
  Si  Si81  1  0.695322  0.009323  0.381009  1
  Si  Si82  1  0.695323  0.509316  0.381014  1
  Si  Si83  1  0.304529  0.990794  0.387242  1
  Si  Si84  1  0.304530  0.490788  0.387242  1
  Si  Si85  1  0.091159  0.149493  0.257405  1
  Si  Si86  1  0.091158  0.649500  0.257408  1
  Si  Si87  1  0.908694  0.850610  0.357913  1
  Si  Si88  1  0.908692  0.350617  0.357906  1
  Si  Si89  1  0.908693  0.850617  0.434380  1
  Si  Si90  1  0.908693  0.350610  0.434377  1
  Si  Si91  1  0.091158  0.149500  0.333872  1
  Si  Si92  1  0.091158  0.649493  0.333879  1
  Si  Si93  1  0.634656  0.751292  0.391414  1
  Si  Si94  1  0.634649  0.251302  0.391403  1
  Si  Si95  1  0.365203  0.248809  0.224111  1
  Si  Si96  1  0.365195  0.748818  0.224115  1
  Si  Si97  1  0.365196  0.248818  0.300372  1
  Si  Si98  1  0.365202  0.748808  0.300382  1
  Si  Si99  1  0.634650  0.751302  0.467674  1
  Si  Si100  1  0.634656  0.251292  0.467671  1
  H  H101  1  0.320633  0.313517  0.154107  1
  H  H102  1  0.320628  0.813528  0.154111  1
  H  H103  1  0.320633  0.313517  0.534995  1
  H  H104  1  0.320628  0.813528  0.534998  1
  H  H105  1  0.679218  0.686593  0.156791  1
  H  H106  1  0.679224  0.186582  0.156787  1
  H  H107  1  0.679218  0.686593  0.537678  1
  H  H108  1  0.679224  0.186582  0.537675  1
