# generated using pymatgen
data_Si18H2O37
_symmetry_space_group_name_H-M   'P 1'
_cell_length_a   25.48081259
_cell_length_b   13.88888375
_cell_length_c   49.87859949
_cell_angle_alpha   90.00000000
_cell_angle_beta   90.00000000
_cell_angle_gamma   90.00000000
_symmetry_Int_Tables_number   1
_chemical_formula_structural   Si18H2O37
_chemical_formula_sum   'Si144 H16 O296'
_cell_volume   17652.0385494
_cell_formula_units_Z   8
loop_
 _symmetry_equiv_pos_site_id
 _symmetry_equiv_pos_as_xyz
  1  'x, y, z'
loop_
 _atom_site_type_symbol
 _atom_site_label
 _atom_site_symmetry_multiplicity
 _atom_site_fract_x
 _atom_site_fract_y
 _atom_site_fract_z
 _atom_site_occupancy
  O  O1  1  0.571857  0.635861  0.118287  1
  O  O2  1  0.572672  0.366203  0.118339  1
  O  O3  1  0.087549  0.170949  0.172579  1
  O  O4  1  0.411670  0.669817  0.172457  1
  O  O5  1  0.412361  0.329144  0.172485  1
  O  O6  1  0.087407  0.829434  0.172568  1
  O  O7  1  0.095008  0.092322  0.217517  1
  O  O8  1  0.094979  0.592352  0.300558  1
  O  O9  1  0.404113  0.591989  0.217473  1
  O  O10  1  0.403688  0.091824  0.300856  1
  O  O11  1  0.405051  0.907397  0.300305  1
  O  O12  1  0.404852  0.407549  0.217521  1
  O  O13  1  0.095119  0.407927  0.300583  1
  O  O14  1  0.095112  0.907918  0.217499  1
  O  O15  1  0.149915  0.242062  0.210714  1
  O  O16  1  0.350001  0.742857  0.210634  1
  O  O17  1  0.350290  0.257356  0.210715  1
  O  O18  1  0.149721  0.757861  0.210652  1
  O  O19  1  0.050279  0.252153  0.215684  1
  O  O20  1  0.050150  0.752111  0.302380  1
  O  O21  1  0.449681  0.751077  0.215320  1
  O  O22  1  0.449747  0.250747  0.302497  1
  O  O23  1  0.449881  0.747931  0.302828  1
  O  O24  1  0.449949  0.248087  0.215475  1
  O  O25  1  0.050219  0.248242  0.302448  1
  O  O26  1  0.050108  0.748269  0.215654  1
  O  O27  1  0.427793  0.633968  0.118556  1
  O  O28  1  0.499435  0.901652  0.231006  1
  O  O29  1  0.429270  0.499220  0.152889  1
  O  O30  1  0.428612  0.364355  0.118466  1
  O  O31  1  0.190289  0.900521  0.287725  1
  O  O32  1  0.190260  0.400494  0.230338  1
  O  O33  1  0.308524  0.400644  0.287771  1
  O  O34  1  0.308535  0.900701  0.230282  1
  O  O35  1  0.308782  0.099634  0.230350  1
  O  O36  1  0.308822  0.599562  0.287685  1
  O  O37  1  0.190174  0.599451  0.230280  1
  O  O38  1  0.190208  0.099471  0.287785  1
  O  O39  1  0.151312  0.000000  0.250571  1
  O  O40  1  0.151266  0.500135  0.267493  1
  O  O41  1  0.349525  0.499484  0.251098  1
  O  O42  1  0.349602  0.000000  0.266906  1
  O  O43  1  0.250589  0.000000  0.259765  1
  O  O44  1  0.250545  0.500287  0.258306  1
  O  O45  1  0.181350  0.250003  0.259067  1
  O  O46  1  0.181242  0.750015  0.259002  1
  O  O47  1  0.318526  0.750109  0.258976  1
  O  O48  1  0.318678  0.250072  0.259090  1
  O  O49  1  0.249977  0.249463  0.295078  1
  O  O50  1  0.249856  0.749603  0.222987  1
  O  O51  1  0.249946  0.750388  0.294994  1
  O  O52  1  0.250085  0.250589  0.223073  1
  O  O53  1  0.050637  0.000000  0.254289  1
  O  O54  1  0.050600  0.499913  0.263799  1
  O  O55  1  0.449712  0.500663  0.254087  1
  O  O56  1  0.449844  0.002369  0.264092  1
  O  O57  1  0.499936  0.401462  0.287152  1
  O  O58  1  0.588660  0.670468  0.172264  1
  O  O59  1  0.910792  0.170094  0.171717  1
  O  O60  1  0.910641  0.830532  0.171791  1
  O  O61  1  0.589391  0.330694  0.172186  1
  O  O62  1  0.595077  0.592848  0.217484  1
  O  O63  1  0.595229  0.092717  0.300471  1
  O  O64  1  0.904755  0.092162  0.216898  1
  O  O65  1  0.904821  0.592190  0.301163  1
  O  O66  1  0.904990  0.407696  0.301058  1
  O  O67  1  0.904998  0.907654  0.217067  1
  O  O68  1  0.596166  0.907975  0.300903  1
  O  O69  1  0.596194  0.408103  0.217302  1
  O  O70  1  0.650048  0.742834  0.210696  1
  O  O71  1  0.850126  0.242457  0.210476  1
  O  O72  1  0.849918  0.757923  0.210502  1
  O  O73  1  0.650361  0.256990  0.210594  1
  O  O74  1  0.550075  0.752769  0.214478  1
  O  O75  1  0.949982  0.251869  0.214094  1
  O  O76  1  0.949874  0.752018  0.304011  1
  O  O77  1  0.949931  0.247852  0.304037  1
  O  O78  1  0.949816  0.747773  0.214027  1
  O  O79  1  0.550277  0.748546  0.303538  1
  O  O80  1  0.550349  0.248803  0.214321  1
  O  O81  1  0.501847  0.750002  0.259036  1
  O  O82  1  0.502650  0.250153  0.259025  1
  O  O83  1  0.996800  0.750019  0.259019  1
  O  O84  1  0.501156  0.098630  0.230956  1
  O  O85  1  0.000000  0.901670  0.287003  1
  O  O86  1  -0.000000  0.401629  0.231062  1
  O  O87  1  0.500036  0.624043  0.152971  1
  O  O88  1  -0.000000  0.598395  0.231019  1
  O  O89  1  0.571390  0.500902  0.152630  1
  O  O90  1  0.691419  0.400628  0.287620  1
  O  O91  1  0.691466  0.900450  0.230423  1
  O  O92  1  0.810317  0.900735  0.287628  1
  O  O93  1  0.810281  0.400739  0.230473  1
  O  O94  1  0.810225  0.599472  0.230489  1
  O  O95  1  0.810187  0.099458  0.287604  1
  O  O96  1  0.691681  0.099323  0.230378  1
  O  O97  1  0.691701  0.599464  0.287729  1
  O  O98  1  0.650667  0.500757  0.250972  1
  O  O99  1  0.650721  0.000000  0.267106  1
  O  O100  1  0.848806  0.000000  0.250193  1
  O  O101  1  0.848762  0.500055  0.267913  1
  O  O102  1  0.749655  0.499926  0.258294  1
  O  O103  1  0.749681  0.000000  0.259776  1
  O  O104  1  0.681412  0.750019  0.259096  1
  O  O105  1  0.681564  0.249999  0.258986  1
  O  O106  1  0.819263  0.250056  0.259030  1
  O  O107  1  0.819139  0.750066  0.259052  1
  O  O108  1  0.750240  0.750957  0.294974  1
  O  O109  1  0.750378  0.250705  0.223121  1
  O  O110  1  0.750277  0.249489  0.294904  1
  O  O111  1  0.750140  0.749187  0.223175  1
  O  O112  1  0.550546  0.498911  0.253960  1
  O  O113  1  0.550595  0.998246  0.264132  1
  O  O114  1  0.949324  0.000000  0.253751  1
  O  O115  1  0.949288  0.500368  0.264316  1
  O  O116  1  0.550157  0.252376  0.303796  1
  O  O117  1  0.996970  0.250040  0.259070  1
  O  O118  1  0.500651  0.376045  0.152957  1
  O  O119  1  0.500690  0.598472  0.287108  1
  O  O120  1  0.000000  0.098399  0.287061  1
  O  O121  1  0.089787  0.670180  0.453290  1
  O  O122  1  0.087457  0.671018  0.345483  1
  O  O123  1  0.412531  0.170903  0.453795  1
  O  O124  1  0.412258  0.171083  0.345673  1
  O  O125  1  0.411760  0.830401  0.345519  1
  O  O126  1  0.410978  0.831834  0.453430  1
  O  O127  1  0.087495  0.329528  0.345510  1
  O  O128  1  0.089869  0.329875  0.453231  1
  O  O129  1  0.150949  0.744013  0.491645  1
  O  O130  1  0.149794  0.742186  0.307358  1
  O  O131  1  0.350964  0.242985  0.491992  1
  O  O132  1  0.350144  0.243206  0.307484  1
  O  O133  1  0.350141  0.757555  0.307303  1
  O  O134  1  0.350925  0.756441  0.491820  1
  O  O135  1  0.149840  0.257959  0.307419  1
  O  O136  1  0.151003  0.257659  0.491971  1
  O  O137  1  0.001034  0.624058  0.434412  1
  O  O138  1  0.499743  0.876190  0.434224  1
  O  O139  1  0.072079  0.500127  0.433679  1
  O  O140  1  0.070512  0.500314  0.365048  1
  O  O141  1  0.429098  0.001069  0.433879  1
  O  O142  1  0.429279  0.000000  0.365176  1
  O  O143  1  0.072231  0.635081  0.399394  1
  O  O144  1  0.428557  0.135821  0.399638  1
  O  O145  1  0.427852  0.866211  0.399461  1
  O  O146  1  0.072179  0.365353  0.399367  1
  O  O147  1  0.001013  0.376215  0.434369  1
  O  O148  1  0.589219  0.169764  0.453507  1
  O  O149  1  0.589291  0.169400  0.345784  1
  O  O150  1  0.913089  0.670528  0.454373  1
  O  O151  1  0.910691  0.669974  0.346360  1
  O  O152  1  0.910716  0.330425  0.346308  1
  O  O153  1  0.912961  0.329778  0.454215  1
  O  O154  1  0.588778  0.829610  0.345926  1
  O  O155  1  0.588028  0.828943  0.453796  1
  O  O156  1  0.650725  0.243239  0.491827  1
  O  O157  1  0.650218  0.242793  0.307352  1
  O  O158  1  0.851064  0.742567  0.492289  1
  O  O159  1  0.849994  0.742292  0.307610  1
  O  O160  1  0.850032  0.257787  0.307592  1
  O  O161  1  0.851086  0.256873  0.492093  1
  O  O162  1  0.650198  0.756881  0.307527  1
  O  O163  1  0.650571  0.756207  0.491789  1
  O  O164  1  0.000000  0.624271  0.365356  1
  O  O165  1  0.571155  0.000000  0.434123  1
  O  O166  1  0.571396  0.000000  0.365449  1
  O  O167  1  0.929914  0.500220  0.434652  1
  O  O168  1  0.928244  0.500448  0.366017  1
  O  O169  1  0.572624  0.134146  0.399692  1
  O  O170  1  0.928156  0.635233  0.400373  1
  O  O171  1  0.928152  0.365444  0.400275  1
  O  O172  1  0.571895  0.864526  0.399851  1
  O  O173  1  0.500542  0.124179  0.434200  1
  O  O174  1  0.000000  0.376531  0.365280  1
  O  O175  1  0.500616  0.124137  0.365106  1
  O  O176  1  0.500080  0.876145  0.365092  1
  O  O177  1  0.090068  0.169464  0.627429  1
  O  O178  1  0.411065  0.668586  0.627223  1
  O  O179  1  0.412681  0.329154  0.626994  1
  O  O180  1  0.089841  0.829929  0.627494  1
  O  O181  1  0.098175  0.592188  0.498352  1
  O  O182  1  0.099290  0.092066  0.582224  1
  O  O183  1  0.404383  0.091941  0.498881  1
  O  O184  1  0.405278  0.592667  0.581692  1
  O  O185  1  0.405403  0.407748  0.581854  1
  O  O186  1  0.404463  0.907217  0.499088  1
  O  O187  1  0.097535  0.907681  0.582368  1
  O  O188  1  0.096123  0.407651  0.498313  1
  O  O189  1  0.151179  0.244295  0.589158  1
  O  O190  1  0.350667  0.742790  0.588763  1
  O  O191  1  0.351306  0.256961  0.588775  1
  O  O192  1  0.150873  0.756705  0.588854  1
  O  O193  1  0.051083  0.750942  0.495692  1
  O  O194  1  0.051294  0.250019  0.585067  1
  O  O195  1  0.450539  0.251235  0.496867  1
  O  O196  1  0.450593  0.752454  0.585243  1
  O  O197  1  0.450858  0.247957  0.584066  1
  O  O198  1  0.450923  0.748381  0.495337  1
  O  O199  1  0.050898  0.748491  0.585320  1
  O  O200  1  0.051111  0.247302  0.495349  1
  O  O201  1  0.004011  0.749282  0.540512  1
  O  O202  1  0.004348  0.250214  0.540211  1
  O  O203  1  0.497449  0.749537  0.540315  1
  O  O204  1  0.002443  0.901536  0.512961  1
  O  O205  1  0.499698  0.624075  0.646547  1
  O  O206  1  0.429056  0.499188  0.646849  1
  O  O207  1  0.192405  0.400974  0.569258  1
  O  O208  1  0.192988  0.900827  0.511292  1
  O  O209  1  0.309415  0.900573  0.568890  1
  O  O210  1  0.309882  0.400508  0.511939  1
  O  O211  1  0.310188  0.598843  0.511881  1
  O  O212  1  0.309714  0.099131  0.569002  1
  O  O213  1  0.191934  0.099780  0.511575  1
  O  O214  1  0.191328  0.599616  0.568896  1
  O  O215  1  0.145195  0.497783  0.534320  1
  O  O216  1  0.142544  0.998212  0.544857  1
  O  O217  1  0.342832  0.000000  0.530299  1
  O  O218  1  0.344629  0.499679  0.550307  1
  O  O219  1  0.245681  0.500382  0.537861  1
  O  O220  1  0.243958  0.000000  0.543654  1
  O  O221  1  0.182050  0.750543  0.540192  1
  O  O222  1  0.182256  0.250004  0.540560  1
  O  O223  1  0.319651  0.249719  0.540430  1
  O  O224  1  0.319569  0.750002  0.540287  1
  O  O225  1  0.250746  0.749590  0.576196  1
  O  O226  1  0.250869  0.250100  0.504500  1
  O  O227  1  0.251185  0.250164  0.576501  1
  O  O228  1  0.250934  0.748977  0.504267  1
  O  O229  1  0.044182  0.501425  0.532064  1
  O  O230  1  0.042166  0.001022  0.549813  1
  O  O231  1  0.442376  0.000000  0.537698  1
  O  O232  1  0.444238  0.499823  0.543279  1
  O  O233  1  0.002715  0.401299  0.568213  1
  O  O234  1  0.001671  0.597985  0.568463  1
  O  O235  1  0.001647  0.097815  0.512730  1
  O  O236  1  0.587836  0.671697  0.626987  1
  O  O237  1  0.913156  0.170371  0.626372  1
  O  O238  1  0.912777  0.829913  0.626568  1
  O  O239  1  0.589314  0.330494  0.627241  1
  O  O240  1  0.597231  0.092616  0.498663  1
  O  O241  1  0.597232  0.591534  0.582338  1
  O  O242  1  0.905805  0.592570  0.499531  1
  O  O243  1  0.904799  0.092432  0.581210  1
  O  O244  1  0.904469  0.907624  0.581390  1
  O  O245  1  0.905147  0.407561  0.499353  1
  O  O246  1  0.595742  0.407091  0.582039  1
  O  O247  1  0.598696  0.908300  0.498595  1
  O  O248  1  0.650256  0.743222  0.588814  1
  O  O249  1  0.851298  0.243273  0.588542  1
  O  O250  1  0.850751  0.757034  0.588739  1
  O  O251  1  0.650891  0.257677  0.588890  1
  O  O252  1  0.550823  0.251830  0.495793  1
  O  O253  1  0.550845  0.750648  0.583556  1
  O  O254  1  0.950758  0.752614  0.497236  1
  O  O255  1  0.950992  0.251629  0.583448  1
  O  O256  1  0.950470  0.748282  0.583705  1
  O  O257  1  0.950734  0.247902  0.497045  1
  O  O258  1  0.551118  0.246660  0.584974  1
  O  O259  1  0.551187  0.750006  0.497218  1
  O  O260  1  0.503084  0.250589  0.540425  1
  O  O261  1  0.501168  0.401857  0.512458  1
  O  O262  1  0.571236  0.501136  0.646641  1
  O  O263  1  0.571857  0.635861  0.680957  1
  O  O264  1  0.691857  0.900707  0.569306  1
  O  O265  1  0.691681  0.400386  0.511560  1
  O  O266  1  0.809789  0.400921  0.568913  1
  O  O267  1  0.809057  0.900423  0.511743  1
  O  O268  1  0.809214  0.099135  0.511718  1
  O  O269  1  0.809332  0.599402  0.569023  1
  O  O270  1  0.691338  0.599152  0.511669  1
  O  O271  1  0.692439  0.099751  0.569464  1
  O  O272  1  0.642336  0.001428  0.536008  1
  O  O273  1  0.645369  0.498812  0.546525  1
  O  O274  1  0.844700  0.500517  0.530780  1
  O  O275  1  0.842848  0.000000  0.550184  1
  O  O276  1  0.743778  0.000000  0.537189  1
  O  O277  1  0.745645  0.499852  0.542709  1
  O  O278  1  0.682207  0.249686  0.540390  1
  O  O279  1  0.681888  0.750267  0.540350  1
  O  O280  1  0.818959  0.750150  0.540475  1
  O  O281  1  0.819265  0.249935  0.540325  1
  O  O282  1  0.750899  0.250579  0.576443  1
  O  O283  1  0.750660  0.749181  0.504346  1
  O  O284  1  0.750372  0.749916  0.576487  1
  O  O285  1  0.750781  0.250160  0.504287  1
  O  O286  1  0.541980  0.998862  0.531203  1
  O  O287  1  0.544209  0.501452  0.548202  1
  O  O288  1  0.944401  0.499089  0.537910  1
  O  O289  1  0.942637  0.000000  0.542633  1
  O  O290  1  0.501137  0.097820  0.567829  1
  O  O291  1  0.500627  0.598586  0.512284  1
  O  O292  1  0.500588  0.901473  0.567927  1
  O  O293  1  0.500585  0.376271  0.646539  1
  O  O294  1  0.572672  0.366203  0.681009  1
  O  O295  1  0.427793  0.633968  0.681226  1
  O  O296  1  0.428612  0.364355  0.681136  1
  Si  Si297  1  0.401745  0.499804  0.234996  1
  Si  Si298  1  0.401729  0.000000  0.283079  1
  Si  Si299  1  0.098352  0.000000  0.234993  1
  Si  Si300  1  0.304859  -0.000000  0.245527  1
  Si  Si301  1  0.098325  0.500112  0.283088  1
  Si  Si302  1  0.096416  0.192495  0.203460  1
  Si  Si303  1  0.403113  0.692005  0.203334  1
  Si  Si304  1  0.403593  0.307516  0.203382  1
  Si  Si305  1  0.096300  0.807753  0.203436  1
  Si  Si306  1  0.439350  0.610507  0.149240  1
  Si  Si307  1  0.439899  0.388161  0.149174  1
  Si  Si308  1  0.192815  0.213678  0.288408  1
  Si  Si309  1  0.192723  0.713669  0.229664  1
  Si  Si310  1  0.306965  0.713831  0.288303  1
  Si  Si311  1  0.307081  0.213904  0.229752  1
  Si  Si312  1  0.306825  0.786420  0.229663  1
  Si  Si313  1  0.306926  0.286375  0.288404  1
  Si  Si314  1  0.192895  0.286294  0.229733  1
  Si  Si315  1  0.192798  0.786318  0.288335  1
  Si  Si316  1  0.194963  0.000000  0.272593  1
  Si  Si317  1  0.194923  0.500029  0.245473  1
  Si  Si318  1  0.304844  0.500031  0.272515  1
  Si  Si319  1  -0.000000  0.500049  0.246692  1
  Si  Si320  1  0.000000  0.000000  0.271382  1
  Si  Si321  1  0.596906  0.692587  0.203159  1
  Si  Si322  1  0.903059  0.192106  0.202688  1
  Si  Si323  1  0.902951  0.807980  0.202725  1
  Si  Si324  1  0.597499  0.308200  0.203066  1
  Si  Si325  1  0.560746  0.611942  0.148987  1
  Si  Si326  1  0.561293  0.389607  0.149021  1
  Si  Si327  1  0.693313  0.713746  0.288396  1
  Si  Si328  1  0.693431  0.213595  0.229700  1
  Si  Si329  1  0.807476  0.213639  0.288332  1
  Si  Si330  1  0.807388  0.713634  0.229748  1
  Si  Si331  1  0.807555  0.286564  0.229727  1
  Si  Si332  1  0.807463  0.786554  0.288360  1
  Si  Si333  1  0.693179  0.786182  0.229776  1
  Si  Si334  1  0.693297  0.286365  0.288287  1
  Si  Si335  1  0.695294  0.500136  0.272429  1
  Si  Si336  1  0.695324  0.000000  0.245637  1
  Si  Si337  1  0.805479  0.000000  0.272396  1
  Si  Si338  1  0.805467  0.500086  0.245693  1
  Si  Si339  1  0.598460  0.500297  0.234849  1
  Si  Si340  1  0.598524  0.000000  0.283232  1
  Si  Si341  1  0.901615  -0.000000  0.234467  1
  Si  Si342  1  0.901604  0.500055  0.283621  1
  Si  Si343  1  -0.000000  0.211876  0.288510  1
  Si  Si344  1  -0.000000  0.711875  0.229577  1
  Si  Si345  1  0.500859  0.212140  0.229569  1
  Si  Si346  1  0.500535  0.711967  0.288495  1
  Si  Si347  1  0.500451  0.287941  0.288497  1
  Si  Si348  1  0.000000  0.788211  0.288455  1
  Si  Si349  1  -0.000000  0.288151  0.229625  1
  Si  Si350  1  0.500121  0.788169  0.229594  1
  Si  Si351  1  0.500253  0.000000  0.246577  1
  Si  Si352  1  0.500223  0.499938  0.271533  1
  Si  Si353  1  0.061622  0.388951  0.430120  1
  Si  Si354  1  0.060159  0.389118  0.368758  1
  Si  Si355  1  0.439133  0.889895  0.430160  1
  Si  Si356  1  0.439383  0.889610  0.368772  1
  Si  Si357  1  0.098240  0.692207  0.484174  1
  Si  Si358  1  0.096314  0.692549  0.314604  1
  Si  Si359  1  0.404090  0.192103  0.484734  1
  Si  Si360  1  0.403251  0.192281  0.314772  1
  Si  Si361  1  0.403409  0.807783  0.314649  1
  Si  Si362  1  0.403624  0.808209  0.484315  1
  Si  Si363  1  0.096406  0.307778  0.314651  1
  Si  Si364  1  0.097995  0.307675  0.484148  1
  Si  Si365  1  0.061625  0.611309  0.430136  1
  Si  Si366  1  0.060185  0.611513  0.368770  1
  Si  Si367  1  0.439808  0.112161  0.430350  1
  Si  Si368  1  0.439876  0.111957  0.368940  1
  Si  Si369  1  0.560516  0.888216  0.430534  1
  Si  Si370  1  0.560778  0.888323  0.369146  1
  Si  Si371  1  0.597758  0.192334  0.484343  1
  Si  Si372  1  0.597191  0.192219  0.314909  1
  Si  Si373  1  0.904524  0.692453  0.485246  1
  Si  Si374  1  0.902981  0.692094  0.315393  1
  Si  Si375  1  0.903044  0.307947  0.315363  1
  Si  Si376  1  0.904362  0.307673  0.485070  1
  Si  Si377  1  0.597241  0.807839  0.315026  1
  Si  Si378  1  0.597589  0.807906  0.484645  1
  Si  Si379  1  0.561192  0.110604  0.430374  1
  Si  Si380  1  0.561272  0.110659  0.369004  1
  Si  Si381  1  0.940242  0.611409  0.430989  1
  Si  Si382  1  0.938779  0.611548  0.369615  1
  Si  Si383  1  0.938752  0.389244  0.369524  1
  Si  Si384  1  0.940236  0.389059  0.430899  1
  Si  Si385  1  0.496646  0.000000  0.552219  1
  Si  Si386  1  0.002230  0.287767  0.569681  1
  Si  Si387  1  0.001980  0.788137  0.511171  1
  Si  Si388  1  0.001791  0.211229  0.510890  1
  Si  Si389  1  0.497644  0.500330  0.528010  1
  Si  Si390  1  0.098628  0.191773  0.596572  1
  Si  Si391  1  0.403603  0.691901  0.596329  1
  Si  Si392  1  0.404466  0.307672  0.596048  1
  Si  Si393  1  0.098095  0.807755  0.596593  1
  Si  Si394  1  0.439084  0.610394  0.650522  1
  Si  Si395  1  0.439861  0.388134  0.650427  1
  Si  Si396  1  0.193633  0.713749  0.569503  1
  Si  Si397  1  0.193802  0.214002  0.511173  1
  Si  Si398  1  0.308125  0.213349  0.569771  1
  Si  Si399  1  0.308021  0.712982  0.511000  1
  Si  Si400  1  0.307939  0.286374  0.511134  1
  Si  Si401  1  0.307753  0.786373  0.569605  1
  Si  Si402  1  0.194106  0.786537  0.510844  1
  Si  Si403  1  0.194191  0.286746  0.569852  1
  Si  Si404  1  0.193075  0.500005  0.553752  1
  Si  Si405  1  0.192469  0.000000  0.526759  1
  Si  Si406  1  0.301889  0.000000  0.553935  1
  Si  Si407  1  0.303093  0.499758  0.527015  1
  Si  Si408  1  0.096193  0.499919  0.515870  1
  Si  Si409  1  0.095737  0.000000  0.564776  1
  Si  Si410  1  0.397872  0.000000  0.516289  1
  Si  Si411  1  0.399424  0.499996  0.564462  1
  Si  Si412  1  0.001598  0.711538  0.569961  1
  Si  Si413  1  0.501208  0.288339  0.510964  1
  Si  Si414  1  0.500243  0.712158  0.510840  1
  Si  Si415  1  0.501348  0.211157  0.569716  1
  Si  Si416  1  0.998347  0.499814  0.552717  1
  Si  Si417  1  0.597142  0.692298  0.596078  1
  Si  Si418  1  0.904539  0.192290  0.595513  1
  Si  Si419  1  0.904053  0.807823  0.595722  1
  Si  Si420  1  0.597637  0.307504  0.596394  1
  Si  Si421  1  0.560471  0.612211  0.650268  1
  Si  Si422  1  0.561252  0.389830  0.650329  1
  Si  Si423  1  0.693901  0.214039  0.569804  1
  Si  Si424  1  0.693550  0.713300  0.511063  1
  Si  Si425  1  0.807417  0.713568  0.569791  1
  Si  Si426  1  0.807723  0.213343  0.511008  1
  Si  Si427  1  0.807562  0.786198  0.511099  1
  Si  Si428  1  0.807912  0.286762  0.569641  1
  Si  Si429  1  0.693726  0.286191  0.511040  1
  Si  Si430  1  0.693417  0.786469  0.569721  1
  Si  Si431  1  0.692286  0.000000  0.554084  1
  Si  Si432  1  0.692948  0.499698  0.526901  1
  Si  Si433  1  0.802804  0.500210  0.553879  1
  Si  Si434  1  0.801571  0.000000  0.526712  1
  Si  Si435  1  0.595430  0.000000  0.516160  1
  Si  Si436  1  0.595890  0.499686  0.564637  1
  Si  Si437  1  0.899556  0.499916  0.516723  1
  Si  Si438  1  0.898045  0.000000  0.564025  1
  Si  Si439  1  0.997333  0.000000  0.528490  1
  Si  Si440  1  0.500032  0.788030  0.569687  1
  H  H441  1  0.571857  0.635861  0.100243  1
  H  H442  1  0.572672  0.366203  0.100295  1
  H  H443  1  0.087549  0.170949  0.154535  1
  H  H444  1  0.087407  0.829434  0.154524  1
  H  H445  1  0.427793  0.633968  0.100512  1
  H  H446  1  0.428612  0.364355  0.100422  1
  H  H447  1  0.910792  0.170094  0.153673  1
  H  H448  1  0.910641  0.830532  0.153747  1
  H  H449  1  0.090068  0.169464  0.645473  1
  H  H450  1  0.089841  0.829929  0.645538  1
  H  H451  1  0.913156  0.170371  0.644416  1
  H  H452  1  0.912777  0.829913  0.644612  1
  H  H453  1  0.571857  0.635861  0.699001  1
  H  H454  1  0.572672  0.366203  0.699053  1
  H  H455  1  0.427793  0.633968  0.699270  1
  H  H456  1  0.428612  0.364355  0.699180  1
