# generated using pymatgen
data_Si6H2O13
_symmetry_space_group_name_H-M   'P 1'
_cell_length_a   11.39954126
_cell_length_b   25.27156065
_cell_length_c   30.52989539
_cell_angle_alpha   90.00000000
_cell_angle_beta   90.00000000
_cell_angle_gamma   90.00000000
_symmetry_Int_Tables_number   1
_chemical_formula_structural   Si6H2O13
_chemical_formula_sum   'Si48 H16 O104'
_cell_volume   8795.180438
_cell_formula_units_Z   8
loop_
 _symmetry_equiv_pos_site_id
 _symmetry_equiv_pos_as_xyz
  1  'x, y, z'
loop_
 _atom_site_type_symbol
 _atom_site_label
 _atom_site_symmetry_multiplicity
 _atom_site_fract_x
 _atom_site_fract_y
 _atom_site_fract_z
 _atom_site_occupancy
  O  O1  1  0.792129  0.898827  0.414596  1
  O  O2  1  0.207780  0.898829  0.414596  1
  O  O3  1  0.811307  0.800792  0.401698  1
  O  O4  1  0.188594  0.699167  0.401708  1
  O  O5  1  0.811302  0.699166  0.401699  1
  O  O6  1  0.188596  0.800793  0.401698  1
  O  O7  1  0.615368  0.834374  0.425143  1
  O  O8  1  0.384539  0.834376  0.425141  1
  O  O9  1  0.793426  0.832032  0.479196  1
  O  O10  1  0.206476  0.667907  0.479199  1
  O  O11  1  0.793440  0.667910  0.479191  1
  O  O12  1  0.206482  0.832033  0.479195  1
  O  O13  1  0.845567  0.929778  0.336331  1
  O  O14  1  0.000000  0.930209  0.394442  1
  O  O15  1  -0.000000  0.749978  0.388968  1
  O  O16  1  0.499960  0.819674  0.353959  1
  O  O17  1  0.499944  0.680266  0.353961  1
  O  O18  1  0.499947  0.749973  0.412266  1
  O  O19  1  0.154343  0.929781  0.336332  1
  O  O20  1  0.611942  0.336006  0.390623  1
  O  O21  1  0.387939  0.336003  0.390621  1
  O  O22  1  0.782420  0.399585  0.412655  1
  O  O23  1  0.217473  0.399587  0.412657  1
  O  O24  1  0.673665  0.338592  0.470533  1
  O  O25  1  0.326244  0.338594  0.470533  1
  O  O26  1  0.207767  0.601129  0.414584  1
  O  O27  1  0.792120  0.601129  0.414579  1
  O  O28  1  0.384532  0.665573  0.425145  1
  O  O29  1  0.615367  0.665576  0.425144  1
  O  O30  1  0.000000  0.428342  0.394704  1
  O  O31  1  0.154332  0.570172  0.336317  1
  O  O32  1  0.841954  0.499500  0.395321  1
  O  O33  1  0.157934  0.499502  0.395324  1
  O  O34  1  0.000000  0.569751  0.394424  1
  O  O35  1  0.845557  0.570169  0.336314  1
  O  O36  1  0.807330  0.300478  0.412642  1
  O  O37  1  0.192563  0.199484  0.412653  1
  O  O38  1  0.807331  0.199481  0.412654  1
  O  O39  1  0.192554  0.300481  0.412650  1
  O  O40  1  0.387944  0.163955  0.390624  1
  O  O41  1  0.611949  0.163951  0.390628  1
  O  O42  1  0.217472  0.100376  0.412658  1
  O  O43  1  0.782428  0.100373  0.412658  1
  O  O44  1  0.326244  0.161363  0.470536  1
  O  O45  1  0.673659  0.161358  0.470538  1
  O  O46  1  -0.000000  0.071616  0.394706  1
  O  O47  1  0.841962  0.000000  0.395332  1
  O  O48  1  0.000000  0.249978  0.400394  1
  O  O49  1  0.842959  0.249966  0.342021  1
  O  O50  1  0.156938  0.249977  0.342025  1
  O  O51  1  0.499951  0.249978  0.377985  1
  O  O52  1  0.157945  0.000000  0.395333  1
  O  O53  1  0.192566  0.800470  0.259808  1
  O  O54  1  0.807337  0.699471  0.259801  1
  O  O55  1  0.192577  0.699472  0.259801  1
  O  O56  1  0.807348  0.800467  0.259798  1
  O  O57  1  0.387957  0.835995  0.281830  1
  O  O58  1  0.611962  0.835990  0.281828  1
  O  O59  1  0.217480  0.899577  0.259805  1
  O  O60  1  0.782433  0.899575  0.259802  1
  O  O61  1  0.326233  0.838590  0.201922  1
  O  O62  1  0.673667  0.838591  0.201917  1
  O  O63  1  0.000000  0.928333  0.277755  1
  O  O64  1  0.157943  -0.000000  0.277129  1
  O  O65  1  0.841963  -0.000000  0.277129  1
  O  O66  1  -0.000000  0.749965  0.272057  1
  O  O67  1  0.156943  0.749966  0.330430  1
  O  O68  1  0.842966  0.749975  0.330426  1
  O  O69  1  0.499950  0.749967  0.294468  1
  O  O70  1  0.611957  0.663943  0.281832  1
  O  O71  1  0.387954  0.663939  0.281827  1
  O  O72  1  0.782421  0.600363  0.259786  1
  O  O73  1  0.217473  0.600364  0.259788  1
  O  O74  1  0.673642  0.661360  0.201917  1
  O  O75  1  0.326247  0.661355  0.201915  1
  O  O76  1  0.207781  0.398820  0.257864  1
  O  O77  1  0.792129  0.398815  0.257861  1
  O  O78  1  0.384536  0.334368  0.247307  1
  O  O79  1  0.615368  0.334368  0.247309  1
  O  O80  1  -0.000000  0.571606  0.277738  1
  O  O81  1  0.841957  0.500446  0.277117  1
  O  O82  1  0.157940  0.500449  0.277121  1
  O  O83  1  0.000000  0.430199  0.278017  1
  O  O84  1  0.845562  0.429778  0.336125  1
  O  O85  1  0.154335  0.429780  0.336128  1
  O  O86  1  0.792126  0.101116  0.257861  1
  O  O87  1  0.207773  0.101121  0.257863  1
  O  O88  1  0.188595  0.300784  0.270750  1
  O  O89  1  0.811314  0.199152  0.270748  1
  O  O90  1  0.188607  0.199158  0.270756  1
  O  O91  1  0.811308  0.300778  0.270749  1
  O  O92  1  0.615370  0.165569  0.247309  1
  O  O93  1  0.384541  0.165567  0.247313  1
  O  O94  1  0.206471  0.332035  0.193257  1
  O  O95  1  0.793429  0.167903  0.193253  1
  O  O96  1  0.206484  0.167914  0.193259  1
  O  O97  1  0.793424  0.332028  0.193255  1
  O  O98  1  -0.000000  0.069741  0.278021  1
  O  O99  1  -0.000000  0.249967  0.283484  1
  O  O100  1  0.499948  0.319677  0.318491  1
  O  O101  1  0.499962  0.180269  0.318495  1
  O  O102  1  0.499952  0.249969  0.260187  1
  O  O103  1  0.154340  0.070172  0.336130  1
  O  O104  1  0.845560  0.070169  0.336129  1
  Si  Si105  1  0.499947  0.688803  0.404736  1
  Si  Si106  1  0.499953  0.811144  0.404735  1
  Si  Si107  1  0.750753  0.843023  0.431348  1
  Si  Si108  1  0.249153  0.843024  0.431347  1
  Si  Si109  1  0.864798  0.939639  0.386771  1
  Si  Si110  1  0.135111  0.939641  0.386771  1
  Si  Si111  1  0.864646  0.749978  0.380989  1
  Si  Si112  1  0.135258  0.749977  0.380992  1
  Si  Si113  1  0.864787  0.560317  0.386755  1
  Si  Si114  1  0.135100  0.560319  0.386757  1
  Si  Si115  1  0.717735  0.345806  0.422347  1
  Si  Si116  1  0.282158  0.345808  0.422349  1
  Si  Si117  1  0.249145  0.656927  0.431349  1
  Si  Si118  1  0.750755  0.656929  0.431343  1
  Si  Si119  1  0.864659  0.438669  0.386709  1
  Si  Si120  1  0.135233  0.438670  0.386711  1
  Si  Si121  1  0.282159  0.154154  0.422351  1
  Si  Si122  1  0.717738  0.154150  0.422353  1
  Si  Si123  1  0.135239  0.061289  0.386714  1
  Si  Si124  1  0.864664  0.061287  0.386714  1
  Si  Si125  1  0.864583  0.249976  0.392648  1
  Si  Si126  1  0.135306  0.249980  0.392651  1
  Si  Si127  1  0.499944  0.311244  0.369226  1
  Si  Si128  1  0.499952  0.188711  0.369229  1
  Si  Si129  1  0.282163  0.845799  0.250108  1
  Si  Si130  1  0.717748  0.845797  0.250103  1
  Si  Si131  1  0.135242  0.938663  0.285747  1
  Si  Si132  1  0.864668  0.938660  0.285747  1
  Si  Si133  1  0.135318  0.749968  0.279804  1
  Si  Si134  1  0.864596  0.749969  0.279800  1
  Si  Si135  1  0.499958  0.811234  0.303225  1
  Si  Si136  1  0.499950  0.688700  0.303227  1
  Si  Si137  1  0.864794  0.439630  0.285685  1
  Si  Si138  1  0.717734  0.654144  0.250100  1
  Si  Si139  1  0.282168  0.654142  0.250100  1
  Si  Si140  1  0.249149  0.343018  0.241105  1
  Si  Si141  1  0.750755  0.343014  0.241104  1
  Si  Si142  1  0.864659  0.561278  0.285730  1
  Si  Si143  1  0.135233  0.561281  0.285733  1
  Si  Si144  1  0.135108  0.439632  0.285687  1
  Si  Si145  1  0.499958  0.188799  0.267719  1
  Si  Si146  1  0.499951  0.311140  0.267716  1
  Si  Si147  1  0.750755  0.156919  0.241102  1
  Si  Si148  1  0.249154  0.156923  0.241108  1
  Si  Si149  1  0.864794  0.060308  0.285690  1
  Si  Si150  1  0.135107  0.060311  0.285690  1
  Si  Si151  1  0.135260  0.249971  0.291463  1
  Si  Si152  1  0.864648  0.249965  0.291459  1
  H  H153  1  0.793426  0.832032  0.508675  1
  H  H154  1  0.206476  0.667907  0.508678  1
  H  H155  1  0.793440  0.667910  0.508670  1
  H  H156  1  0.206482  0.832033  0.508675  1
  H  H157  1  0.673665  0.338592  0.500012  1
  H  H158  1  0.326244  0.338594  0.500012  1
  H  H159  1  0.326244  0.161363  0.500015  1
  H  H160  1  0.673659  0.161358  0.500017  1
  H  H161  1  0.326233  0.838590  0.172442  1
  H  H162  1  0.673667  0.838591  0.172438  1
  H  H163  1  0.673642  0.661360  0.172438  1
  H  H164  1  0.326247  0.661355  0.172435  1
  H  H165  1  0.206471  0.332035  0.163778  1
  H  H166  1  0.793429  0.167903  0.163774  1
  H  H167  1  0.206484  0.167914  0.163780  1
  H  H168  1  0.793424  0.332028  0.163776  1
