# generated using pymatgen
data_Si28H6O59
_symmetry_space_group_name_H-M   'P 1'
_cell_length_a   13.64855836
_cell_length_b   32.66871493
_cell_length_c   49.84082047
_cell_angle_alpha   129.57970072
_cell_angle_beta   90.00000000
_cell_angle_gamma   90.00000000
_symmetry_Int_Tables_number   1
_chemical_formula_structural   Si28H6O59
_chemical_formula_sum   'Si112 H24 O236'
_cell_volume   17128.1858151
_cell_formula_units_Z   4
loop_
 _symmetry_equiv_pos_site_id
 _symmetry_equiv_pos_as_xyz
  1  'x, y, z'
loop_
 _atom_site_type_symbol
 _atom_site_label
 _atom_site_symmetry_multiplicity
 _atom_site_fract_x
 _atom_site_fract_y
 _atom_site_fract_z
 _atom_site_occupancy
  O  O1  1  0.171702  0.850094  0.148226  1
  O  O2  1  0.828053  0.850094  0.148218  1
  O  O3  1  0.328091  0.350097  0.148226  1
  O  O4  1  0.671741  0.350098  0.148217  1
  O  O5  1  0.160202  0.050557  0.225676  1
  O  O6  1  0.160202  0.550557  0.434490  1
  O  O7  1  0.160201  0.449523  0.392298  1
  O  O8  1  0.160201  0.949524  0.183484  1
  O  O9  1  0.128836  0.000000  0.161026  1
  O  O10  1  0.128836  0.500036  0.369840  1
  O  O11  1  0.131381  0.250042  0.301536  1
  O  O12  1  0.131381  0.750042  0.510350  1
  O  O13  1  0.499872  0.071078  0.274534  1
  O  O14  1  0.499872  0.571078  0.483348  1
  O  O15  1  0.171704  0.149987  0.273467  1
  O  O16  1  0.171704  0.649987  0.482281  1
  O  O17  1  0.171702  0.350094  0.357040  1
  O  O18  1  0.171702  0.850094  0.565854  1
  O  O19  1  0.132872  0.321238  0.295170  1
  O  O20  1  0.132872  0.821237  0.503984  1
  O  O21  1  0.134482  0.085535  0.286541  1
  O  O22  1  0.134482  0.585535  0.495355  1
  O  O23  1  0.365272  0.085539  0.315740  1
  O  O24  1  0.365272  0.585539  0.524554  1
  O  O25  1  0.365272  0.414547  0.453145  1
  O  O26  1  0.365272  0.914547  0.244331  1
  O  O27  1  0.134482  0.414547  0.423948  1
  O  O28  1  0.134482  0.914547  0.215135  1
  O  O29  1  0.306306  0.084848  0.267443  1
  O  O30  1  0.306306  0.584848  0.476256  1
  O  O31  1  0.193443  0.084855  0.334265  1
  O  O32  1  0.193443  0.584855  0.543079  1
  O  O33  1  0.193445  0.415235  0.472244  1
  O  O34  1  0.193445  0.915235  0.263430  1
  O  O35  1  0.306305  0.415233  0.405423  1
  O  O36  1  0.306305  0.915233  0.196609  1
  O  O37  1  0.499873  0.429007  0.424017  1
  O  O38  1  0.499873  0.929006  0.215203  1
  O  O39  1  0.127464  -0.000000  0.277345  1
  O  O40  1  0.127464  0.500043  0.486159  1
  O  O41  1  0.372289  0.000000  0.253530  1
  O  O42  1  0.372289  0.500042  0.462343  1
  O  O43  1  0.132872  0.178849  0.235703  1
  O  O44  1  0.132872  0.678849  0.444517  1
  O  O45  1  0.839547  0.050557  0.225668  1
  O  O46  1  0.839547  0.550557  0.434482  1
  O  O47  1  0.839548  0.449524  0.392291  1
  O  O48  1  0.839548  0.949523  0.183477  1
  O  O49  1  0.000000  0.320860  0.329773  1
  O  O50  1  0.000000  0.820860  0.538587  1
  O  O51  1  0.000000  0.000000  0.197429  1
  O  O52  1  0.000000  0.500039  0.406242  1
  O  O53  1  0.868384  0.250041  0.301530  1
  O  O54  1  0.868384  0.750042  0.510344  1
  O  O55  1  0.828052  0.149987  0.273458  1
  O  O56  1  0.828052  0.649987  0.482272  1
  O  O57  1  0.828053  0.350094  0.357032  1
  O  O58  1  0.828053  0.850094  0.565846  1
  O  O59  1  0.866923  0.178849  0.235696  1
  O  O60  1  0.866923  0.678849  0.444510  1
  O  O61  1  0.634482  0.085538  0.315732  1
  O  O62  1  0.634482  0.585538  0.524545  1
  O  O63  1  0.865272  0.085536  0.286534  1
  O  O64  1  0.865272  0.585536  0.495347  1
  O  O65  1  0.865272  0.414546  0.423940  1
  O  O66  1  0.865272  0.914546  0.215126  1
  O  O67  1  0.634482  0.414550  0.453138  1
  O  O68  1  0.634482  0.914550  0.244324  1
  O  O69  1  0.806306  0.084853  0.334257  1
  O  O70  1  0.806306  0.584853  0.543070  1
  O  O71  1  0.693444  0.084851  0.267436  1
  O  O72  1  0.693444  0.584851  0.476250  1
  O  O73  1  0.693445  0.415231  0.405414  1
  O  O74  1  0.693445  0.915231  0.196601  1
  O  O75  1  0.806305  0.415237  0.472238  1
  O  O76  1  0.806305  0.915238  0.263424  1
  O  O77  1  0.000000  0.071079  0.315662  1
  O  O78  1  0.000000  0.571079  0.524476  1
  O  O79  1  0.000000  0.429008  0.465146  1
  O  O80  1  0.000000  0.929009  0.256332  1
  O  O81  1  0.627464  0.000000  0.253521  1
  O  O82  1  0.627464  0.500042  0.462334  1
  O  O83  1  0.872288  0.000000  0.277336  1
  O  O84  1  0.872288  0.500043  0.486150  1
  O  O85  1  0.000000  0.179223  0.270620  1
  O  O86  1  0.000000  0.679223  0.479434  1
  O  O87  1  0.866922  0.321238  0.295163  1
  O  O88  1  0.866922  0.821237  0.503977  1
  O  O89  1  0.870958  -0.000000  0.161020  1
  O  O90  1  0.870958  0.500035  0.369834  1
  O  O91  1  0.339590  0.050560  0.434494  1
  O  O92  1  0.339590  0.550561  0.225680  1
  O  O93  1  0.339544  0.050561  0.347389  1
  O  O94  1  0.339544  0.550561  0.556202  1
  O  O95  1  0.339552  0.449527  0.514010  1
  O  O96  1  0.339552  0.949527  0.305196  1
  O  O97  1  0.339594  0.449526  0.183483  1
  O  O98  1  0.339594  0.949526  0.392297  1
  O  O99  1  0.370958  0.000000  0.369845  1
  O  O100  1  0.370958  0.500048  0.161032  1
  O  O101  1  0.368413  0.250042  0.510350  1
  O  O102  1  0.368413  0.750042  0.301537  1
  O  O103  1  0.368384  0.250043  0.438149  1
  O  O104  1  0.368384  0.750043  0.229336  1
  O  O105  1  0.499912  0.179225  0.479435  1
  O  O106  1  0.499912  0.679224  0.270621  1
  O  O107  1  0.328091  0.149989  0.482283  1
  O  O108  1  0.328091  0.649989  0.273469  1
  O  O109  1  0.328053  0.149990  0.382648  1
  O  O110  1  0.328053  0.649990  0.173835  1
  O  O111  1  0.328052  0.350098  0.466220  1
  O  O112  1  0.328052  0.850098  0.257406  1
  O  O113  1  0.328091  0.350097  0.565853  1
  O  O114  1  0.328091  0.850097  0.357039  1
  O  O115  1  0.366923  0.178848  0.444517  1
  O  O116  1  0.366923  0.678848  0.235703  1
  O  O117  1  0.366922  0.321236  0.503983  1
  O  O118  1  0.366922  0.821237  0.295169  1
  O  O119  1  0.499915  -0.000000  0.406245  1
  O  O120  1  0.499915  0.500046  0.197431  1
  O  O121  1  0.499878  0.000000  0.333438  1
  O  O122  1  0.499878  0.500048  0.542252  1
  O  O123  1  0.499883  0.179224  0.409907  1
  O  O124  1  0.499883  0.679225  0.201093  1
  O  O125  1  0.499883  0.320862  0.469059  1
  O  O126  1  0.499883  0.820861  0.260245  1
  O  O127  1  0.499911  0.320861  0.538587  1
  O  O128  1  0.499911  0.820861  0.329773  1
  O  O129  1  0.660247  0.050561  0.434487  1
  O  O130  1  0.660247  0.550561  0.225673  1
  O  O131  1  0.660205  0.050561  0.347381  1
  O  O132  1  0.660205  0.550561  0.556195  1
  O  O133  1  0.660199  0.449527  0.514003  1
  O  O134  1  0.660199  0.949527  0.305189  1
  O  O135  1  0.660245  0.449527  0.183475  1
  O  O136  1  0.660245  0.949527  0.392289  1
  O  O137  1  0.628836  0.000000  0.369839  1
  O  O138  1  0.628836  0.500049  0.161026  1
  O  O139  1  0.631411  0.250043  0.510344  1
  O  O140  1  0.631411  0.750043  0.301530  1
  O  O141  1  0.631381  0.250043  0.438143  1
  O  O142  1  0.631381  0.750043  0.229329  1
  O  O143  1  0.671742  0.149990  0.482275  1
  O  O144  1  0.671742  0.649990  0.273461  1
  O  O145  1  0.671703  0.149990  0.382640  1
  O  O146  1  0.671703  0.649990  0.173826  1
  O  O147  1  0.671703  0.350097  0.466212  1
  O  O148  1  0.671703  0.850097  0.257398  1
  O  O149  1  0.671741  0.350097  0.565845  1
  O  O150  1  0.671741  0.850098  0.357031  1
  O  O151  1  0.632873  0.178848  0.444510  1
  O  O152  1  0.632873  0.678848  0.235697  1
  O  O153  1  0.632871  0.321237  0.503976  1
  O  O154  1  0.632871  0.821237  0.295162  1
  O  O155  1  0.160245  0.050560  0.556205  1
  O  O156  1  0.160245  0.550561  0.347392  1
  O  O157  1  0.160247  0.449527  0.305193  1
  O  O158  1  0.160247  0.949527  0.514007  1
  O  O159  1  0.131411  0.250045  0.229336  1
  O  O160  1  0.131411  0.750045  0.438150  1
  O  O161  1  0.171742  0.149990  0.173835  1
  O  O162  1  0.171742  0.649990  0.382649  1
  O  O163  1  0.171742  0.350097  0.257406  1
  O  O164  1  0.171742  0.850097  0.466220  1
  O  O165  1  0.134522  0.085537  0.524555  1
  O  O166  1  0.134522  0.585537  0.315741  1
  O  O167  1  0.365312  0.085539  0.495359  1
  O  O168  1  0.365312  0.585538  0.286545  1
  O  O169  1  0.365313  0.414550  0.215133  1
  O  O170  1  0.365313  0.914550  0.423947  1
  O  O171  1  0.134522  0.414545  0.244328  1
  O  O172  1  0.134522  0.914545  0.453142  1
  O  O173  1  0.306350  0.084852  0.543080  1
  O  O174  1  0.306350  0.584852  0.334267  1
  O  O175  1  0.193488  0.084852  0.476260  1
  O  O176  1  0.193488  0.584852  0.267446  1
  O  O177  1  0.193489  0.415237  0.196608  1
  O  O178  1  0.193489  0.915237  0.405422  1
  O  O179  1  0.306350  0.415232  0.263427  1
  O  O180  1  0.306350  0.915232  0.472240  1
  O  O181  1  0.499921  0.071078  0.524478  1
  O  O182  1  0.499921  0.571078  0.315664  1
  O  O183  1  0.499922  0.429007  0.256330  1
  O  O184  1  0.499922  0.929008  0.465143  1
  O  O185  1  0.127506  0.000000  0.462343  1
  O  O186  1  0.127506  0.500043  0.253529  1
  O  O187  1  0.372330  0.000000  0.486159  1
  O  O188  1  0.372330  0.500043  0.277345  1
  O  O189  1  0.839593  0.050560  0.556198  1
  O  O190  1  0.839593  0.550561  0.347384  1
  O  O191  1  0.839591  0.449526  0.305186  1
  O  O192  1  0.839591  0.949527  0.514000  1
  O  O193  1  0.868413  0.250045  0.229330  1
  O  O194  1  0.868413  0.750045  0.438144  1
  O  O195  1  0.000000  0.000000  0.542249  1
  O  O196  1  0.000000  0.500042  0.333435  1
  O  O197  1  -0.000000  0.320863  0.260246  1
  O  O198  1  0.000000  0.820863  0.469060  1
  O  O199  1  0.828091  0.149990  0.173827  1
  O  O200  1  0.828091  0.649990  0.382640  1
  O  O201  1  0.828091  0.350097  0.257397  1
  O  O202  1  0.828091  0.850097  0.466211  1
  O  O203  1  0.634522  0.085541  0.495352  1
  O  O204  1  0.634522  0.585541  0.286538  1
  O  O205  1  0.865312  0.085535  0.524547  1
  O  O206  1  0.865312  0.585535  0.315733  1
  O  O207  1  0.865312  0.414547  0.244320  1
  O  O208  1  0.865312  0.914546  0.453134  1
  O  O209  1  0.634521  0.414549  0.215125  1
  O  O210  1  0.634521  0.914549  0.423939  1
  O  O211  1  0.806350  0.084854  0.476253  1
  O  O212  1  0.806350  0.584854  0.267440  1
  O  O213  1  0.693488  0.084850  0.543072  1
  O  O214  1  0.693488  0.584850  0.334258  1
  O  O215  1  0.693488  0.415234  0.263420  1
  O  O216  1  0.693488  0.915234  0.472234  1
  O  O217  1  0.806350  0.415235  0.196599  1
  O  O218  1  0.806350  0.915234  0.405413  1
  O  O219  1  0.000000  0.071078  0.483350  1
  O  O220  1  0.000000  0.571078  0.274536  1
  O  O221  1  0.000000  0.429007  0.215202  1
  O  O222  1  0.000000  0.929007  0.424015  1
  O  O223  1  0.627506  -0.000000  0.486150  1
  O  O224  1  0.627506  0.500043  0.277337  1
  O  O225  1  0.872330  -0.000000  0.462334  1
  O  O226  1  0.872330  0.500043  0.253521  1
  O  O227  1  0.000000  0.179226  0.201093  1
  O  O228  1  0.000000  0.679226  0.409907  1
  O  O229  1  0.128836  0.000000  0.578654  1
  O  O230  1  0.870958  0.000000  0.578647  1
  O  O231  1  0.370958  0.500048  0.578659  1
  O  O232  1  0.328053  0.649990  0.591462  1
  O  O233  1  0.628836  0.500049  0.578653  1
  O  O234  1  0.671703  0.649990  0.591454  1
  O  O235  1  0.171742  0.149990  0.591463  1
  O  O236  1  0.828091  0.149990  0.591454  1
  Si  Si237  1  0.113094  -0.000000  0.191988  1
  Si  Si238  1  0.113094  0.500039  0.400802  1
  Si  Si239  1  0.113025  0.188943  0.270798  1
  Si  Si240  1  0.113025  0.688943  0.479612  1
  Si  Si241  1  0.113025  0.311140  0.321832  1
  Si  Si242  1  0.113025  0.811141  0.530646  1
  Si  Si243  1  0.195111  0.094793  0.263968  1
  Si  Si244  1  0.195111  0.594792  0.472782  1
  Si  Si245  1  0.195110  0.405288  0.393643  1
  Si  Si246  1  0.195110  0.905288  0.184829  1
  Si  Si247  1  0.112151  0.061825  0.305229  1
  Si  Si248  1  0.112151  0.561825  0.514043  1
  Si  Si249  1  0.387599  0.061824  0.277246  1
  Si  Si250  1  0.387599  0.561824  0.486060  1
  Si  Si251  1  0.387599  0.438260  0.434458  1
  Si  Si252  1  0.387599  0.938260  0.225644  1
  Si  Si253  1  0.112152  0.438262  0.462442  1
  Si  Si254  1  0.112152  0.938261  0.253628  1
  Si  Si255  1  0.886665  -0.000000  0.191982  1
  Si  Si256  1  0.886665  0.500039  0.400796  1
  Si  Si257  1  0.612151  0.438260  0.434450  1
  Si  Si258  1  0.612151  0.938260  0.225636  1
  Si  Si259  1  0.886744  0.188943  0.270793  1
  Si  Si260  1  0.886744  0.688943  0.479606  1
  Si  Si261  1  0.886743  0.311140  0.321827  1
  Si  Si262  1  0.886743  0.811141  0.530640  1
  Si  Si263  1  0.804640  0.094793  0.263961  1
  Si  Si264  1  0.804640  0.594793  0.472775  1
  Si  Si265  1  0.804641  0.405287  0.393635  1
  Si  Si266  1  0.804641  0.905288  0.184821  1
  Si  Si267  1  0.612151  0.061824  0.277239  1
  Si  Si268  1  0.612151  0.561824  0.486052  1
  Si  Si269  1  0.887599  0.061825  0.305221  1
  Si  Si270  1  0.887599  0.561825  0.514035  1
  Si  Si271  1  0.887599  0.438261  0.462434  1
  Si  Si272  1  0.887599  0.938262  0.253620  1
  Si  Si273  1  0.386770  0.188944  0.479613  1
  Si  Si274  1  0.386770  0.688944  0.270799  1
  Si  Si275  1  0.386744  0.188944  0.417853  1
  Si  Si276  1  0.386744  0.688944  0.209039  1
  Si  Si277  1  0.386743  0.311141  0.468886  1
  Si  Si278  1  0.386743  0.811141  0.260072  1
  Si  Si279  1  0.386769  0.311141  0.530646  1
  Si  Si280  1  0.386769  0.811141  0.321832  1
  Si  Si281  1  0.304683  0.094796  0.472786  1
  Si  Si282  1  0.304683  0.594796  0.263972  1
  Si  Si283  1  0.304640  0.094797  0.346045  1
  Si  Si284  1  0.304640  0.594797  0.554859  1
  Si  Si285  1  0.304641  0.405291  0.475718  1
  Si  Si286  1  0.304641  0.905292  0.266904  1
  Si  Si287  1  0.304684  0.405292  0.184828  1
  Si  Si288  1  0.304684  0.905292  0.393642  1
  Si  Si289  1  0.386699  0.000000  0.400804  1
  Si  Si290  1  0.386699  0.500045  0.191990  1
  Si  Si291  1  0.386666  0.000000  0.338883  1
  Si  Si292  1  0.386666  0.500046  0.547697  1
  Si  Si293  1  0.613095  0.000000  0.338878  1
  Si  Si294  1  0.613095  0.500046  0.547692  1
  Si  Si295  1  0.613128  -0.000000  0.400799  1
  Si  Si296  1  0.613128  0.500046  0.191985  1
  Si  Si297  1  0.695153  0.405292  0.184820  1
  Si  Si298  1  0.695153  0.905292  0.393634  1
  Si  Si299  1  0.695110  0.405292  0.475711  1
  Si  Si300  1  0.695110  0.905292  0.266897  1
  Si  Si301  1  0.695111  0.094797  0.346037  1
  Si  Si302  1  0.695111  0.594797  0.554851  1
  Si  Si303  1  0.613051  0.188944  0.479607  1
  Si  Si304  1  0.613051  0.688944  0.270793  1
  Si  Si305  1  0.613025  0.188944  0.417848  1
  Si  Si306  1  0.613025  0.688945  0.209034  1
  Si  Si307  1  0.613025  0.311142  0.468881  1
  Si  Si308  1  0.613025  0.811142  0.260067  1
  Si  Si309  1  0.613051  0.311141  0.530640  1
  Si  Si310  1  0.613051  0.811141  0.321827  1
  Si  Si311  1  0.695154  0.094797  0.472779  1
  Si  Si312  1  0.695154  0.594797  0.263965  1
  Si  Si313  1  0.112195  0.438261  0.225642  1
  Si  Si314  1  0.112195  0.938261  0.434456  1
  Si  Si315  1  0.113128  0.000000  0.547695  1
  Si  Si316  1  0.113128  0.500042  0.338881  1
  Si  Si317  1  0.113051  0.188945  0.209040  1
  Si  Si318  1  0.113051  0.688945  0.417853  1
  Si  Si319  1  0.113051  0.311143  0.260073  1
  Si  Si320  1  0.113051  0.811143  0.468887  1
  Si  Si321  1  0.195154  0.094796  0.554860  1
  Si  Si322  1  0.195154  0.594795  0.346046  1
  Si  Si323  1  0.195154  0.405290  0.266901  1
  Si  Si324  1  0.195154  0.905289  0.475715  1
  Si  Si325  1  0.112195  0.061824  0.486062  1
  Si  Si326  1  0.112195  0.561824  0.277248  1
  Si  Si327  1  0.387642  0.061825  0.514045  1
  Si  Si328  1  0.387642  0.561825  0.305231  1
  Si  Si329  1  0.387643  0.438261  0.253626  1
  Si  Si330  1  0.387643  0.938261  0.462439  1
  Si  Si331  1  0.886769  0.188946  0.209034  1
  Si  Si332  1  0.886769  0.688945  0.417848  1
  Si  Si333  1  0.886769  0.311143  0.260068  1
  Si  Si334  1  0.886769  0.811143  0.468882  1
  Si  Si335  1  0.804683  0.094794  0.554852  1
  Si  Si336  1  0.804683  0.594795  0.346038  1
  Si  Si337  1  0.804683  0.405290  0.266894  1
  Si  Si338  1  0.804683  0.905290  0.475707  1
  Si  Si339  1  0.612195  0.061825  0.514037  1
  Si  Si340  1  0.612195  0.561825  0.305224  1
  Si  Si341  1  0.887643  0.061824  0.486054  1
  Si  Si342  1  0.887643  0.561824  0.277240  1
  Si  Si343  1  0.887643  0.438261  0.225635  1
  Si  Si344  1  0.887643  0.938261  0.434449  1
  Si  Si345  1  0.612195  0.438261  0.253618  1
  Si  Si346  1  0.612195  0.938261  0.462432  1
  Si  Si347  1  0.886699  0.000000  0.547689  1
  Si  Si348  1  0.886699  0.500041  0.338876  1
  H  H349  1  0.171702  0.850094  0.130169  1
  H  H350  1  0.828053  0.850094  0.130160  1
  H  H351  1  0.328091  0.350097  0.130168  1
  H  H352  1  0.671741  0.350098  0.130160  1
  H  H353  1  0.128836  0.000000  0.142969  1
  H  H354  1  0.171702  0.850094  0.583911  1
  H  H355  1  0.828053  0.850094  0.583903  1
  H  H356  1  0.870958  -0.000000  0.142962  1
  H  H357  1  0.370958  0.500048  0.142974  1
  H  H358  1  0.328053  0.649990  0.155777  1
  H  H359  1  0.328091  0.350097  0.583911  1
  H  H360  1  0.628836  0.500049  0.142968  1
  H  H361  1  0.671703  0.649990  0.155769  1
  H  H362  1  0.671741  0.350097  0.583903  1
  H  H363  1  0.171742  0.149990  0.155777  1
  H  H364  1  0.828091  0.149990  0.155769  1
  H  H365  1  0.128836  0.000000  0.596711  1
  H  H366  1  0.870958  0.000000  0.596705  1
  H  H367  1  0.370958  0.500048  0.596717  1
  H  H368  1  0.328053  0.649990  0.609520  1
  H  H369  1  0.628836  0.500049  0.596711  1
  H  H370  1  0.671703  0.649990  0.609512  1
  H  H371  1  0.171742  0.149990  0.609520  1
  H  H372  1  0.828091  0.149990  0.609512  1
