# generated using pymatgen
data_Si14H2O29
_symmetry_space_group_name_H-M   'P 1'
_cell_length_a   12.80769475
_cell_length_b   12.63554297
_cell_length_c   43.20465178
_cell_angle_alpha   90.00000000
_cell_angle_beta   90.00000000
_cell_angle_gamma   90.00000000
_symmetry_Int_Tables_number   1
_chemical_formula_structural   Si14H2O29
_chemical_formula_sum   'Si56 H8 O116'
_cell_volume   6991.90286896
_cell_formula_units_Z   4
loop_
 _symmetry_equiv_pos_site_id
 _symmetry_equiv_pos_as_xyz
  1  'x, y, z'
loop_
 _atom_site_type_symbol
 _atom_site_label
 _atom_site_symmetry_multiplicity
 _atom_site_fract_x
 _atom_site_fract_y
 _atom_site_fract_z
 _atom_site_occupancy
  O  O1  1  0.658608  0.142426  0.221630  1
  O  O2  1  0.658598  0.857669  0.221632  1
  O  O3  1  0.780496  -0.000000  0.200823  1
  O  O4  1  0.811998  0.202824  0.184168  1
  O  O5  1  0.811986  0.797262  0.184170  1
  O  O6  1  0.790987  0.399315  0.190171  1
  O  O7  1  0.790991  0.600767  0.190169  1
  O  O8  1  0.354219  0.329294  0.208156  1
  O  O9  1  0.354217  0.670813  0.208157  1
  O  O10  1  0.835261  0.329889  0.136559  1
  O  O11  1  0.335265  0.329899  0.148047  1
  O  O12  1  0.335258  0.670232  0.148048  1
  O  O13  1  0.835272  0.670222  0.136560  1
  O  O14  1  0.971612  0.331749  0.180512  1
  O  O15  1  0.971613  0.668352  0.180517  1
  O  O16  1  0.316497  0.500058  0.179380  1
  O  O17  1  0.176462  0.361093  0.183740  1
  O  O18  1  0.176459  0.639014  0.183743  1
  O  O19  1  0.054055  0.500047  0.202721  1
  O  O20  1  0.654352  0.500051  0.222936  1
  O  O21  1  0.799626  0.142382  0.294745  1
  O  O22  1  0.799617  0.857700  0.294746  1
  O  O23  1  0.921772  -0.000000  0.273931  1
  O  O24  1  0.844399  0.137843  0.238528  1
  O  O25  1  0.844390  0.862238  0.238530  1
  O  O26  1  0.987351  0.201859  0.274287  1
  O  O27  1  0.987338  0.798214  0.274290  1
  O  O28  1  0.676855  0.000000  0.314912  1
  O  O29  1  0.611736  0.140563  0.278086  1
  O  O30  1  0.611726  0.859532  0.278087  1
  O  O31  1  0.651206  0.199441  0.333830  1
  O  O32  1  0.651197  0.800644  0.333832  1
  O  O33  1  0.537693  -0.000000  0.242567  1
  O  O34  1  0.471435  0.200805  0.239970  1
  O  O35  1  0.471422  0.799299  0.239973  1
  O  O36  1  0.800423  0.500030  0.295493  1
  O  O37  1  0.841972  0.500041  0.238946  1
  O  O38  1  0.962154  0.399455  0.275540  1
  O  O39  1  0.962152  0.600614  0.275544  1
  O  O40  1  0.609658  0.500046  0.280552  1
  O  O41  1  0.669442  0.398390  0.328384  1
  O  O42  1  0.669454  0.601694  0.328383  1
  O  O43  1  0.496666  0.398577  0.242563  1
  O  O44  1  0.496667  0.601527  0.242565  1
  O  O45  1  0.335673  0.325788  0.267027  1
  O  O46  1  0.335663  0.674301  0.267028  1
  O  O47  1  0.067635  0.326937  0.232590  1
  O  O48  1  0.067633  0.673145  0.232595  1
  O  O49  1  0.147639  0.332528  0.286334  1
  O  O50  1  0.147633  0.667550  0.286338  1
  O  O51  1  0.495686  0.329314  0.343729  1
  O  O52  1  0.495690  0.670753  0.343729  1
  O  O53  1  0.641674  0.329245  0.383284  1
  O  O54  1  0.641674  0.670825  0.383284  1
  O  O55  1  0.259214  0.500041  0.285212  1
  O  O56  1  0.306620  0.359912  0.324973  1
  O  O57  1  0.306622  0.640163  0.324974  1
  O  O58  1  0.400604  0.500033  0.356033  1
  O  O59  1  0.200265  0.142373  0.473799  1
  O  O60  1  0.200271  0.857692  0.473798  1
  O  O61  1  0.078119  -0.000000  0.494613  1
  O  O62  1  0.155496  0.137831  0.530016  1
  O  O63  1  0.155503  0.862226  0.530014  1
  O  O64  1  0.012544  0.201851  0.494257  1
  O  O65  1  0.012551  0.798207  0.494254  1
  O  O66  1  0.323034  -0.000000  0.453630  1
  O  O67  1  0.388157  0.140553  0.490457  1
  O  O68  1  0.388165  0.859522  0.490455  1
  O  O69  1  0.348683  0.199433  0.434712  1
  O  O70  1  0.348689  0.800637  0.434711  1
  O  O71  1  0.462201  -0.000000  0.525974  1
  O  O72  1  0.528461  0.200792  0.528572  1
  O  O73  1  0.528472  0.799287  0.528569  1
  O  O74  1  0.199471  0.500028  0.473051  1
  O  O75  1  0.157922  0.500032  0.529598  1
  O  O76  1  0.037740  0.399448  0.493002  1
  O  O77  1  0.037741  0.600608  0.493001  1
  O  O78  1  0.390237  0.500041  0.487992  1
  O  O79  1  0.330446  0.398382  0.440161  1
  O  O80  1  0.330440  0.601685  0.440160  1
  O  O81  1  0.503230  0.398564  0.525979  1
  O  O82  1  0.503230  0.601514  0.525981  1
  O  O83  1  0.664225  0.325777  0.501516  1
  O  O84  1  0.664229  0.674288  0.501516  1
  O  O85  1  0.932262  0.326929  0.535953  1
  O  O86  1  0.932263  0.673135  0.535951  1
  O  O87  1  0.852256  0.332519  0.482209  1
  O  O88  1  0.852260  0.667541  0.482207  1
  O  O89  1  0.504201  0.329311  0.424813  1
  O  O90  1  0.504201  0.670751  0.424814  1
  O  O91  1  0.358212  0.329246  0.385260  1
  O  O92  1  0.358217  0.670824  0.385260  1
  O  O93  1  0.740680  0.500030  0.483331  1
  O  O94  1  0.693270  0.359905  0.443569  1
  O  O95  1  0.693271  0.640157  0.443568  1
  O  O96  1  0.599285  0.500031  0.412510  1
  O  O97  1  0.341289  0.142412  0.546912  1
  O  O98  1  0.341298  0.857655  0.546910  1
  O  O99  1  0.219402  -0.000000  0.567720  1
  O  O100  1  0.187901  0.202808  0.584375  1
  O  O101  1  0.187915  0.797248  0.584373  1
  O  O102  1  0.208909  0.399298  0.578372  1
  O  O103  1  0.208909  0.600751  0.578376  1
  O  O104  1  0.645676  0.329280  0.560387  1
  O  O105  1  0.645683  0.670807  0.560387  1
  O  O106  1  0.664644  0.329887  0.620496  1
  O  O107  1  0.164650  0.329876  0.631984  1
  O  O108  1  0.164642  0.670208  0.631984  1
  O  O109  1  0.664650  0.670219  0.620495  1
  O  O110  1  0.028285  0.331734  0.588031  1
  O  O111  1  0.028289  0.668338  0.588028  1
  O  O112  1  0.683401  0.500046  0.589162  1
  O  O113  1  0.823435  0.361082  0.584801  1
  O  O114  1  0.823440  0.639000  0.584801  1
  O  O115  1  0.945847  0.500035  0.565823  1
  O  O116  1  0.345545  0.500035  0.545606  1
  Si  Si117  1  0.773266  0.121568  0.209346  1
  Si  Si118  1  0.773256  0.878520  0.209348  1
  Si  Si119  1  0.768435  0.500044  0.210025  1
  Si  Si120  1  0.853468  0.312677  0.172007  1
  Si  Si121  1  0.853469  0.687416  0.172009  1
  Si  Si122  1  0.297313  0.377652  0.179487  1
  Si  Si123  1  0.297311  0.622466  0.179487  1
  Si  Si124  1  0.066740  0.377145  0.199375  1
  Si  Si125  1  0.066740  0.622950  0.199378  1
  Si  Si126  1  0.385935  0.622946  0.352404  1
  Si  Si127  1  0.893174  0.121542  0.271531  1
  Si  Si128  1  0.893165  0.878534  0.271533  1
  Si  Si129  1  0.684646  0.121808  0.306908  1
  Si  Si130  1  0.684636  0.878276  0.306910  1
  Si  Si131  1  0.565088  0.121758  0.244843  1
  Si  Si132  1  0.565078  0.878341  0.244845  1
  Si  Si133  1  0.892571  0.500034  0.271935  1
  Si  Si134  1  0.687014  0.500042  0.308651  1
  Si  Si135  1  0.563218  0.500053  0.247059  1
  Si  Si136  1  0.412810  0.310219  0.239334  1
  Si  Si137  1  0.412804  0.689882  0.239336  1
  Si  Si138  1  0.043734  0.310966  0.267945  1
  Si  Si139  1  0.043726  0.689109  0.267950  1
  Si  Si140  1  0.616333  0.309216  0.347888  1
  Si  Si141  1  0.616336  0.690863  0.347888  1
  Si  Si142  1  0.260943  0.377532  0.291461  1
  Si  Si143  1  0.260941  0.622550  0.291462  1
  Si  Si144  1  0.385930  0.377125  0.352404  1
  Si  Si145  1  0.613957  0.622943  0.416140  1
  Si  Si146  1  0.106720  0.121535  0.497013  1
  Si  Si147  1  0.106724  0.878525  0.497011  1
  Si  Si148  1  0.315246  0.121802  0.461635  1
  Si  Si149  1  0.315252  0.878269  0.461633  1
  Si  Si150  1  0.434808  0.121747  0.523700  1
  Si  Si151  1  0.434817  0.878329  0.523698  1
  Si  Si152  1  0.107323  0.500029  0.496609  1
  Si  Si153  1  0.312880  0.500035  0.459893  1
  Si  Si154  1  0.436677  0.500040  0.521484  1
  Si  Si155  1  0.587085  0.310206  0.529209  1
  Si  Si156  1  0.587092  0.689870  0.529208  1
  Si  Si157  1  0.956162  0.310961  0.500598  1
  Si  Si158  1  0.956164  0.689100  0.500595  1
  Si  Si159  1  0.383554  0.309211  0.420655  1
  Si  Si160  1  0.383556  0.690856  0.420654  1
  Si  Si161  1  0.738950  0.377523  0.477081  1
  Si  Si162  1  0.738952  0.622540  0.477080  1
  Si  Si163  1  0.613957  0.377123  0.416140  1
  Si  Si164  1  0.226632  0.121555  0.559198  1
  Si  Si165  1  0.226640  0.878505  0.559196  1
  Si  Si166  1  0.231460  0.500028  0.558519  1
  Si  Si167  1  0.146430  0.312663  0.596537  1
  Si  Si168  1  0.146433  0.687400  0.596536  1
  Si  Si169  1  0.702586  0.377640  0.589054  1
  Si  Si170  1  0.702590  0.622454  0.589055  1
  Si  Si171  1  0.933162  0.377134  0.569169  1
  Si  Si172  1  0.933162  0.622937  0.569167  1
  H  H173  1  0.835261  0.329889  0.115728  1
  H  H174  1  0.335265  0.329899  0.127216  1
  H  H175  1  0.335258  0.670232  0.127217  1
  H  H176  1  0.835272  0.670222  0.115729  1
  H  H177  1  0.664644  0.329887  0.641327  1
  H  H178  1  0.164650  0.329876  0.652815  1
  H  H179  1  0.164642  0.670208  0.652815  1
  H  H180  1  0.664650  0.670219  0.641327  1
