# generated using pymatgen
data_Si22H2O45
_symmetry_space_group_name_H-M   'P 1'
_cell_length_a   12.87085738
_cell_length_b   12.87068762
_cell_length_c   54.78768192
_cell_angle_alpha   90.00000000
_cell_angle_beta   90.00000000
_cell_angle_gamma   90.00000000
_symmetry_Int_Tables_number   1
_chemical_formula_structural   Si22H2O45
_chemical_formula_sum   'Si88 H8 O180'
_cell_volume   9075.95122981
_cell_formula_units_Z   4
loop_
 _symmetry_equiv_pos_site_id
 _symmetry_equiv_pos_as_xyz
  1  'x, y, z'
loop_
 _atom_site_type_symbol
 _atom_site_label
 _atom_site_symmetry_multiplicity
 _atom_site_fract_x
 _atom_site_fract_y
 _atom_site_fract_z
 _atom_site_occupancy
  O  O1  1  0.866979  0.135367  0.176850  1
  O  O2  1  0.133066  0.135323  0.176846  1
  O  O3  1  0.000000  0.139122  0.209906  1
  O  O4  1  0.000000  0.139135  0.143789  1
  O  O5  1  0.808013  0.201919  0.217831  1
  O  O6  1  0.192060  0.201875  0.217828  1
  O  O7  1  0.807986  0.201939  0.135870  1
  O  O8  1  0.192034  0.201887  0.135864  1
  O  O9  1  0.831745  0.399336  0.137191  1
  O  O10  1  0.168220  0.399276  0.137193  1
  O  O11  1  0.831758  0.399315  0.216507  1
  O  O12  1  0.168240  0.399266  0.216512  1
  O  O13  1  0.669435  0.329674  0.153528  1
  O  O14  1  0.330559  0.329650  0.153522  1
  O  O15  1  0.669443  0.329643  0.200172  1
  O  O16  1  0.330559  0.329650  0.200169  1
  O  O17  1  0.693407  0.323603  0.107696  1
  O  O18  1  0.306559  0.323598  0.107688  1
  O  O19  1  0.693441  0.323587  0.246004  1
  O  O20  1  0.306614  0.323565  0.246003  1
  O  O21  1  0.000000  0.499889  0.210312  1
  O  O22  1  -0.000000  0.499905  0.143394  1
  O  O23  1  0.499993  0.357751  0.176849  1
  O  O24  1  0.367423  0.499895  0.176845  1
  O  O25  1  0.868138  0.499921  0.176852  1
  O  O26  1  0.632553  0.499904  0.176857  1
  O  O27  1  0.131856  0.499868  0.176853  1
  O  O28  1  0.358648  0.499832  0.325521  1
  O  O29  1  0.000000  0.140502  0.375521  1
  O  O30  1  0.202055  0.191922  0.367756  1
  O  O31  1  0.798025  0.191824  0.367752  1
  O  O32  1  0.399440  0.168066  0.369089  1
  O  O33  1  0.600630  0.168115  0.369079  1
  O  O34  1  0.329847  0.330434  0.385412  1
  O  O35  1  0.670342  0.330402  0.385417  1
  O  O36  1  0.323791  0.306405  0.339581  1
  O  O37  1  0.676366  0.306434  0.339582  1
  O  O38  1  0.641485  0.499849  0.325518  1
  O  O39  1  0.640704  0.359214  0.292792  1
  O  O40  1  0.359401  0.359196  0.292793  1
  O  O41  1  0.367088  0.499859  0.260827  1
  O  O42  1  0.500071  0.366912  0.324759  1
  O  O43  1  0.500032  0.358455  0.260068  1
  O  O44  1  0.632952  0.499881  0.260827  1
  O  O45  1  0.133029  0.864409  0.176847  1
  O  O46  1  0.866934  0.864462  0.176851  1
  O  O47  1  0.000000  0.860647  0.209906  1
  O  O48  1  0.000000  0.860660  0.143791  1
  O  O49  1  0.140638  -0.000000  0.143633  1
  O  O50  1  0.192011  0.797852  0.217832  1
  O  O51  1  0.807967  0.797901  0.217834  1
  O  O52  1  0.191982  0.797858  0.135863  1
  O  O53  1  0.807930  0.797913  0.135871  1
  O  O54  1  0.168242  0.600466  0.137194  1
  O  O55  1  0.831756  0.600528  0.137196  1
  O  O56  1  0.168243  0.600459  0.216514  1
  O  O57  1  0.831763  0.600511  0.216511  1
  O  O58  1  0.330541  0.670155  0.153530  1
  O  O59  1  0.669417  0.670143  0.153531  1
  O  O60  1  0.330549  0.670116  0.200177  1
  O  O61  1  0.669430  0.670152  0.200177  1
  O  O62  1  0.306570  0.676176  0.107695  1
  O  O63  1  0.693398  0.676191  0.107699  1
  O  O64  1  0.306583  0.676162  0.246011  1
  O  O65  1  0.693419  0.676193  0.246009  1
  O  O66  1  0.499982  0.642049  0.176854  1
  O  O67  1  0.859365  0.000000  0.210064  1
  O  O68  1  0.140667  -0.000000  0.210059  1
  O  O69  1  0.859334  0.000000  0.143636  1
  O  O70  1  0.860846  0.000000  0.375679  1
  O  O71  1  0.139318  0.000000  0.375675  1
  O  O72  1  -0.000000  0.859195  0.375522  1
  O  O73  1  0.798119  0.807774  0.367756  1
  O  O74  1  0.202150  0.807873  0.367756  1
  O  O75  1  0.600739  0.831620  0.369086  1
  O  O76  1  0.399550  0.831603  0.369079  1
  O  O77  1  0.670347  0.669275  0.385419  1
  O  O78  1  0.329865  0.669312  0.385419  1
  O  O79  1  0.676369  0.693259  0.339584  1
  O  O80  1  0.323789  0.693259  0.339587  1
  O  O81  1  0.359387  0.640492  0.292798  1
  O  O82  1  0.640684  0.640516  0.292796  1
  O  O83  1  0.500061  0.632767  0.324764  1
  O  O84  1  0.500009  0.641285  0.260072  1
  O  O85  1  0.500106  0.000000  0.375284  1
  O  O86  1  0.500081  0.131718  0.408744  1
  O  O87  1  0.000000  0.140520  0.441948  1
  O  O88  1  0.202048  0.191936  0.449713  1
  O  O89  1  0.798028  0.191845  0.449723  1
  O  O90  1  0.399439  0.168088  0.448397  1
  O  O91  1  0.600632  0.168126  0.448408  1
  O  O92  1  0.329844  0.330426  0.432057  1
  O  O93  1  0.670324  0.330407  0.432064  1
  O  O94  1  0.323752  0.306467  0.477890  1
  O  O95  1  0.676361  0.306466  0.477898  1
  O  O96  1  0.641461  0.499880  0.491963  1
  O  O97  1  0.500092  0.367290  0.408736  1
  O  O98  1  0.359367  0.359237  0.524678  1
  O  O99  1  0.640661  0.359235  0.524686  1
  O  O100  1  0.500043  0.366949  0.492713  1
  O  O101  1  0.499987  0.358469  0.557407  1
  O  O102  1  0.642249  0.499844  0.408742  1
  O  O103  1  0.358635  0.499888  0.491956  1
  O  O104  1  0.357951  0.499868  0.408740  1
  O  O105  1  0.632915  0.499888  0.556654  1
  O  O106  1  0.367059  0.499886  0.556648  1
  O  O107  1  0.135485  0.132941  0.408734  1
  O  O108  1  0.864576  0.132870  0.408736  1
  O  O109  1  0.866979  0.135367  0.640627  1
  O  O110  1  0.133066  0.135323  0.640623  1
  O  O111  1  0.000000  0.139122  0.673683  1
  O  O112  1  0.000000  0.139135  0.607567  1
  O  O113  1  0.808013  0.201919  0.681609  1
  O  O114  1  0.192060  0.201875  0.681605  1
  O  O115  1  0.807986  0.201939  0.599648  1
  O  O116  1  0.192034  0.201887  0.599642  1
  O  O117  1  0.831745  0.399336  0.600969  1
  O  O118  1  0.168220  0.399276  0.600970  1
  O  O119  1  0.831758  0.399315  0.680285  1
  O  O120  1  0.168240  0.399266  0.680289  1
  O  O121  1  0.669435  0.329674  0.617305  1
  O  O122  1  0.330559  0.329650  0.617299  1
  O  O123  1  0.669443  0.329643  0.663949  1
  O  O124  1  0.330559  0.329650  0.663947  1
  O  O125  1  0.693407  0.323603  0.571474  1
  O  O126  1  0.306559  0.323598  0.571466  1
  O  O127  1  0.693441  0.323587  0.709781  1
  O  O128  1  0.306614  0.323565  0.709781  1
  O  O129  1  0.000000  0.499889  0.674090  1
  O  O130  1  -0.000000  0.499905  0.607171  1
  O  O131  1  0.499993  0.357751  0.640627  1
  O  O132  1  0.367423  0.499895  0.640623  1
  O  O133  1  0.868138  0.499921  0.640630  1
  O  O134  1  0.632553  0.499904  0.640634  1
  O  O135  1  0.131856  0.499868  0.640631  1
  O  O136  1  0.860840  0.000000  0.441793  1
  O  O137  1  0.000000  0.859218  0.441950  1
  O  O138  1  0.798122  0.807794  0.449722  1
  O  O139  1  0.202140  0.807899  0.449718  1
  O  O140  1  0.600741  0.831630  0.448398  1
  O  O141  1  0.399544  0.831621  0.448401  1
  O  O142  1  0.670349  0.669279  0.432067  1
  O  O143  1  0.329859  0.669319  0.432063  1
  O  O144  1  0.676377  0.693285  0.477900  1
  O  O145  1  0.323771  0.693308  0.477894  1
  O  O146  1  0.139315  0.000000  0.441792  1
  O  O147  1  0.500107  0.632421  0.408743  1
  O  O148  1  0.640671  0.640535  0.524688  1
  O  O149  1  0.359370  0.640538  0.524683  1
  O  O150  1  0.500052  0.632819  0.492719  1
  O  O151  1  0.500126  0.868000  0.408742  1
  O  O152  1  0.499989  0.641305  0.557410  1
  O  O153  1  0.500106  0.000000  0.442202  1
  O  O154  1  0.135579  0.866856  0.408735  1
  O  O155  1  0.864672  0.866769  0.408737  1
  O  O156  1  0.133029  0.864409  0.640625  1
  O  O157  1  0.866934  0.864462  0.640628  1
  O  O158  1  0.000000  0.860647  0.673684  1
  O  O159  1  -0.000000  0.860660  0.607569  1
  O  O160  1  0.140638  0.000000  0.607410  1
  O  O161  1  0.192011  0.797852  0.681610  1
  O  O162  1  0.807967  0.797901  0.681612  1
  O  O163  1  0.191982  0.797858  0.599641  1
  O  O164  1  0.807930  0.797913  0.599649  1
  O  O165  1  0.168242  0.600466  0.600972  1
  O  O166  1  0.831756  0.600528  0.600974  1
  O  O167  1  0.168243  0.600459  0.680292  1
  O  O168  1  0.831763  0.600511  0.680288  1
  O  O169  1  0.330541  0.670155  0.617308  1
  O  O170  1  0.669417  0.670143  0.617309  1
  O  O171  1  0.330549  0.670116  0.663955  1
  O  O172  1  0.669430  0.670152  0.663955  1
  O  O173  1  0.306570  0.676176  0.571473  1
  O  O174  1  0.693398  0.676191  0.571476  1
  O  O175  1  0.306583  0.676162  0.709789  1
  O  O176  1  0.693419  0.676193  0.709786  1
  O  O177  1  0.499982  0.642049  0.640632  1
  O  O178  1  0.859365  -0.000000  0.673842  1
  O  O179  1  0.140667  0.000000  0.673837  1
  O  O180  1  0.859334  0.000000  0.607414  1
  Si  Si181  1  0.380775  0.378462  0.176846  1
  Si  Si182  1  0.619209  0.378470  0.176852  1
  Si  Si183  1  0.119119  0.499876  0.148369  1
  Si  Si184  1  0.119126  0.499867  0.205338  1
  Si  Si185  1  0.880869  0.499924  0.148367  1
  Si  Si186  1  0.751167  0.309710  0.132840  1
  Si  Si187  1  0.248823  0.309676  0.132834  1
  Si  Si188  1  0.751185  0.309685  0.220859  1
  Si  Si189  1  0.248848  0.309662  0.220861  1
  Si  Si190  1  0.880396  0.119450  0.205034  1
  Si  Si191  1  0.119667  0.119412  0.205030  1
  Si  Si192  1  0.880371  0.119464  0.148665  1
  Si  Si193  1  0.119643  0.119422  0.148662  1
  Si  Si194  1  0.880876  0.499914  0.205336  1
  Si  Si195  1  0.620272  0.380283  0.320829  1
  Si  Si196  1  0.500060  0.118979  0.380259  1
  Si  Si197  1  0.309857  0.248686  0.364727  1
  Si  Si198  1  0.690270  0.248674  0.364725  1
  Si  Si199  1  0.119588  0.119522  0.380549  1
  Si  Si200  1  0.880498  0.119453  0.380552  1
  Si  Si201  1  0.619596  0.379677  0.264758  1
  Si  Si202  1  0.380464  0.379657  0.264757  1
  Si  Si203  1  0.379868  0.380268  0.320828  1
  Si  Si204  1  0.619200  0.621338  0.176855  1
  Si  Si205  1  0.380766  0.621329  0.176852  1
  Si  Si206  1  0.248815  0.690091  0.132838  1
  Si  Si207  1  0.751143  0.690123  0.132842  1
  Si  Si208  1  0.248825  0.690079  0.220868  1
  Si  Si209  1  0.751165  0.690120  0.220865  1
  Si  Si210  1  0.119634  0.880318  0.205031  1
  Si  Si211  1  0.880361  0.880359  0.205034  1
  Si  Si212  1  0.119607  0.880329  0.148663  1
  Si  Si213  1  0.880334  0.880372  0.148666  1
  Si  Si214  1  0.379860  0.619401  0.320832  1
  Si  Si215  1  0.620263  0.619416  0.320831  1
  Si  Si216  1  0.500133  0.880727  0.380257  1
  Si  Si217  1  0.690322  0.750997  0.364728  1
  Si  Si218  1  0.309912  0.751037  0.364728  1
  Si  Si219  1  0.880576  0.880178  0.380553  1
  Si  Si220  1  0.119667  0.880248  0.380551  1
  Si  Si221  1  0.380445  0.620061  0.264762  1
  Si  Si222  1  0.619578  0.620081  0.264761  1
  Si  Si223  1  0.621527  0.380627  0.408740  1
  Si  Si224  1  0.500059  0.118991  0.437228  1
  Si  Si225  1  0.378660  0.380649  0.408736  1
  Si  Si226  1  0.309844  0.248707  0.452747  1
  Si  Si227  1  0.690272  0.248690  0.452757  1
  Si  Si228  1  0.119584  0.119539  0.436918  1
  Si  Si229  1  0.880493  0.119471  0.436920  1
  Si  Si230  1  0.379841  0.380319  0.496644  1
  Si  Si231  1  0.620242  0.380313  0.496649  1
  Si  Si232  1  0.619554  0.379687  0.552720  1
  Si  Si233  1  0.380423  0.379685  0.552715  1
  Si  Si234  1  0.380775  0.378462  0.640623  1
  Si  Si235  1  0.619209  0.378470  0.640629  1
  Si  Si236  1  0.119119  0.499876  0.612146  1
  Si  Si237  1  0.119126  0.499867  0.669116  1
  Si  Si238  1  0.880869  0.499924  0.612145  1
  Si  Si239  1  0.751167  0.309710  0.596617  1
  Si  Si240  1  0.248823  0.309676  0.596612  1
  Si  Si241  1  0.751185  0.309685  0.684637  1
  Si  Si242  1  0.248848  0.309662  0.684639  1
  Si  Si243  1  0.880396  0.119450  0.668811  1
  Si  Si244  1  0.119667  0.119412  0.668808  1
  Si  Si245  1  0.880371  0.119464  0.612443  1
  Si  Si246  1  0.119643  0.119422  0.612440  1
  Si  Si247  1  0.880876  0.499914  0.669114  1
  Si  Si248  1  0.380425  0.620089  0.552719  1
  Si  Si249  1  0.379849  0.619452  0.496649  1
  Si  Si250  1  0.500136  0.880739  0.437227  1
  Si  Si251  1  0.619557  0.620091  0.552723  1
  Si  Si252  1  0.690330  0.751014  0.452755  1
  Si  Si253  1  0.309899  0.751063  0.452750  1
  Si  Si254  1  0.880572  0.880195  0.436921  1
  Si  Si255  1  0.119662  0.880266  0.436919  1
  Si  Si256  1  0.620252  0.619448  0.496652  1
  Si  Si257  1  0.378673  0.619084  0.408742  1
  Si  Si258  1  0.621539  0.619063  0.408743  1
  Si  Si259  1  0.619200  0.621338  0.640633  1
  Si  Si260  1  0.380766  0.621329  0.640629  1
  Si  Si261  1  0.248815  0.690091  0.596616  1
  Si  Si262  1  0.751143  0.690123  0.596620  1
  Si  Si263  1  0.248825  0.690079  0.684646  1
  Si  Si264  1  0.751165  0.690120  0.684643  1
  Si  Si265  1  0.119634  0.880318  0.668809  1
  Si  Si266  1  0.880361  0.880359  0.668812  1
  Si  Si267  1  0.119607  0.880329  0.612441  1
  Si  Si268  1  0.880334  0.880372  0.612444  1
  H  H269  1  0.693407  0.323603  0.091269  1
  H  H270  1  0.306559  0.323598  0.091261  1
  H  H271  1  0.306570  0.676176  0.091268  1
  H  H272  1  0.693398  0.676191  0.091272  1
  H  H273  1  0.693441  0.323587  0.726208  1
  H  H274  1  0.306614  0.323565  0.726208  1
  H  H275  1  0.306583  0.676162  0.726216  1
  H  H276  1  0.693419  0.676193  0.726214  1
