# generated using pymatgen
data_Si23H2O47
_symmetry_space_group_name_H-M   'P 1'
_cell_length_a   12.27583869
_cell_length_b   28.16119110
_cell_length_c   82.46728743
_cell_angle_alpha   50.13120226
_cell_angle_beta   90.00000000
_cell_angle_gamma   64.06390339
_symmetry_Int_Tables_number   1
_chemical_formula_structural   Si23H2O47
_chemical_formula_sum   'Si184 H16 O376'
_cell_volume   17980.8110889
_cell_formula_units_Z   8
loop_
 _symmetry_equiv_pos_site_id
 _symmetry_equiv_pos_as_xyz
  1  'x, y, z'
loop_
 _atom_site_type_symbol
 _atom_site_label
 _atom_site_symmetry_multiplicity
 _atom_site_fract_x
 _atom_site_fract_y
 _atom_site_fract_z
 _atom_site_occupancy
  O  O1  1  0.499971  0.000000  0.253967  1
  O  O2  1  0.446550  0.400144  0.148520  1
  O  O3  1  0.553356  0.099908  0.240787  1
  O  O4  1  0.691051  0.496571  0.150040  1
  O  O5  1  0.308871  0.003476  0.239267  1
  O  O6  1  0.548677  0.393912  0.176646  1
  O  O7  1  0.451240  0.106136  0.212661  1
  O  O8  1  0.934092  0.409358  0.179508  1
  O  O9  1  0.738001  0.471585  0.185333  1
  O  O10  1  0.771581  0.367058  0.189265  1
  O  O11  1  0.112106  0.392675  0.202214  1
  O  O12  1  0.165538  0.362637  0.178556  1
  O  O13  1  0.834351  0.137410  0.210752  1
  O  O14  1  0.663279  0.321472  0.217845  1
  O  O15  1  0.738851  0.258937  0.202916  1
  O  O16  1  0.261060  0.241116  0.186392  1
  O  O17  1  0.355151  0.320009  0.166963  1
  O  O18  1  0.644737  0.180049  0.222343  1
  O  O19  1  0.517977  0.186466  0.247206  1
  O  O20  1  0.397743  0.243193  0.208465  1
  O  O21  1  0.602126  0.256866  0.180837  1
  O  O22  1  0.065809  0.090696  0.209803  1
  O  O23  1  0.065771  0.090738  0.139801  1
  O  O24  1  0.261865  0.028482  0.203972  1
  O  O25  1  0.261858  0.028501  0.172872  1
  O  O26  1  0.228330  0.132992  0.200043  1
  O  O27  1  0.228294  0.133028  0.131043  1
  O  O28  1  0.887796  0.107404  0.187088  1
  O  O29  1  0.887742  0.107432  0.155199  1
  O  O30  1  0.336633  0.178586  0.171460  1
  O  O31  1  0.336614  0.178599  0.139671  1
  O  O32  1  0.481900  0.313605  0.142097  1
  O  O33  1  0.481930  0.313611  0.109925  1
  O  O34  1  0.547600  0.085096  0.176031  1
  O  O35  1  0.770794  0.062320  0.181018  1
  O  O36  1  0.456220  0.223414  0.145752  1
  O  O37  1  0.677143  0.201659  0.150519  1
  O  O38  1  0.000000  -0.000000  0.158453  1
  O  O39  1  0.000000  0.000000  0.230845  1
  O  O40  1  0.446561  0.400164  0.284514  1
  O  O41  1  0.553297  0.099954  0.104779  1
  O  O42  1  0.691036  0.496598  0.240775  1
  O  O43  1  0.308821  0.003516  0.148518  1
  O  O44  1  0.548649  0.393948  0.259110  1
  O  O45  1  0.451199  0.106173  0.130181  1
  O  O46  1  0.934088  0.409380  0.249493  1
  O  O47  1  0.738012  0.471598  0.216426  1
  O  O48  1  0.771563  0.367085  0.258252  1
  O  O49  1  0.112124  0.392670  0.234097  1
  O  O50  1  0.165517  0.362684  0.270895  1
  O  O51  1  0.834339  0.137433  0.118398  1
  O  O52  1  0.663255  0.321495  0.249628  1
  O  O53  1  0.738817  0.258965  0.291935  1
  O  O54  1  0.261026  0.241151  0.097362  1
  O  O55  1  0.355153  0.320036  0.301154  1
  O  O56  1  0.517931  0.186489  0.279372  1
  O  O57  1  0.397726  0.243232  0.293273  1
  O  O58  1  0.322736  0.298433  0.238780  1
  O  O59  1  0.452300  0.414978  0.213270  1
  O  O60  1  0.229093  0.437771  0.208283  1
  O  O61  1  0.543676  0.276666  0.243546  1
  O  O62  1  0.499908  0.000000  0.135329  1
  O  O63  1  0.397754  0.743198  0.293281  1
  O  O64  1  0.000000  0.500026  0.158459  1
  O  O65  1  0.553346  0.599913  0.104788  1
  O  O66  1  0.446589  0.900130  0.284518  1
  O  O67  1  0.308867  0.503486  0.148528  1
  O  O68  1  0.691054  0.996567  0.240777  1
  O  O69  1  0.451246  0.606141  0.130189  1
  O  O70  1  0.548684  0.893908  0.259117  1
  O  O71  1  0.065819  0.590704  0.139809  1
  O  O72  1  0.261890  0.528488  0.172877  1
  O  O73  1  0.228339  0.633002  0.131050  1
  O  O74  1  0.887795  0.607400  0.155207  1
  O  O75  1  0.834385  0.637403  0.118405  1
  O  O76  1  0.165551  0.862644  0.270899  1
  O  O77  1  0.336649  0.678593  0.139671  1
  O  O78  1  0.261074  0.741122  0.097363  1
  O  O79  1  0.738863  0.758931  0.291937  1
  O  O80  1  0.355180  0.820003  0.301157  1
  O  O81  1  0.481946  0.813591  0.109926  1
  O  O82  1  0.499958  0.500027  0.135339  1
  O  O83  1  0.934077  0.909386  0.179493  1
  O  O84  1  0.934102  0.909348  0.249496  1
  O  O85  1  0.738009  0.971610  0.185322  1
  O  O86  1  0.738023  0.971579  0.216425  1
  O  O87  1  0.771549  0.867095  0.189254  1
  O  O88  1  0.771585  0.867053  0.258254  1
  O  O89  1  0.112098  0.892671  0.202210  1
  O  O90  1  0.112105  0.892667  0.234093  1
  O  O91  1  0.663237  0.821504  0.217837  1
  O  O92  1  0.663257  0.821479  0.249629  1
  O  O93  1  0.517954  0.686486  0.247202  1
  O  O94  1  0.517968  0.686470  0.279375  1
  O  O95  1  0.452269  0.914990  0.213267  1
  O  O96  1  0.229073  0.937769  0.208278  1
  O  O97  1  0.543642  0.776674  0.243544  1
  O  O98  1  0.322722  0.798427  0.238783  1
  O  O99  1  0.553327  0.599949  0.240778  1
  O  O100  1  0.446547  0.900169  0.148512  1
  O  O101  1  0.308841  0.503515  0.239262  1
  O  O102  1  0.691015  0.996605  0.150029  1
  O  O103  1  0.451222  0.606168  0.212655  1
  O  O104  1  0.548638  0.893952  0.176636  1
  O  O105  1  0.065802  0.590728  0.209792  1
  O  O106  1  0.261910  0.528485  0.203973  1
  O  O107  1  0.228318  0.633022  0.200036  1
  O  O108  1  0.887779  0.607416  0.187086  1
  O  O109  1  0.834362  0.637439  0.210748  1
  O  O110  1  0.165534  0.862683  0.178541  1
  O  O111  1  0.336627  0.678603  0.171456  1
  O  O112  1  0.261052  0.741151  0.186383  1
  O  O113  1  0.738825  0.758970  0.202907  1
  O  O114  1  0.644734  0.680081  0.222337  1
  O  O115  1  0.355167  0.820028  0.166954  1
  O  O116  1  0.481951  0.813609  0.142093  1
  O  O117  1  0.602163  0.756881  0.180836  1
  O  O118  1  0.397733  0.743238  0.208454  1
  O  O119  1  0.677171  0.701647  0.150516  1
  O  O120  1  0.000000  0.500056  0.230840  1
  O  O121  1  0.770812  0.562307  0.181019  1
  O  O122  1  0.547606  0.585099  0.176032  1
  O  O123  1  0.499940  0.500057  0.253963  1
  O  O124  1  0.456239  0.723414  0.145756  1
  O  O125  1  0.499971  0.000000  0.472869  1
  O  O126  1  0.446550  0.400144  0.367422  1
  O  O127  1  0.553356  0.099908  0.459688  1
  O  O128  1  0.691051  0.496571  0.368942  1
  O  O129  1  0.308871  0.003476  0.458169  1
  O  O130  1  0.548677  0.393912  0.395548  1
  O  O131  1  0.451240  0.106136  0.431562  1
  O  O132  1  0.934092  0.409358  0.398410  1
  O  O133  1  0.738001  0.471585  0.404234  1
  O  O134  1  0.771581  0.367058  0.408166  1
  O  O135  1  0.112106  0.392675  0.421115  1
  O  O136  1  0.165538  0.362637  0.397458  1
  O  O137  1  0.834351  0.137410  0.429654  1
  O  O138  1  0.663279  0.321472  0.436747  1
  O  O139  1  0.738851  0.258937  0.421818  1
  O  O140  1  0.261060  0.241116  0.405294  1
  O  O141  1  0.355151  0.320009  0.385865  1
  O  O142  1  0.644737  0.180049  0.441245  1
  O  O143  1  0.517977  0.186466  0.466107  1
  O  O144  1  0.397743  0.243193  0.427367  1
  O  O145  1  0.602126  0.256866  0.399739  1
  O  O146  1  0.065809  0.090696  0.428705  1
  O  O147  1  0.065771  0.090738  0.358703  1
  O  O148  1  0.261865  0.028482  0.422873  1
  O  O149  1  0.261858  0.028501  0.391773  1
  O  O150  1  0.228330  0.132992  0.418945  1
  O  O151  1  0.228294  0.133028  0.349944  1
  O  O152  1  0.887796  0.107404  0.405990  1
  O  O153  1  0.887742  0.107432  0.374101  1
  O  O154  1  0.336633  0.178586  0.390362  1
  O  O155  1  0.336614  0.178599  0.358572  1
  O  O156  1  0.481900  0.313605  0.360998  1
  O  O157  1  0.481930  0.313611  0.328827  1
  O  O158  1  0.547600  0.085096  0.394932  1
  O  O159  1  0.770794  0.062320  0.399919  1
  O  O160  1  0.456220  0.223414  0.364654  1
  O  O161  1  0.677143  0.201659  0.369420  1
  O  O162  1  0.000000  -0.000000  0.377355  1
  O  O163  1  0.000000  -0.000000  0.449747  1
  O  O164  1  0.446561  0.400164  0.503416  1
  O  O165  1  0.553297  0.099954  0.323681  1
  O  O166  1  0.691036  0.496598  0.459677  1
  O  O167  1  0.308821  0.003516  0.367420  1
  O  O168  1  0.548649  0.393948  0.478012  1
  O  O169  1  0.451199  0.106173  0.349083  1
  O  O170  1  0.934088  0.409380  0.468395  1
  O  O171  1  0.738012  0.471598  0.435327  1
  O  O172  1  0.771563  0.367085  0.477153  1
  O  O173  1  0.112124  0.392670  0.452998  1
  O  O174  1  0.165517  0.362684  0.489797  1
  O  O175  1  0.834339  0.137433  0.337299  1
  O  O176  1  0.663255  0.321495  0.468529  1
  O  O177  1  0.738817  0.258965  0.510836  1
  O  O178  1  0.261026  0.241151  0.316264  1
  O  O179  1  0.355153  0.320036  0.520055  1
  O  O180  1  0.644700  0.180087  0.307039  1
  O  O181  1  0.517931  0.186489  0.498274  1
  O  O182  1  0.397726  0.243232  0.512175  1
  O  O183  1  0.602147  0.256879  0.314920  1
  O  O184  1  0.322736  0.298433  0.457682  1
  O  O185  1  0.452300  0.414978  0.432171  1
  O  O186  1  0.229093  0.437771  0.427184  1
  O  O187  1  0.543676  0.276666  0.462447  1
  O  O188  1  0.499908  0.000000  0.354231  1
  O  O189  1  0.397754  0.743198  0.512183  1
  O  O190  1  0.000000  0.500026  0.377361  1
  O  O191  1  0.553346  0.599913  0.323690  1
  O  O192  1  0.446589  0.900130  0.503420  1
  O  O193  1  0.308867  0.503486  0.367429  1
  O  O194  1  0.691054  0.996567  0.459679  1
  O  O195  1  0.451246  0.606141  0.349090  1
  O  O196  1  0.548684  0.893908  0.478018  1
  O  O197  1  0.065819  0.590704  0.358710  1
  O  O198  1  0.261890  0.528488  0.391778  1
  O  O199  1  0.228339  0.633002  0.349951  1
  O  O200  1  0.887795  0.607400  0.374108  1
  O  O201  1  0.834385  0.637403  0.337307  1
  O  O202  1  0.165551  0.862644  0.489800  1
  O  O203  1  0.336649  0.678593  0.358573  1
  O  O204  1  0.261074  0.741122  0.316265  1
  O  O205  1  0.738863  0.758931  0.510839  1
  O  O206  1  0.644755  0.680039  0.307050  1
  O  O207  1  0.355180  0.820003  0.520058  1
  O  O208  1  0.481946  0.813591  0.328828  1
  O  O209  1  0.602161  0.756851  0.314927  1
  O  O210  1  0.499958  0.500027  0.354241  1
  O  O211  1  0.934077  0.909386  0.398395  1
  O  O212  1  0.934102  0.909348  0.468398  1
  O  O213  1  0.738009  0.971610  0.404224  1
  O  O214  1  0.738023  0.971579  0.435326  1
  O  O215  1  0.771549  0.867095  0.408156  1
  O  O216  1  0.771585  0.867053  0.477155  1
  O  O217  1  0.112098  0.892671  0.421111  1
  O  O218  1  0.112105  0.892667  0.452995  1
  O  O219  1  0.663237  0.821504  0.436738  1
  O  O220  1  0.663257  0.821479  0.468530  1
  O  O221  1  0.517954  0.686486  0.466103  1
  O  O222  1  0.517968  0.686470  0.498276  1
  O  O223  1  0.452269  0.914990  0.432168  1
  O  O224  1  0.229073  0.937769  0.427180  1
  O  O225  1  0.543642  0.776674  0.462446  1
  O  O226  1  0.322722  0.798427  0.457684  1
  O  O227  1  0.553327  0.599949  0.459680  1
  O  O228  1  0.446547  0.900169  0.367413  1
  O  O229  1  0.308841  0.503515  0.458164  1
  O  O230  1  0.691015  0.996605  0.368931  1
  O  O231  1  0.451222  0.606168  0.431557  1
  O  O232  1  0.548638  0.893952  0.395538  1
  O  O233  1  0.065802  0.590728  0.428694  1
  O  O234  1  0.261910  0.528485  0.422875  1
  O  O235  1  0.228318  0.633022  0.418938  1
  O  O236  1  0.887779  0.607416  0.405987  1
  O  O237  1  0.834362  0.637439  0.429649  1
  O  O238  1  0.165534  0.862683  0.397442  1
  O  O239  1  0.336627  0.678603  0.390358  1
  O  O240  1  0.261052  0.741151  0.405285  1
  O  O241  1  0.738825  0.758970  0.421808  1
  O  O242  1  0.644734  0.680081  0.441239  1
  O  O243  1  0.355167  0.820028  0.385855  1
  O  O244  1  0.481951  0.813609  0.360994  1
  O  O245  1  0.602163  0.756881  0.399737  1
  O  O246  1  0.397733  0.743238  0.427356  1
  O  O247  1  0.677171  0.701647  0.369418  1
  O  O248  1  0.000000  0.500056  0.449741  1
  O  O249  1  0.770812  0.562307  0.399920  1
  O  O250  1  0.547606  0.585099  0.394934  1
  O  O251  1  0.499940  0.500057  0.472864  1
  O  O252  1  0.456239  0.723414  0.364657  1
  O  O253  1  0.499971  0.000000  0.691771  1
  O  O254  1  0.446550  0.400144  0.586323  1
  O  O255  1  0.553356  0.099908  0.678590  1
  O  O256  1  0.691051  0.496571  0.587843  1
  O  O257  1  0.308871  0.003476  0.677070  1
  O  O258  1  0.548677  0.393912  0.614449  1
  O  O259  1  0.451240  0.106136  0.650464  1
  O  O260  1  0.934092  0.409358  0.617311  1
  O  O261  1  0.738001  0.471585  0.623136  1
  O  O262  1  0.771581  0.367058  0.627068  1
  O  O263  1  0.112106  0.392675  0.640017  1
  O  O264  1  0.165538  0.362637  0.616359  1
  O  O265  1  0.834351  0.137410  0.648555  1
  O  O266  1  0.663279  0.321472  0.655648  1
  O  O267  1  0.738851  0.258937  0.640719  1
  O  O268  1  0.261060  0.241116  0.624195  1
  O  O269  1  0.355151  0.320009  0.604766  1
  O  O270  1  0.644737  0.180049  0.660146  1
  O  O271  1  0.517977  0.186466  0.685009  1
  O  O272  1  0.397743  0.243193  0.646268  1
  O  O273  1  0.602126  0.256866  0.618640  1
  O  O274  1  0.065809  0.090696  0.647607  1
  O  O275  1  0.065771  0.090738  0.577604  1
  O  O276  1  0.261865  0.028482  0.641775  1
  O  O277  1  0.261858  0.028501  0.610675  1
  O  O278  1  0.228330  0.132992  0.637846  1
  O  O279  1  0.228294  0.133028  0.568846  1
  O  O280  1  0.887796  0.107404  0.624891  1
  O  O281  1  0.887742  0.107432  0.593002  1
  O  O282  1  0.336633  0.178586  0.609263  1
  O  O283  1  0.336614  0.178599  0.577474  1
  O  O284  1  0.481900  0.313605  0.579900  1
  O  O285  1  0.481930  0.313611  0.547729  1
  O  O286  1  0.547600  0.085096  0.613834  1
  O  O287  1  0.770794  0.062320  0.618821  1
  O  O288  1  0.456220  0.223414  0.583555  1
  O  O289  1  0.677143  0.201659  0.588322  1
  O  O290  1  0.000000  -0.000000  0.596256  1
  O  O291  1  0.000000  0.000000  0.668648  1
  O  O292  1  0.446561  0.400164  0.722317  1
  O  O293  1  0.553297  0.099954  0.542582  1
  O  O294  1  0.691036  0.496598  0.678578  1
  O  O295  1  0.308821  0.003516  0.586321  1
  O  O296  1  0.548649  0.393948  0.696913  1
  O  O297  1  0.451199  0.106173  0.567984  1
  O  O298  1  0.934088  0.409380  0.687296  1
  O  O299  1  0.738012  0.471598  0.654229  1
  O  O300  1  0.771563  0.367085  0.696055  1
  O  O301  1  0.112124  0.392670  0.671900  1
  O  O302  1  0.165517  0.362684  0.708698  1
  O  O303  1  0.834339  0.137433  0.556201  1
  O  O304  1  0.663255  0.321495  0.687431  1
  O  O305  1  0.738817  0.258965  0.729738  1
  O  O306  1  0.261026  0.241151  0.535165  1
  O  O307  1  0.644700  0.180087  0.525941  1
  O  O308  1  0.517931  0.186489  0.717175  1
  O  O309  1  0.602147  0.256879  0.533822  1
  O  O310  1  0.322736  0.298433  0.676583  1
  O  O311  1  0.452300  0.414978  0.651073  1
  O  O312  1  0.229093  0.437771  0.646086  1
  O  O313  1  0.543676  0.276666  0.681349  1
  O  O314  1  0.499908  0.000000  0.573132  1
  O  O315  1  0.000000  0.500026  0.596262  1
  O  O316  1  0.553346  0.599913  0.542591  1
  O  O317  1  0.446589  0.900130  0.722321  1
  O  O318  1  0.308867  0.503486  0.586331  1
  O  O319  1  0.691054  0.996567  0.678580  1
  O  O320  1  0.451246  0.606141  0.567992  1
  O  O321  1  0.548684  0.893908  0.696920  1
  O  O322  1  0.065819  0.590704  0.577612  1
  O  O323  1  0.261890  0.528488  0.610680  1
  O  O324  1  0.228339  0.633002  0.568853  1
  O  O325  1  0.887795  0.607400  0.593010  1
  O  O326  1  0.834385  0.637403  0.556208  1
  O  O327  1  0.165551  0.862644  0.708702  1
  O  O328  1  0.336649  0.678593  0.577474  1
  O  O329  1  0.261074  0.741122  0.535166  1
  O  O330  1  0.738863  0.758931  0.729740  1
  O  O331  1  0.644755  0.680039  0.525952  1
  O  O332  1  0.481946  0.813591  0.547729  1
  O  O333  1  0.602161  0.756851  0.533828  1
  O  O334  1  0.499958  0.500027  0.573142  1
  O  O335  1  0.934077  0.909386  0.617296  1
  O  O336  1  0.934102  0.909348  0.687299  1
  O  O337  1  0.738009  0.971610  0.623125  1
  O  O338  1  0.738023  0.971579  0.654228  1
  O  O339  1  0.771549  0.867095  0.627058  1
  O  O340  1  0.771585  0.867053  0.696057  1
  O  O341  1  0.112098  0.892671  0.640013  1
  O  O342  1  0.112105  0.892667  0.671897  1
  O  O343  1  0.663237  0.821504  0.655640  1
  O  O344  1  0.663257  0.821479  0.687432  1
  O  O345  1  0.517954  0.686486  0.685005  1
  O  O346  1  0.517968  0.686470  0.717178  1
  O  O347  1  0.452269  0.914990  0.651070  1
  O  O348  1  0.229073  0.937769  0.646081  1
  O  O349  1  0.543642  0.776674  0.681348  1
  O  O350  1  0.322722  0.798427  0.676586  1
  O  O351  1  0.553327  0.599949  0.678582  1
  O  O352  1  0.446547  0.900169  0.586315  1
  O  O353  1  0.308841  0.503515  0.677065  1
  O  O354  1  0.691015  0.996605  0.587832  1
  O  O355  1  0.451222  0.606168  0.650458  1
  O  O356  1  0.548638  0.893952  0.614439  1
  O  O357  1  0.065802  0.590728  0.647595  1
  O  O358  1  0.261910  0.528485  0.641776  1
  O  O359  1  0.228318  0.633022  0.637840  1
  O  O360  1  0.887779  0.607416  0.624889  1
  O  O361  1  0.834362  0.637439  0.648551  1
  O  O362  1  0.165534  0.862683  0.616344  1
  O  O363  1  0.336627  0.678603  0.609259  1
  O  O364  1  0.261052  0.741151  0.624186  1
  O  O365  1  0.738825  0.758970  0.640710  1
  O  O366  1  0.644734  0.680081  0.660140  1
  O  O367  1  0.355167  0.820028  0.604757  1
  O  O368  1  0.481951  0.813609  0.579896  1
  O  O369  1  0.602163  0.756881  0.618639  1
  O  O370  1  0.397733  0.743238  0.646257  1
  O  O371  1  0.677171  0.701647  0.588319  1
  O  O372  1  0.000000  0.500056  0.668643  1
  O  O373  1  0.770812  0.562307  0.618822  1
  O  O374  1  0.547606  0.585099  0.613835  1
  O  O375  1  0.499940  0.500057  0.691766  1
  O  O376  1  0.456239  0.723414  0.583559  1
  Si  Si377  1  0.531242  0.175217  0.230707  1
  Si  Si378  1  0.446643  0.451030  0.151126  1
  Si  Si379  1  0.553280  0.049020  0.238180  1
  Si  Si380  1  0.287790  0.294377  0.184479  1
  Si  Si381  1  0.712107  0.205671  0.204829  1
  Si  Si382  1  0.787476  0.434287  0.176373  1
  Si  Si383  1  0.055155  0.415338  0.179625  1
  Si  Si384  1  0.688770  0.332004  0.197411  1
  Si  Si385  1  0.468654  0.324837  0.158601  1
  Si  Si386  1  0.212424  0.065767  0.212935  1
  Si  Si387  1  0.212392  0.065801  0.147583  1
  Si  Si388  1  0.944746  0.084718  0.209681  1
  Si  Si389  1  0.944715  0.084751  0.142538  1
  Si  Si390  1  0.311145  0.168042  0.191896  1
  Si  Si391  1  0.311110  0.168079  0.123845  1
  Si  Si392  1  0.416304  0.166786  0.158149  1
  Si  Si393  1  0.808278  0.120245  0.168337  1
  Si  Si394  1  0.524613  0.265884  0.136458  1
  Si  Si395  1  0.699865  0.021188  0.190020  1
  Si  Si396  1  0.531187  0.175263  0.300792  1
  Si  Si397  1  0.446627  0.451059  0.259627  1
  Si  Si398  1  0.553225  0.049061  0.129665  1
  Si  Si399  1  0.287767  0.294421  0.294856  1
  Si  Si400  1  0.787472  0.434308  0.241713  1
  Si  Si401  1  0.055145  0.415364  0.246755  1
  Si  Si402  1  0.688738  0.332041  0.265447  1
  Si  Si403  1  0.191606  0.379847  0.220962  1
  Si  Si404  1  0.475258  0.234200  0.252841  1
  Si  Si405  1  0.300039  0.478893  0.199281  1
  Si  Si406  1  0.583590  0.333285  0.231153  1
  Si  Si407  1  0.553272  0.549025  0.129674  1
  Si  Si408  1  0.446657  0.951023  0.259632  1
  Si  Si409  1  0.287806  0.794380  0.294860  1
  Si  Si410  1  0.212433  0.565777  0.147590  1
  Si  Si411  1  0.944763  0.584717  0.142546  1
  Si  Si412  1  0.311158  0.668049  0.123852  1
  Si  Si413  1  0.531226  0.675255  0.230698  1
  Si  Si414  1  0.531245  0.675218  0.300800  1
  Si  Si415  1  0.787460  0.934318  0.176361  1
  Si  Si416  1  0.787484  0.934281  0.241713  1
  Si  Si417  1  0.055141  0.915364  0.179615  1
  Si  Si418  1  0.055158  0.915335  0.246759  1
  Si  Si419  1  0.688730  0.832048  0.197402  1
  Si  Si420  1  0.688771  0.832001  0.265454  1
  Si  Si421  1  0.583564  0.833300  0.231148  1
  Si  Si422  1  0.191590  0.879843  0.220959  1
  Si  Si423  1  0.475253  0.734202  0.252843  1
  Si  Si424  1  0.300005  0.978899  0.199276  1
  Si  Si425  1  0.468671  0.824858  0.158592  1
  Si  Si426  1  0.553253  0.549053  0.238175  1
  Si  Si427  1  0.446602  0.951064  0.151117  1
  Si  Si428  1  0.712104  0.705704  0.204822  1
  Si  Si429  1  0.287791  0.794413  0.184468  1
  Si  Si430  1  0.212422  0.565793  0.212929  1
  Si  Si431  1  0.944740  0.584747  0.209675  1
  Si  Si432  1  0.311132  0.668073  0.191889  1
  Si  Si433  1  0.524646  0.765878  0.136457  1
  Si  Si434  1  0.699867  0.521184  0.190022  1
  Si  Si435  1  0.416316  0.666791  0.158149  1
  Si  Si436  1  0.808301  0.620231  0.168339  1
  Si  Si437  1  0.531242  0.175217  0.449609  1
  Si  Si438  1  0.446643  0.451030  0.370028  1
  Si  Si439  1  0.553280  0.049020  0.457081  1
  Si  Si440  1  0.287790  0.294377  0.403381  1
  Si  Si441  1  0.712107  0.205671  0.423730  1
  Si  Si442  1  0.787476  0.434287  0.395275  1
  Si  Si443  1  0.055155  0.415338  0.398527  1
  Si  Si444  1  0.688770  0.332004  0.416313  1
  Si  Si445  1  0.468654  0.324837  0.377503  1
  Si  Si446  1  0.468661  0.324859  0.307403  1
  Si  Si447  1  0.212424  0.065767  0.431837  1
  Si  Si448  1  0.212392  0.065801  0.366484  1
  Si  Si449  1  0.944746  0.084718  0.428583  1
  Si  Si450  1  0.944715  0.084751  0.361440  1
  Si  Si451  1  0.311145  0.168042  0.410798  1
  Si  Si452  1  0.311110  0.168079  0.342746  1
  Si  Si453  1  0.416304  0.166786  0.377051  1
  Si  Si454  1  0.808278  0.120245  0.387239  1
  Si  Si455  1  0.524613  0.265884  0.355359  1
  Si  Si456  1  0.699865  0.021188  0.408921  1
  Si  Si457  1  0.531187  0.175263  0.519693  1
  Si  Si458  1  0.446627  0.451059  0.478529  1
  Si  Si459  1  0.553225  0.049061  0.348567  1
  Si  Si460  1  0.287767  0.294421  0.513757  1
  Si  Si461  1  0.712081  0.205703  0.313338  1
  Si  Si462  1  0.787472  0.434308  0.460615  1
  Si  Si463  1  0.055145  0.415364  0.465656  1
  Si  Si464  1  0.688738  0.332041  0.484349  1
  Si  Si465  1  0.191606  0.379847  0.439863  1
  Si  Si466  1  0.475258  0.234200  0.471743  1
  Si  Si467  1  0.300039  0.478893  0.418182  1
  Si  Si468  1  0.583590  0.333285  0.450054  1
  Si  Si469  1  0.468695  0.824822  0.307407  1
  Si  Si470  1  0.553272  0.549025  0.348576  1
  Si  Si471  1  0.446657  0.951023  0.478533  1
  Si  Si472  1  0.712132  0.705660  0.313346  1
  Si  Si473  1  0.287806  0.794380  0.513762  1
  Si  Si474  1  0.212433  0.565777  0.366491  1
  Si  Si475  1  0.944763  0.584717  0.361447  1
  Si  Si476  1  0.311158  0.668049  0.342753  1
  Si  Si477  1  0.531226  0.675255  0.449599  1
  Si  Si478  1  0.531245  0.675218  0.519702  1
  Si  Si479  1  0.787460  0.934318  0.395263  1
  Si  Si480  1  0.787484  0.934281  0.460615  1
  Si  Si481  1  0.055141  0.915364  0.398517  1
  Si  Si482  1  0.055158  0.915335  0.465660  1
  Si  Si483  1  0.688730  0.832048  0.416303  1
  Si  Si484  1  0.688771  0.832001  0.484355  1
  Si  Si485  1  0.583564  0.833300  0.450050  1
  Si  Si486  1  0.191590  0.879843  0.439861  1
  Si  Si487  1  0.475253  0.734202  0.471744  1
  Si  Si488  1  0.300005  0.978899  0.418178  1
  Si  Si489  1  0.468671  0.824858  0.377494  1
  Si  Si490  1  0.553253  0.549053  0.457077  1
  Si  Si491  1  0.446602  0.951064  0.370019  1
  Si  Si492  1  0.712104  0.705704  0.423724  1
  Si  Si493  1  0.287791  0.794413  0.403370  1
  Si  Si494  1  0.212422  0.565793  0.431831  1
  Si  Si495  1  0.944740  0.584747  0.428576  1
  Si  Si496  1  0.311132  0.668073  0.410791  1
  Si  Si497  1  0.524646  0.765878  0.355359  1
  Si  Si498  1  0.699867  0.521184  0.408924  1
  Si  Si499  1  0.416316  0.666791  0.377051  1
  Si  Si500  1  0.808301  0.620231  0.387241  1
  Si  Si501  1  0.531242  0.175217  0.668510  1
  Si  Si502  1  0.446643  0.451030  0.588930  1
  Si  Si503  1  0.553280  0.049020  0.675983  1
  Si  Si504  1  0.287790  0.294377  0.622282  1
  Si  Si505  1  0.712107  0.205671  0.642632  1
  Si  Si506  1  0.787476  0.434287  0.614177  1
  Si  Si507  1  0.055155  0.415338  0.617429  1
  Si  Si508  1  0.688770  0.332004  0.635214  1
  Si  Si509  1  0.468654  0.324837  0.596404  1
  Si  Si510  1  0.468661  0.324859  0.526304  1
  Si  Si511  1  0.212424  0.065767  0.650738  1
  Si  Si512  1  0.212392  0.065801  0.585386  1
  Si  Si513  1  0.944746  0.084718  0.647484  1
  Si  Si514  1  0.944715  0.084751  0.580341  1
  Si  Si515  1  0.311145  0.168042  0.629699  1
  Si  Si516  1  0.311110  0.168079  0.561648  1
  Si  Si517  1  0.416304  0.166786  0.595953  1
  Si  Si518  1  0.808278  0.120245  0.606140  1
  Si  Si519  1  0.524613  0.265884  0.574261  1
  Si  Si520  1  0.699865  0.021188  0.627823  1
  Si  Si521  1  0.446627  0.451059  0.697431  1
  Si  Si522  1  0.553225  0.049061  0.567468  1
  Si  Si523  1  0.712081  0.205703  0.532240  1
  Si  Si524  1  0.787472  0.434308  0.679516  1
  Si  Si525  1  0.055145  0.415364  0.684558  1
  Si  Si526  1  0.688738  0.332041  0.703250  1
  Si  Si527  1  0.191606  0.379847  0.658765  1
  Si  Si528  1  0.475258  0.234200  0.690644  1
  Si  Si529  1  0.300039  0.478893  0.637084  1
  Si  Si530  1  0.583590  0.333285  0.668956  1
  Si  Si531  1  0.468695  0.824822  0.526308  1
  Si  Si532  1  0.553272  0.549025  0.567477  1
  Si  Si533  1  0.446657  0.951023  0.697435  1
  Si  Si534  1  0.712132  0.705660  0.532248  1
  Si  Si535  1  0.212433  0.565777  0.585393  1
  Si  Si536  1  0.944763  0.584717  0.580349  1
  Si  Si537  1  0.311158  0.668049  0.561655  1
  Si  Si538  1  0.531226  0.675255  0.668501  1
  Si  Si539  1  0.787460  0.934318  0.614164  1
  Si  Si540  1  0.787484  0.934281  0.679516  1
  Si  Si541  1  0.055141  0.915364  0.617418  1
  Si  Si542  1  0.055158  0.915335  0.684562  1
  Si  Si543  1  0.688730  0.832048  0.635205  1
  Si  Si544  1  0.688771  0.832001  0.703257  1
  Si  Si545  1  0.583564  0.833300  0.668951  1
  Si  Si546  1  0.191590  0.879843  0.658762  1
  Si  Si547  1  0.475253  0.734202  0.690646  1
  Si  Si548  1  0.300005  0.978899  0.637080  1
  Si  Si549  1  0.468671  0.824858  0.596396  1
  Si  Si550  1  0.553253  0.549053  0.675978  1
  Si  Si551  1  0.446602  0.951064  0.588920  1
  Si  Si552  1  0.712104  0.705704  0.642625  1
  Si  Si553  1  0.287791  0.794413  0.622271  1
  Si  Si554  1  0.212422  0.565793  0.650732  1
  Si  Si555  1  0.944740  0.584747  0.647478  1
  Si  Si556  1  0.311132  0.668073  0.629693  1
  Si  Si557  1  0.524646  0.765878  0.574260  1
  Si  Si558  1  0.699867  0.521184  0.627825  1
  Si  Si559  1  0.416316  0.666791  0.595952  1
  Si  Si560  1  0.808301  0.620231  0.606142  1
  H  H561  1  0.481930  0.313611  0.099012  1
  H  H562  1  0.553297  0.099954  0.093866  1
  H  H563  1  0.834339  0.137433  0.107484  1
  H  H564  1  0.261026  0.241151  0.086449  1
  H  H565  1  0.553346  0.599913  0.093875  1
  H  H566  1  0.834385  0.637403  0.107492  1
  H  H567  1  0.261074  0.741122  0.086450  1
  H  H568  1  0.481946  0.813591  0.099013  1
  H  H569  1  0.446561  0.400164  0.733231  1
  H  H570  1  0.165517  0.362684  0.719612  1
  H  H571  1  0.738817  0.258965  0.740651  1
  H  H572  1  0.517931  0.186489  0.728089  1
  H  H573  1  0.446589  0.900130  0.733235  1
  H  H574  1  0.165551  0.862644  0.719615  1
  H  H575  1  0.738863  0.758931  0.740654  1
  H  H576  1  0.517968  0.686470  0.728091  1
