# generated using pymatgen
data_Si27H2O55
_symmetry_space_group_name_H-M   'P 1'
_cell_length_a   13.81540410
_cell_length_b   18.13110130
_cell_length_c   68.98789535
_cell_angle_alpha   90.00000000
_cell_angle_beta   90.00000000
_cell_angle_gamma   90.00000000
_symmetry_Int_Tables_number   1
_chemical_formula_structural   Si27H2O55
_chemical_formula_sum   'Si216 H16 O440'
_cell_volume   17280.6738203
_cell_formula_units_Z   8
loop_
 _symmetry_equiv_pos_site_id
 _symmetry_equiv_pos_as_xyz
  1  'x, y, z'
loop_
 _atom_site_type_symbol
 _atom_site_label
 _atom_site_symmetry_multiplicity
 _atom_site_fract_x
 _atom_site_fract_y
 _atom_site_fract_z
 _atom_site_occupancy
  O  O1  1  0.852103  0.638297  0.423500  1
  O  O2  1  0.147831  0.638308  0.423499  1
  O  O3  1  0.647840  0.861623  0.423495  1
  O  O4  1  0.352124  0.861635  0.423496  1
  O  O5  1  0.750003  0.749967  0.410106  1
  O  O6  1  0.250014  0.749957  0.410108  1
  O  O7  1  0.762327  0.629489  0.391322  1
  O  O8  1  0.237694  0.629465  0.391330  1
  O  O9  1  0.737706  0.870450  0.391325  1
  O  O10  1  0.262334  0.870430  0.391320  1
  O  O11  1  0.907173  0.710771  0.394002  1
  O  O12  1  0.092868  0.710772  0.393994  1
  O  O13  1  0.592868  0.789154  0.393991  1
  O  O14  1  0.407178  0.789153  0.394000  1
  O  O15  1  0.746375  0.506209  0.373926  1
  O  O16  1  0.253654  0.506172  0.373942  1
  O  O17  1  0.753679  0.993740  0.373937  1
  O  O18  1  0.246387  0.993716  0.373927  1
  O  O19  1  0.749805  0.625763  0.354506  1
  O  O20  1  0.250173  0.625716  0.354513  1
  O  O21  1  0.750182  0.874201  0.354508  1
  O  O22  1  0.249847  0.874172  0.354504  1
  O  O23  1  0.600962  0.593041  0.374979  1
  O  O24  1  0.399047  0.593029  0.374982  1
  O  O25  1  0.899066  0.906882  0.374977  1
  O  O26  1  0.100981  0.906872  0.374974  1
  O  O27  1  0.760916  0.870475  0.318022  1
  O  O28  1  0.239106  0.870438  0.318019  1
  O  O29  1  0.739080  0.629474  0.318021  1
  O  O30  1  0.260910  0.629448  0.318028  1
  O  O31  1  0.907535  0.954935  0.315935  1
  O  O32  1  0.092533  0.954947  0.315941  1
  O  O33  1  0.592506  0.544962  0.315945  1
  O  O34  1  0.407510  0.544975  0.315937  1
  O  O35  1  0.750049  0.749979  0.337858  1
  O  O36  1  0.250009  0.749943  0.337862  1
  O  O37  1  0.899769  0.660219  0.335476  1
  O  O38  1  0.100240  0.660211  0.335480  1
  O  O39  1  0.600253  0.839683  0.335476  1
  O  O40  1  0.399781  0.839668  0.335473  1
  O  O41  1  -0.000000  0.544041  0.344464  1
  O  O42  1  0.499992  0.955861  0.344458  1
  O  O43  1  0.000000  0.905383  0.345095  1
  O  O44  1  0.499988  0.594522  0.345099  1
  O  O45  1  -0.000000  0.657178  0.365385  1
  O  O46  1  0.500002  0.842733  0.365381  1
  O  O47  1  -0.000000  0.793964  0.369966  1
  O  O48  1  0.499994  0.705946  0.369967  1
  O  O49  1  0.499966  0.084540  0.414405  1
  O  O50  1  0.000000  0.415395  0.414408  1
  O  O51  1  0.332774  0.079965  0.397681  1
  O  O52  1  0.667171  0.079983  0.397677  1
  O  O53  1  0.167141  0.419930  0.397681  1
  O  O54  1  0.832731  0.419972  0.397687  1
  O  O55  1  0.749841  0.125757  0.327527  1
  O  O56  1  0.250189  0.125723  0.327524  1
  O  O57  1  0.750169  0.374202  0.327528  1
  O  O58  1  0.249814  0.374174  0.327532  1
  O  O59  1  0.760902  0.370466  0.364014  1
  O  O60  1  0.239084  0.370442  0.364016  1
  O  O61  1  0.739104  0.129468  0.364012  1
  O  O62  1  0.260924  0.129448  0.364009  1
  O  O63  1  0.907521  0.454919  0.366105  1
  O  O64  1  0.092518  0.454958  0.366091  1
  O  O65  1  0.592536  0.044951  0.366088  1
  O  O66  1  0.407538  0.044979  0.366099  1
  O  O67  1  0.750034  0.249973  0.344176  1
  O  O68  1  0.250036  0.249947  0.344175  1
  O  O69  1  0.899787  0.160229  0.346559  1
  O  O70  1  0.100256  0.160227  0.346555  1
  O  O71  1  0.600242  0.339686  0.346559  1
  O  O72  1  0.399769  0.339692  0.346562  1
  O  O73  1  -0.000000  0.044044  0.337573  1
  O  O74  1  0.499983  0.455864  0.337575  1
  O  O75  1  -0.000000  0.405383  0.336940  1
  O  O76  1  0.500010  0.094522  0.336936  1
  O  O77  1  -0.000000  0.157177  0.316651  1
  O  O78  1  0.500000  0.342732  0.316653  1
  O  O79  1  0.000000  0.705956  0.196953  1
  O  O80  1  0.127545  0.000000  0.254514  1
  O  O81  1  0.499949  0.584544  0.267630  1
  O  O82  1  0.000000  0.915398  0.267628  1
  O  O83  1  0.352075  0.638308  0.250486  1
  O  O84  1  0.647799  0.638311  0.250488  1
  O  O85  1  0.147817  0.861634  0.250483  1
  O  O86  1  0.852099  0.861636  0.250482  1
  O  O87  1  0.332758  0.579971  0.284355  1
  O  O88  1  0.667156  0.579984  0.284356  1
  O  O89  1  0.167186  0.919941  0.284353  1
  O  O90  1  0.832776  0.919965  0.284351  1
  O  O91  1  0.249914  0.749957  0.237092  1
  O  O92  1  0.749912  0.749985  0.237096  1
  O  O93  1  0.262240  0.629470  0.218313  1
  O  O94  1  0.737607  0.629501  0.218314  1
  O  O95  1  0.237594  0.870429  0.218305  1
  O  O96  1  0.762223  0.870466  0.218314  1
  O  O97  1  0.407068  0.710774  0.220983  1
  O  O98  1  0.592758  0.710777  0.220986  1
  O  O99  1  0.092745  0.789156  0.220987  1
  O  O100  1  0.907052  0.789161  0.220979  1
  O  O101  1  0.246259  0.506183  0.200924  1
  O  O102  1  0.753540  0.506216  0.200920  1
  O  O103  1  0.253537  0.993713  0.200912  1
  O  O104  1  0.746251  0.993756  0.200926  1
  O  O105  1  0.100871  0.593042  0.201968  1
  O  O106  1  0.898954  0.593049  0.201966  1
  O  O107  1  0.398949  0.906879  0.201961  1
  O  O108  1  0.600864  0.906892  0.201966  1
  O  O109  1  0.499921  0.793972  0.196953  1
  O  O110  1  0.872401  -0.000000  0.254507  1
  O  O111  1  0.499999  0.205948  0.312068  1
  O  O112  1  -0.000000  0.084540  0.241392  1
  O  O113  1  0.499949  0.415397  0.241396  1
  O  O114  1  0.852126  0.138309  0.258535  1
  O  O115  1  0.147844  0.138306  0.258536  1
  O  O116  1  0.647826  0.361634  0.258540  1
  O  O117  1  0.352101  0.361636  0.258540  1
  O  O118  1  0.832761  0.079993  0.224667  1
  O  O119  1  0.167167  0.079962  0.224667  1
  O  O120  1  0.667143  0.419967  0.224671  1
  O  O121  1  0.332735  0.419950  0.224671  1
  O  O122  1  0.750008  0.249979  0.271927  1
  O  O123  1  0.250006  0.249953  0.271929  1
  O  O124  1  0.762329  0.129495  0.290710  1
  O  O125  1  0.237696  0.129461  0.290707  1
  O  O126  1  0.737679  0.370454  0.290711  1
  O  O127  1  0.262306  0.370427  0.290716  1
  O  O128  1  0.907172  0.210775  0.288035  1
  O  O129  1  0.092864  0.210765  0.288041  1
  O  O130  1  0.592855  0.289149  0.288040  1
  O  O131  1  0.407161  0.289155  0.288037  1
  O  O132  1  0.746391  0.006210  0.308105  1
  O  O133  1  0.253675  0.006174  0.308098  1
  O  O134  1  0.753647  0.493743  0.308099  1
  O  O135  1  0.246360  0.493717  0.308106  1
  O  O136  1  0.600979  0.093045  0.307057  1
  O  O137  1  0.399062  0.093031  0.307054  1
  O  O138  1  0.899039  0.406882  0.307058  1
  O  O139  1  0.100952  0.406879  0.307060  1
  O  O140  1  -0.000000  0.293965  0.312069  1
  O  O141  1  0.627520  0.499970  0.254515  1
  O  O142  1  0.372378  0.499972  0.254511  1
  O  O143  1  0.832752  0.579997  0.111346  1
  O  O144  1  0.167151  0.579957  0.111340  1
  O  O145  1  0.667174  0.919969  0.111337  1
  O  O146  1  0.332764  0.919947  0.111341  1
  O  O147  1  0.249737  0.625729  0.181496  1
  O  O148  1  0.750087  0.625763  0.181497  1
  O  O149  1  0.250092  0.874167  0.181489  1
  O  O150  1  0.749747  0.874217  0.181497  1
  O  O151  1  0.260819  0.870449  0.145004  1
  O  O152  1  0.739008  0.870475  0.145011  1
  O  O153  1  0.239009  0.629446  0.145011  1
  O  O154  1  0.760825  0.629484  0.145012  1
  O  O155  1  0.407388  0.954968  0.142932  1
  O  O156  1  0.592385  0.954925  0.142918  1
  O  O157  1  0.092386  0.544986  0.142924  1
  O  O158  1  0.907388  0.544964  0.142935  1
  O  O159  1  0.249897  0.749948  0.164843  1
  O  O160  1  0.749885  0.749985  0.164850  1
  O  O161  1  0.399675  0.660230  0.162466  1
  O  O162  1  0.600143  0.660235  0.162464  1
  O  O163  1  0.100141  0.839685  0.162460  1
  O  O164  1  0.899672  0.839693  0.162465  1
  O  O165  1  0.499914  0.544050  0.171450  1
  O  O166  1  0.000000  0.955873  0.171447  1
  O  O167  1  0.499922  0.905393  0.172083  1
  O  O168  1  0.000000  0.594531  0.172086  1
  O  O169  1  0.499918  0.657184  0.192372  1
  O  O170  1  0.000000  0.842742  0.192369  1
  O  O171  1  0.352092  0.138310  0.085523  1
  O  O172  1  0.647822  0.138296  0.085522  1
  O  O173  1  0.147783  0.361634  0.085527  1
  O  O174  1  0.852069  0.361627  0.085529  1
  O  O175  1  0.249894  0.249955  0.098913  1
  O  O176  1  0.749906  0.249973  0.098918  1
  O  O177  1  0.262215  0.129466  0.117692  1
  O  O178  1  0.737576  0.129496  0.117702  1
  O  O179  1  0.237588  0.370426  0.117702  1
  O  O180  1  0.762210  0.370459  0.117699  1
  O  O181  1  0.407036  0.210779  0.115029  1
  O  O182  1  0.592727  0.210772  0.115018  1
  O  O183  1  0.092738  0.289154  0.115024  1
  O  O184  1  0.907045  0.289160  0.115033  1
  O  O185  1  0.246249  0.006180  0.135082  1
  O  O186  1  0.253531  0.493712  0.135095  1
  O  O187  1  0.746243  0.493755  0.135086  1
  O  O188  1  0.249732  0.125727  0.154509  1
  O  O189  1  0.750101  0.125768  0.154518  1
  O  O190  1  0.250077  0.374173  0.154519  1
  O  O191  1  0.749739  0.374215  0.154516  1
  O  O192  1  0.100857  0.093037  0.134041  1
  O  O193  1  0.898941  0.093047  0.134044  1
  O  O194  1  0.398941  0.406875  0.134048  1
  O  O195  1  0.600856  0.406894  0.134047  1
  O  O196  1  0.260817  0.370447  0.191005  1
  O  O197  1  0.739008  0.370482  0.191001  1
  O  O198  1  0.239000  0.129448  0.190995  1
  O  O199  1  0.760822  0.129487  0.191003  1
  O  O200  1  0.407399  0.454948  0.193083  1
  O  O201  1  0.592396  0.454947  0.193088  1
  O  O202  1  0.092387  0.044985  0.193086  1
  O  O203  1  0.907391  0.044973  0.193077  1
  O  O204  1  0.249899  0.249949  0.171162  1
  O  O205  1  0.749866  0.249988  0.171165  1
  O  O206  1  0.399668  0.160220  0.173542  1
  O  O207  1  0.600139  0.160232  0.173547  1
  O  O208  1  0.100138  0.339681  0.173550  1
  O  O209  1  0.899667  0.339692  0.173547  1
  O  O210  1  0.499948  0.044052  0.164559  1
  O  O211  1  0.000000  0.455871  0.164564  1
  O  O212  1  0.499910  0.405388  0.163928  1
  O  O213  1  -0.000000  0.094530  0.163924  1
  O  O214  1  0.499917  0.157187  0.143637  1
  O  O215  1  0.000000  0.342741  0.143642  1
  O  O216  1  0.499921  0.293971  0.139056  1
  O  O217  1  -0.000000  0.205954  0.139057  1
  O  O218  1  0.753529  0.006214  0.135097  1
  O  O219  1  0.852103  0.638297  0.769525  1
  O  O220  1  0.147831  0.638308  0.769524  1
  O  O221  1  0.647840  0.861623  0.769520  1
  O  O222  1  0.352124  0.861635  0.769522  1
  O  O223  1  0.750003  0.749967  0.756132  1
  O  O224  1  0.250014  0.749957  0.756133  1
  O  O225  1  0.762327  0.629489  0.737347  1
  O  O226  1  0.237694  0.629465  0.737355  1
  O  O227  1  0.737706  0.870450  0.737350  1
  O  O228  1  0.262334  0.870430  0.737345  1
  O  O229  1  0.907173  0.710771  0.740027  1
  O  O230  1  0.092868  0.710772  0.740020  1
  O  O231  1  0.592868  0.789154  0.740016  1
  O  O232  1  0.407178  0.789153  0.740025  1
  O  O233  1  0.746375  0.506209  0.719951  1
  O  O234  1  0.253654  0.506172  0.719967  1
  O  O235  1  0.753679  0.993740  0.719963  1
  O  O236  1  0.246387  0.993716  0.719953  1
  O  O237  1  0.749805  0.625763  0.700531  1
  O  O238  1  0.250173  0.625716  0.700538  1
  O  O239  1  0.750182  0.874201  0.700533  1
  O  O240  1  0.249847  0.874172  0.700529  1
  O  O241  1  0.600962  0.593041  0.721004  1
  O  O242  1  0.399047  0.593029  0.721007  1
  O  O243  1  0.899066  0.906882  0.721002  1
  O  O244  1  0.100981  0.906872  0.721000  1
  O  O245  1  0.760916  0.870475  0.664047  1
  O  O246  1  0.239106  0.870438  0.664044  1
  O  O247  1  0.739080  0.629474  0.664046  1
  O  O248  1  0.260910  0.629448  0.664053  1
  O  O249  1  0.907535  0.954935  0.661960  1
  O  O250  1  0.092533  0.954947  0.661966  1
  O  O251  1  0.592506  0.544962  0.661970  1
  O  O252  1  0.407510  0.544975  0.661963  1
  O  O253  1  0.750049  0.749979  0.683883  1
  O  O254  1  0.250009  0.749943  0.683887  1
  O  O255  1  0.899769  0.660219  0.681501  1
  O  O256  1  0.100240  0.660211  0.681506  1
  O  O257  1  0.600253  0.839683  0.681502  1
  O  O258  1  0.399781  0.839668  0.681498  1
  O  O259  1  -0.000000  0.544041  0.690490  1
  O  O260  1  0.499992  0.955861  0.690484  1
  O  O261  1  -0.000000  0.905383  0.691120  1
  O  O262  1  0.499988  0.594522  0.691124  1
  O  O263  1  -0.000000  0.657178  0.711411  1
  O  O264  1  0.500002  0.842733  0.711406  1
  O  O265  1  -0.000000  0.793964  0.715991  1
  O  O266  1  0.499994  0.705946  0.715992  1
  O  O267  1  0.332774  0.079965  0.743706  1
  O  O268  1  0.667171  0.079983  0.743702  1
  O  O269  1  0.167141  0.419930  0.743706  1
  O  O270  1  0.832731  0.419972  0.743712  1
  O  O271  1  0.749841  0.125757  0.673552  1
  O  O272  1  0.250189  0.125723  0.673549  1
  O  O273  1  0.750169  0.374202  0.673553  1
  O  O274  1  0.249814  0.374174  0.673557  1
  O  O275  1  0.760902  0.370466  0.710040  1
  O  O276  1  0.239084  0.370442  0.710042  1
  O  O277  1  0.739104  0.129468  0.710037  1
  O  O278  1  0.260924  0.129448  0.710034  1
  O  O279  1  0.907521  0.454919  0.712131  1
  O  O280  1  0.092518  0.454958  0.712116  1
  O  O281  1  0.592536  0.044951  0.712113  1
  O  O282  1  0.407538  0.044979  0.712124  1
  O  O283  1  0.750034  0.249973  0.690201  1
  O  O284  1  0.250036  0.249947  0.690200  1
  O  O285  1  0.899787  0.160229  0.692584  1
  O  O286  1  0.100256  0.160227  0.692580  1
  O  O287  1  0.600242  0.339686  0.692584  1
  O  O288  1  0.399769  0.339692  0.692587  1
  O  O289  1  -0.000000  0.044044  0.683598  1
  O  O290  1  0.499983  0.455864  0.683601  1
  O  O291  1  -0.000000  0.405383  0.682965  1
  O  O292  1  0.500010  0.094522  0.682961  1
  O  O293  1  -0.000000  0.157177  0.662676  1
  O  O294  1  0.500000  0.342732  0.662678  1
  O  O295  1  -0.000000  0.705956  0.542979  1
  O  O296  1  0.127545  -0.000000  0.600539  1
  O  O297  1  0.499949  0.584544  0.613656  1
  O  O298  1  -0.000000  0.915398  0.613653  1
  O  O299  1  0.352075  0.638308  0.596511  1
  O  O300  1  0.647799  0.638311  0.596513  1
  O  O301  1  0.147817  0.861634  0.596508  1
  O  O302  1  0.852099  0.861636  0.596507  1
  O  O303  1  0.332758  0.579971  0.630380  1
  O  O304  1  0.667156  0.579984  0.630381  1
  O  O305  1  0.167186  0.919941  0.630378  1
  O  O306  1  0.832776  0.919965  0.630377  1
  O  O307  1  0.249914  0.749957  0.583118  1
  O  O308  1  0.749912  0.749985  0.583121  1
  O  O309  1  0.262240  0.629470  0.564338  1
  O  O310  1  0.737607  0.629501  0.564339  1
  O  O311  1  0.237594  0.870429  0.564330  1
  O  O312  1  0.762223  0.870466  0.564339  1
  O  O313  1  0.407068  0.710774  0.567008  1
  O  O314  1  0.592758  0.710777  0.567011  1
  O  O315  1  0.092745  0.789156  0.567012  1
  O  O316  1  0.907052  0.789161  0.567004  1
  O  O317  1  0.246259  0.506183  0.546949  1
  O  O318  1  0.753540  0.506216  0.546945  1
  O  O319  1  0.253537  0.993713  0.546937  1
  O  O320  1  0.746251  0.993756  0.546951  1
  O  O321  1  0.100871  0.593042  0.547993  1
  O  O322  1  0.898954  0.593049  0.547991  1
  O  O323  1  0.398949  0.906879  0.547986  1
  O  O324  1  0.600864  0.906892  0.547991  1
  O  O325  1  0.499921  0.793972  0.542978  1
  O  O326  1  0.872401  -0.000000  0.600533  1
  O  O327  1  0.499999  0.205948  0.658093  1
  O  O328  1  -0.000000  0.084540  0.587417  1
  O  O329  1  0.499949  0.415397  0.587421  1
  O  O330  1  0.852126  0.138309  0.604560  1
  O  O331  1  0.147844  0.138306  0.604561  1
  O  O332  1  0.647826  0.361634  0.604565  1
  O  O333  1  0.352101  0.361636  0.604565  1
  O  O334  1  0.832761  0.079993  0.570692  1
  O  O335  1  0.167167  0.079962  0.570692  1
  O  O336  1  0.667143  0.419967  0.570697  1
  O  O337  1  0.332735  0.419950  0.570696  1
  O  O338  1  0.750008  0.249979  0.617953  1
  O  O339  1  0.250006  0.249953  0.617954  1
  O  O340  1  0.762329  0.129495  0.636736  1
  O  O341  1  0.237696  0.129461  0.636732  1
  O  O342  1  0.737679  0.370454  0.636736  1
  O  O343  1  0.262306  0.370427  0.636741  1
  O  O344  1  0.907172  0.210775  0.634060  1
  O  O345  1  0.092864  0.210765  0.634067  1
  O  O346  1  0.592855  0.289149  0.634066  1
  O  O347  1  0.407161  0.289155  0.634062  1
  O  O348  1  0.746391  0.006210  0.654130  1
  O  O349  1  0.253675  0.006174  0.654123  1
  O  O350  1  0.753647  0.493743  0.654124  1
  O  O351  1  0.246360  0.493717  0.654132  1
  O  O352  1  0.600979  0.093045  0.653082  1
  O  O353  1  0.399062  0.093031  0.653079  1
  O  O354  1  0.899039  0.406882  0.653083  1
  O  O355  1  0.100952  0.406879  0.653086  1
  O  O356  1  -0.000000  0.293965  0.658095  1
  O  O357  1  0.627520  0.499970  0.600540  1
  O  O358  1  0.372378  0.499972  0.600536  1
  O  O359  1  0.372399  0.000000  0.427527  1
  O  O360  1  -0.000000  0.584540  0.440643  1
  O  O361  1  0.499973  0.915396  0.440640  1
  O  O362  1  0.832752  0.579997  0.457372  1
  O  O363  1  0.167151  0.579957  0.457365  1
  O  O364  1  0.667174  0.919969  0.457363  1
  O  O365  1  0.332764  0.919947  0.457366  1
  O  O366  1  0.249737  0.625729  0.527522  1
  O  O367  1  0.750087  0.625763  0.527522  1
  O  O368  1  0.250092  0.874167  0.527514  1
  O  O369  1  0.749747  0.874217  0.527522  1
  O  O370  1  0.260819  0.870449  0.491029  1
  O  O371  1  0.739008  0.870475  0.491036  1
  O  O372  1  0.239009  0.629446  0.491036  1
  O  O373  1  0.760825  0.629484  0.491037  1
  O  O374  1  0.407388  0.954968  0.488958  1
  O  O375  1  0.592385  0.954925  0.488943  1
  O  O376  1  0.092386  0.544986  0.488949  1
  O  O377  1  0.907388  0.544964  0.488960  1
  O  O378  1  0.249897  0.749948  0.510869  1
  O  O379  1  0.749885  0.749985  0.510875  1
  O  O380  1  0.399675  0.660230  0.508491  1
  O  O381  1  0.600143  0.660235  0.508490  1
  O  O382  1  0.100141  0.839685  0.508485  1
  O  O383  1  0.899672  0.839693  0.508490  1
  O  O384  1  0.499914  0.544050  0.517476  1
  O  O385  1  -0.000000  0.955873  0.517472  1
  O  O386  1  0.499922  0.905393  0.518108  1
  O  O387  1  -0.000000  0.594531  0.518112  1
  O  O388  1  0.499918  0.657184  0.538397  1
  O  O389  1  0.000000  0.842742  0.538394  1
  O  O390  1  0.627541  0.000000  0.427517  1
  O  O391  1  0.352092  0.138310  0.431548  1
  O  O392  1  0.647822  0.138296  0.431547  1
  O  O393  1  0.147783  0.361634  0.431552  1
  O  O394  1  0.852069  0.361627  0.431554  1
  O  O395  1  0.249894  0.249955  0.444939  1
  O  O396  1  0.749906  0.249973  0.444943  1
  O  O397  1  0.262215  0.129466  0.463717  1
  O  O398  1  0.737576  0.129496  0.463727  1
  O  O399  1  0.237588  0.370426  0.463727  1
  O  O400  1  0.762210  0.370459  0.463725  1
  O  O401  1  0.407036  0.210779  0.461054  1
  O  O402  1  0.592727  0.210772  0.461043  1
  O  O403  1  0.092738  0.289154  0.461050  1
  O  O404  1  0.907045  0.289160  0.461058  1
  O  O405  1  0.246249  0.006180  0.481107  1
  O  O406  1  0.253531  0.493712  0.481120  1
  O  O407  1  0.746243  0.493755  0.481111  1
  O  O408  1  0.249732  0.125727  0.500534  1
  O  O409  1  0.750101  0.125768  0.500543  1
  O  O410  1  0.250077  0.374173  0.500545  1
  O  O411  1  0.749739  0.374215  0.500541  1
  O  O412  1  0.100857  0.093037  0.480066  1
  O  O413  1  0.898941  0.093047  0.480069  1
  O  O414  1  0.398941  0.406875  0.480074  1
  O  O415  1  0.600856  0.406894  0.480072  1
  O  O416  1  0.260817  0.370447  0.537030  1
  O  O417  1  0.739008  0.370482  0.537027  1
  O  O418  1  0.239000  0.129448  0.537020  1
  O  O419  1  0.760822  0.129487  0.537028  1
  O  O420  1  0.407399  0.454948  0.539108  1
  O  O421  1  0.592396  0.454947  0.539113  1
  O  O422  1  0.092387  0.044985  0.539111  1
  O  O423  1  0.907391  0.044973  0.539102  1
  O  O424  1  0.249899  0.249949  0.517188  1
  O  O425  1  0.749866  0.249988  0.517190  1
  O  O426  1  0.399668  0.160220  0.519567  1
  O  O427  1  0.600139  0.160232  0.519572  1
  O  O428  1  0.100138  0.339681  0.519576  1
  O  O429  1  0.899667  0.339692  0.519572  1
  O  O430  1  0.499948  0.044052  0.510584  1
  O  O431  1  -0.000000  0.455871  0.510589  1
  O  O432  1  0.499910  0.405388  0.509953  1
  O  O433  1  -0.000000  0.094530  0.509949  1
  O  O434  1  0.499917  0.157187  0.489662  1
  O  O435  1  -0.000000  0.342741  0.489668  1
  O  O436  1  0.499921  0.293971  0.485081  1
  O  O437  1  -0.000000  0.205954  0.485082  1
  O  O438  1  0.753529  0.006214  0.481122  1
  O  O439  1  0.127517  0.499970  0.427519  1
  O  O440  1  0.872373  0.499962  0.427533  1
  Si  Si441  1  0.817024  0.682329  0.405388  1
  Si  Si442  1  0.182985  0.682322  0.405390  1
  Si  Si443  1  0.682984  0.817605  0.405386  1
  Si  Si444  1  0.317033  0.817595  0.405387  1
  Si  Si445  1  0.715117  0.588931  0.373793  1
  Si  Si446  1  0.284894  0.588900  0.373801  1
  Si  Si447  1  0.784913  0.911011  0.373796  1
  Si  Si448  1  0.215134  0.910991  0.373791  1
  Si  Si449  1  0.785654  0.668363  0.336153  1
  Si  Si450  1  0.214356  0.668337  0.336161  1
  Si  Si451  1  0.714373  0.831578  0.336156  1
  Si  Si452  1  0.285662  0.831547  0.336152  1
  Si  Si453  1  -0.000000  0.964690  0.328496  1
  Si  Si454  1  0.499995  0.535218  0.328500  1
  Si  Si455  1  -0.000000  0.630661  0.343612  1
  Si  Si456  1  0.500011  0.869240  0.343607  1
  Si  Si457  1  0.000000  0.718897  0.381316  1
  Si  Si458  1  0.500009  0.781021  0.381313  1
  Si  Si459  1  0.499999  0.620135  0.366944  1
  Si  Si460  1  0.000000  0.879774  0.366940  1
  Si  Si461  1  -0.000000  0.379776  0.315095  1
  Si  Si462  1  0.500014  0.120136  0.315092  1
  Si  Si463  1  0.388053  0.076481  0.417538  1
  Si  Si464  1  0.611881  0.076477  0.417532  1
  Si  Si465  1  0.111850  0.423451  0.417536  1
  Si  Si466  1  0.888022  0.423455  0.417543  1
  Si  Si467  1  0.809162  0.434939  0.375802  1
  Si  Si468  1  0.190818  0.434919  0.375802  1
  Si  Si469  1  0.690840  0.064992  0.375798  1
  Si  Si470  1  0.309190  0.064980  0.375797  1
  Si  Si471  1  0.785670  0.168364  0.345880  1
  Si  Si472  1  0.214374  0.168343  0.345876  1
  Si  Si473  1  0.714361  0.331573  0.345880  1
  Si  Si474  1  0.285653  0.331559  0.345883  1
  Si  Si475  1  -0.000000  0.464687  0.353539  1
  Si  Si476  1  0.500018  0.035215  0.353535  1
  Si  Si477  1  -0.000000  0.130664  0.338424  1
  Si  Si478  1  0.500003  0.369244  0.338427  1
  Si  Si479  1  0.388036  0.576484  0.264498  1
  Si  Si480  1  0.611864  0.576484  0.264501  1
  Si  Si481  1  0.111886  0.923454  0.264498  1
  Si  Si482  1  0.888057  0.923459  0.264495  1
  Si  Si483  1  0.316943  0.682322  0.232375  1
  Si  Si484  1  0.682896  0.682343  0.232377  1
  Si  Si485  1  0.182897  0.817596  0.232373  1
  Si  Si486  1  0.816941  0.817617  0.232374  1
  Si  Si487  1  0.215024  0.588912  0.200785  1
  Si  Si488  1  0.784800  0.588938  0.200784  1
  Si  Si489  1  0.284795  0.910990  0.200776  1
  Si  Si490  1  0.715017  0.911026  0.200785  1
  Si  Si491  1  0.809188  0.934943  0.306235  1
  Si  Si492  1  0.190846  0.934918  0.306233  1
  Si  Si493  1  0.690814  0.564996  0.306236  1
  Si  Si494  1  0.309166  0.564981  0.306238  1
  Si  Si495  1  0.499918  0.718903  0.208302  1
  Si  Si496  1  0.000000  0.781029  0.208301  1
  Si  Si497  1  0.500003  0.281021  0.300721  1
  Si  Si498  1  0.888060  0.076484  0.244522  1
  Si  Si499  1  0.111889  0.076479  0.244524  1
  Si  Si500  1  0.611863  0.423458  0.244528  1
  Si  Si501  1  0.388034  0.423457  0.244525  1
  Si  Si502  1  0.817028  0.182339  0.276646  1
  Si  Si503  1  0.182983  0.182316  0.276647  1
  Si  Si504  1  0.682974  0.317608  0.276648  1
  Si  Si505  1  0.317016  0.317595  0.276650  1
  Si  Si506  1  0.715132  0.088933  0.308240  1
  Si  Si507  1  0.284908  0.088904  0.308236  1
  Si  Si508  1  0.784886  0.411014  0.308240  1
  Si  Si509  1  0.215106  0.410993  0.308244  1
  Si  Si510  1  0.309082  0.434925  0.202789  1
  Si  Si511  1  0.690739  0.434951  0.202788  1
  Si  Si512  1  0.190740  0.064980  0.202783  1
  Si  Si513  1  0.809088  0.065009  0.202788  1
  Si  Si514  1  -0.000000  0.218896  0.300721  1
  Si  Si515  1  0.000000  0.869253  0.170595  1
  Si  Si516  1  0.499912  0.630670  0.170598  1
  Si  Si517  1  0.000000  0.535224  0.155488  1
  Si  Si518  1  0.499914  0.879783  0.193927  1
  Si  Si519  1  0.000000  0.620144  0.193931  1
  Si  Si520  1  0.309089  0.934929  0.133220  1
  Si  Si521  1  0.690744  0.934942  0.133222  1
  Si  Si522  1  0.190734  0.564978  0.133224  1
  Si  Si523  1  0.809083  0.565006  0.133226  1
  Si  Si524  1  0.285557  0.668344  0.163144  1
  Si  Si525  1  0.714258  0.668374  0.163145  1
  Si  Si526  1  0.214258  0.831555  0.163137  1
  Si  Si527  1  0.785553  0.831585  0.163145  1
  Si  Si528  1  0.499913  0.964696  0.155484  1
  Si  Si529  1  0.499905  0.379780  0.142083  1
  Si  Si530  1  0.316928  0.182323  0.103632  1
  Si  Si531  1  0.682886  0.182333  0.103634  1
  Si  Si532  1  0.182880  0.317594  0.103636  1
  Si  Si533  1  0.816926  0.317610  0.103638  1
  Si  Si534  1  0.215010  0.088909  0.135221  1
  Si  Si535  1  0.784787  0.088937  0.135230  1
  Si  Si536  1  0.284788  0.410989  0.135231  1
  Si  Si537  1  0.715009  0.411025  0.135228  1
  Si  Si538  1  0.285551  0.168342  0.172862  1
  Si  Si539  1  0.714254  0.168374  0.172870  1
  Si  Si540  1  0.214256  0.331555  0.172871  1
  Si  Si541  1  0.785547  0.331586  0.172867  1
  Si  Si542  1  0.499905  0.464696  0.180527  1
  Si  Si543  1  -0.000000  0.035227  0.180523  1
  Si  Si544  1  0.499912  0.130671  0.165410  1
  Si  Si545  1  -0.000000  0.369251  0.165416  1
  Si  Si546  1  0.499901  0.218903  0.127706  1
  Si  Si547  1  -0.000000  0.281029  0.127710  1
  Si  Si548  1  -0.000000  0.120142  0.142079  1
  Si  Si549  1  0.817024  0.682329  0.751413  1
  Si  Si550  1  0.182985  0.682322  0.751415  1
  Si  Si551  1  0.682984  0.817605  0.751411  1
  Si  Si552  1  0.317033  0.817595  0.751412  1
  Si  Si553  1  0.715117  0.588931  0.719819  1
  Si  Si554  1  0.284894  0.588900  0.719826  1
  Si  Si555  1  0.784913  0.911011  0.719821  1
  Si  Si556  1  0.215134  0.910991  0.719817  1
  Si  Si557  1  0.785654  0.668363  0.682178  1
  Si  Si558  1  0.214356  0.668337  0.682186  1
  Si  Si559  1  0.714373  0.831578  0.682181  1
  Si  Si560  1  0.285662  0.831547  0.682178  1
  Si  Si561  1  -0.000000  0.964690  0.674521  1
  Si  Si562  1  0.499995  0.535218  0.674525  1
  Si  Si563  1  -0.000000  0.630661  0.689637  1
  Si  Si564  1  0.500011  0.869240  0.689632  1
  Si  Si565  1  0.000000  0.718897  0.727341  1
  Si  Si566  1  0.500009  0.781021  0.727338  1
  Si  Si567  1  0.499999  0.620135  0.712969  1
  Si  Si568  1  -0.000000  0.879774  0.712965  1
  Si  Si569  1  -0.000000  0.379776  0.661120  1
  Si  Si570  1  0.500014  0.120136  0.661117  1
  Si  Si571  1  0.809162  0.434939  0.721827  1
  Si  Si572  1  0.190818  0.434919  0.721827  1
  Si  Si573  1  0.690840  0.064992  0.721823  1
  Si  Si574  1  0.309190  0.064980  0.721822  1
  Si  Si575  1  0.785670  0.168364  0.691905  1
  Si  Si576  1  0.214374  0.168343  0.691901  1
  Si  Si577  1  0.714361  0.331573  0.691905  1
  Si  Si578  1  0.285653  0.331559  0.691908  1
  Si  Si579  1  -0.000000  0.464687  0.699564  1
  Si  Si580  1  0.500018  0.035215  0.699560  1
  Si  Si581  1  -0.000000  0.130664  0.684450  1
  Si  Si582  1  0.500003  0.369244  0.684452  1
  Si  Si583  1  0.388036  0.576484  0.610523  1
  Si  Si584  1  0.611864  0.576484  0.610526  1
  Si  Si585  1  0.111886  0.923454  0.610523  1
  Si  Si586  1  0.888057  0.923459  0.610520  1
  Si  Si587  1  0.316943  0.682322  0.578401  1
  Si  Si588  1  0.682896  0.682343  0.578403  1
  Si  Si589  1  0.182897  0.817596  0.578398  1
  Si  Si590  1  0.816941  0.817617  0.578399  1
  Si  Si591  1  0.215024  0.588912  0.546810  1
  Si  Si592  1  0.784800  0.588938  0.546809  1
  Si  Si593  1  0.284795  0.910990  0.546802  1
  Si  Si594  1  0.715017  0.911026  0.546810  1
  Si  Si595  1  0.809188  0.934943  0.652260  1
  Si  Si596  1  0.190846  0.934918  0.652259  1
  Si  Si597  1  0.690814  0.564996  0.652261  1
  Si  Si598  1  0.309166  0.564981  0.652263  1
  Si  Si599  1  0.499918  0.718903  0.554327  1
  Si  Si600  1  0.000000  0.781029  0.554326  1
  Si  Si601  1  0.500003  0.281021  0.646746  1
  Si  Si602  1  0.888060  0.076484  0.590547  1
  Si  Si603  1  0.111889  0.076479  0.590549  1
  Si  Si604  1  0.611863  0.423458  0.590553  1
  Si  Si605  1  0.388034  0.423457  0.590551  1
  Si  Si606  1  0.817028  0.182339  0.622671  1
  Si  Si607  1  0.182983  0.182316  0.622672  1
  Si  Si608  1  0.682974  0.317608  0.622673  1
  Si  Si609  1  0.317016  0.317595  0.622675  1
  Si  Si610  1  0.715132  0.088933  0.654265  1
  Si  Si611  1  0.284908  0.088904  0.654261  1
  Si  Si612  1  0.784886  0.411014  0.654265  1
  Si  Si613  1  0.215106  0.410993  0.654269  1
  Si  Si614  1  0.309082  0.434925  0.548815  1
  Si  Si615  1  0.690739  0.434951  0.548814  1
  Si  Si616  1  0.190740  0.064980  0.548808  1
  Si  Si617  1  0.809088  0.065009  0.548813  1
  Si  Si618  1  -0.000000  0.218896  0.646746  1
  Si  Si619  1  -0.000000  0.869253  0.516620  1
  Si  Si620  1  0.499912  0.630670  0.516623  1
  Si  Si621  1  -0.000000  0.535224  0.501513  1
  Si  Si622  1  0.499914  0.879783  0.539953  1
  Si  Si623  1  -0.000000  0.620144  0.539956  1
  Si  Si624  1  0.888040  0.576481  0.437516  1
  Si  Si625  1  0.111868  0.576478  0.437509  1
  Si  Si626  1  0.611886  0.923453  0.437506  1
  Si  Si627  1  0.388058  0.923457  0.437512  1
  Si  Si628  1  0.309089  0.934929  0.479246  1
  Si  Si629  1  0.690744  0.934942  0.479247  1
  Si  Si630  1  0.190734  0.564978  0.479249  1
  Si  Si631  1  0.809083  0.565006  0.479251  1
  Si  Si632  1  0.285557  0.668344  0.509169  1
  Si  Si633  1  0.714258  0.668374  0.509170  1
  Si  Si634  1  0.214258  0.831555  0.509162  1
  Si  Si635  1  0.785553  0.831585  0.509171  1
  Si  Si636  1  0.499913  0.964696  0.501509  1
  Si  Si637  1  0.499905  0.379780  0.488108  1
  Si  Si638  1  0.316928  0.182323  0.449657  1
  Si  Si639  1  0.682886  0.182333  0.449659  1
  Si  Si640  1  0.182880  0.317594  0.449661  1
  Si  Si641  1  0.816926  0.317610  0.449664  1
  Si  Si642  1  0.215010  0.088909  0.481246  1
  Si  Si643  1  0.784787  0.088937  0.481255  1
  Si  Si644  1  0.284788  0.410989  0.481256  1
  Si  Si645  1  0.715009  0.411025  0.481253  1
  Si  Si646  1  0.285551  0.168342  0.518887  1
  Si  Si647  1  0.714254  0.168374  0.518895  1
  Si  Si648  1  0.214256  0.331555  0.518897  1
  Si  Si649  1  0.785547  0.331586  0.518893  1
  Si  Si650  1  0.499905  0.464696  0.526552  1
  Si  Si651  1  -0.000000  0.035227  0.526548  1
  Si  Si652  1  0.499912  0.130671  0.511436  1
  Si  Si653  1  -0.000000  0.369251  0.511442  1
  Si  Si654  1  0.499901  0.218903  0.473731  1
  Si  Si655  1  -0.000000  0.281029  0.473736  1
  Si  Si656  1  -0.000000  0.120142  0.488105  1
  H  H657  1  0.832752  0.579997  0.098301  1
  H  H658  1  0.167151  0.579957  0.098294  1
  H  H659  1  0.667174  0.919969  0.098292  1
  H  H660  1  0.332764  0.919947  0.098295  1
  H  H661  1  0.352092  0.138310  0.072477  1
  H  H662  1  0.647822  0.138296  0.072476  1
  H  H663  1  0.147783  0.361634  0.072481  1
  H  H664  1  0.852069  0.361627  0.072483  1
  H  H665  1  0.852103  0.638297  0.782571  1
  H  H666  1  0.147831  0.638308  0.782570  1
  H  H667  1  0.647840  0.861623  0.782566  1
  H  H668  1  0.352124  0.861635  0.782567  1
  H  H669  1  0.332774  0.079965  0.756752  1
  H  H670  1  0.667171  0.079983  0.756748  1
  H  H671  1  0.167141  0.419930  0.756752  1
  H  H672  1  0.832731  0.419972  0.756758  1
