# generated using pymatgen
data_Si32H2O65
_symmetry_space_group_name_H-M   'P 1'
_cell_length_a   16.21908833
_cell_length_b   9.78145438
_cell_length_c   67.66667086
_cell_angle_alpha   90.00000000
_cell_angle_beta   90.00000000
_cell_angle_gamma   90.00000000
_symmetry_Int_Tables_number   1
_chemical_formula_structural   Si32H2O65
_chemical_formula_sum   'Si128 H8 O260'
_cell_volume   10735.06511
_cell_formula_units_Z   4
loop_
 _symmetry_equiv_pos_site_id
 _symmetry_equiv_pos_as_xyz
  1  'x, y, z'
loop_
 _atom_site_type_symbol
 _atom_site_label
 _atom_site_symmetry_multiplicity
 _atom_site_fract_x
 _atom_site_fract_y
 _atom_site_fract_z
 _atom_site_occupancy
  O  O1  1  0.613925  0.051013  0.087192  1
  O  O2  1  0.613925  0.551013  0.087192  1
  O  O3  1  0.409411  0.172750  0.150940  1
  O  O4  1  0.590737  0.327129  0.150933  1
  O  O5  1  0.909429  0.077137  0.192914  1
  O  O6  1  0.090743  0.422766  0.192918  1
  O  O7  1  0.590689  0.326900  0.362368  1
  O  O8  1  0.409372  0.172515  0.362377  1
  O  O9  1  0.090682  0.422515  0.320401  1
  O  O10  1  0.909379  0.076893  0.320397  1
  O  O11  1  0.500087  0.000000  0.168488  1
  O  O12  1  -0.000000  0.250005  0.175363  1
  O  O13  1  0.500030  0.000000  0.344819  1
  O  O14  1  -0.000000  0.249674  0.337953  1
  O  O15  1  0.500086  0.249969  0.178442  1
  O  O16  1  -0.000000  0.000000  0.165408  1
  O  O17  1  0.500016  0.249697  0.334865  1
  O  O18  1  -0.000000  0.000000  0.347907  1
  O  O19  1  0.370140  0.089202  0.184434  1
  O  O20  1  0.630037  0.410730  0.184426  1
  O  O21  1  0.870138  0.160734  0.159418  1
  O  O22  1  0.130025  0.339210  0.159423  1
  O  O23  1  0.629974  0.410445  0.328873  1
  O  O24  1  0.370070  0.088921  0.328886  1
  O  O25  1  0.129970  0.338921  0.353897  1
  O  O26  1  0.870076  0.160440  0.353891  1
  O  O27  1  0.268199  0.423066  0.169295  1
  O  O28  1  0.731957  0.076936  0.169292  1
  O  O29  1  0.768216  0.326936  0.174548  1
  O  O30  1  0.231962  0.173067  0.174563  1
  O  O31  1  0.731907  0.076590  0.344013  1
  O  O32  1  0.268151  0.422724  0.344023  1
  O  O33  1  0.231891  0.172725  0.338763  1
  O  O34  1  0.768148  0.326589  0.338749  1
  O  O35  1  0.230898  0.002192  0.202816  1
  O  O36  1  0.769277  0.497724  0.202810  1
  O  O37  1  0.730893  0.247734  0.141032  1
  O  O38  1  0.269258  0.252196  0.141043  1
  O  O39  1  0.769231  0.497447  0.310494  1
  O  O40  1  0.230837  0.001911  0.310505  1
  O  O41  1  0.269211  0.251895  0.372280  1
  O  O42  1  0.730831  0.247439  0.372268  1
  O  O43  1  0.500060  0.000000  0.110849  1
  O  O44  1  -0.000000  0.249966  0.233008  1
  O  O45  1  0.500020  0.000000  0.402460  1
  O  O46  1  -0.000000  0.249658  0.280306  1
  O  O47  1  0.643621  0.417280  0.118966  1
  O  O48  1  0.356513  0.082706  0.118965  1
  O  O49  1  0.143637  0.332688  0.224893  1
  O  O50  1  0.856536  0.167245  0.224882  1
  O  O51  1  0.356460  0.082285  0.394337  1
  O  O52  1  0.643566  0.416912  0.394346  1
  O  O53  1  0.856509  0.166943  0.288418  1
  O  O54  1  0.143608  0.332329  0.288439  1
  O  O55  1  0.608385  0.168086  0.121081  1
  O  O56  1  0.391773  0.331909  0.121110  1
  O  O57  1  0.108387  0.081889  0.222755  1
  O  O58  1  0.891770  0.418052  0.222765  1
  O  O59  1  0.391713  0.331479  0.392236  1
  O  O60  1  0.608306  0.167708  0.392196  1
  O  O61  1  0.891761  0.417742  0.290562  1
  O  O62  1  0.108358  0.081522  0.290542  1
  O  O63  1  0.613925  0.051013  0.426099  1
  O  O64  1  0.386148  0.448629  0.087210  1
  O  O65  1  0.113969  0.198657  0.256655  1
  O  O66  1  0.886187  0.300999  0.256658  1
  O  O67  1  0.409411  0.672749  0.150940  1
  O  O68  1  0.590737  0.827128  0.150933  1
  O  O69  1  0.909429  0.577137  0.192914  1
  O  O70  1  0.090743  0.922765  0.192918  1
  O  O71  1  0.590688  0.826900  0.362368  1
  O  O72  1  0.409372  0.672516  0.362377  1
  O  O73  1  0.090682  0.922515  0.320401  1
  O  O74  1  0.909379  0.576893  0.320397  1
  O  O75  1  0.500087  0.499965  0.168488  1
  O  O76  1  -0.000000  0.750005  0.175363  1
  O  O77  1  0.500030  0.499702  0.344819  1
  O  O78  1  0.000000  0.749674  0.337953  1
  O  O79  1  0.500086  0.749969  0.178442  1
  O  O80  1  -0.000000  0.500007  0.165408  1
  O  O81  1  0.500016  0.749697  0.334865  1
  O  O82  1  -0.000000  0.499671  0.347907  1
  O  O83  1  0.370141  0.589201  0.184434  1
  O  O84  1  0.630037  0.910729  0.184426  1
  O  O85  1  0.870138  0.660734  0.159418  1
  O  O86  1  0.130025  0.839210  0.159423  1
  O  O87  1  0.629974  0.910445  0.328873  1
  O  O88  1  0.370070  0.588922  0.328886  1
  O  O89  1  0.129970  0.838921  0.353897  1
  O  O90  1  0.870076  0.660440  0.353891  1
  O  O91  1  0.268199  0.923066  0.169295  1
  O  O92  1  0.731957  0.576936  0.169292  1
  O  O93  1  0.768216  0.826936  0.174548  1
  O  O94  1  0.231962  0.673067  0.174563  1
  O  O95  1  0.731907  0.576590  0.344013  1
  O  O96  1  0.268151  0.922724  0.344023  1
  O  O97  1  0.231891  0.672725  0.338763  1
  O  O98  1  0.768148  0.826589  0.338749  1
  O  O99  1  0.230899  0.502193  0.202816  1
  O  O100  1  0.769277  0.997723  0.202810  1
  O  O101  1  0.730893  0.747734  0.141032  1
  O  O102  1  0.269258  0.752196  0.141043  1
  O  O103  1  0.769231  0.997448  0.310494  1
  O  O104  1  0.230838  0.501911  0.310505  1
  O  O105  1  0.269211  0.751896  0.372280  1
  O  O106  1  0.730831  0.747439  0.372268  1
  O  O107  1  0.500060  0.499984  0.110849  1
  O  O108  1  0.000000  0.749967  0.233008  1
  O  O109  1  0.500020  0.499630  0.402460  1
  O  O110  1  -0.000000  0.749659  0.280306  1
  O  O111  1  0.643622  0.917280  0.118966  1
  O  O112  1  0.356513  0.582706  0.118965  1
  O  O113  1  0.143637  0.832688  0.224893  1
  O  O114  1  0.856537  0.667245  0.224882  1
  O  O115  1  0.356459  0.582285  0.394337  1
  O  O116  1  0.643566  0.916912  0.394346  1
  O  O117  1  0.856509  0.666943  0.288418  1
  O  O118  1  0.143608  0.832329  0.288439  1
  O  O119  1  0.608385  0.668086  0.121081  1
  O  O120  1  0.391773  0.831909  0.121110  1
  O  O121  1  0.108388  0.581889  0.222755  1
  O  O122  1  0.891770  0.918052  0.222765  1
  O  O123  1  0.391713  0.831479  0.392236  1
  O  O124  1  0.608305  0.667708  0.392196  1
  O  O125  1  0.891761  0.917743  0.290562  1
  O  O126  1  0.108358  0.581522  0.290542  1
  O  O127  1  0.613925  0.551013  0.426099  1
  O  O128  1  0.386148  0.948629  0.087211  1
  O  O129  1  0.113969  0.698657  0.256655  1
  O  O130  1  0.886187  0.801000  0.256658  1
  O  O131  1  0.409411  0.172750  0.489847  1
  O  O132  1  0.590737  0.327129  0.489840  1
  O  O133  1  0.909429  0.077137  0.531821  1
  O  O134  1  0.090743  0.422766  0.531824  1
  O  O135  1  0.590689  0.326900  0.701275  1
  O  O136  1  0.409372  0.172515  0.701284  1
  O  O137  1  0.090682  0.422515  0.659308  1
  O  O138  1  0.909379  0.076893  0.659304  1
  O  O139  1  0.500087  0.000000  0.507395  1
  O  O140  1  -0.000000  0.250005  0.514270  1
  O  O141  1  0.500030  0.000000  0.683726  1
  O  O142  1  -0.000000  0.249674  0.676860  1
  O  O143  1  0.500086  0.249969  0.517349  1
  O  O144  1  -0.000000  0.000000  0.504315  1
  O  O145  1  0.500016  0.249697  0.673772  1
  O  O146  1  -0.000000  0.000000  0.686814  1
  O  O147  1  0.370140  0.089202  0.523341  1
  O  O148  1  0.630037  0.410730  0.523332  1
  O  O149  1  0.870138  0.160734  0.498325  1
  O  O150  1  0.130025  0.339210  0.498330  1
  O  O151  1  0.629974  0.410445  0.667780  1
  O  O152  1  0.370070  0.088921  0.667793  1
  O  O153  1  0.129970  0.338921  0.692804  1
  O  O154  1  0.870076  0.160440  0.692797  1
  O  O155  1  0.268199  0.423066  0.508202  1
  O  O156  1  0.731957  0.076936  0.508199  1
  O  O157  1  0.768216  0.326936  0.513455  1
  O  O158  1  0.231962  0.173067  0.513470  1
  O  O159  1  0.731907  0.076590  0.682920  1
  O  O160  1  0.268151  0.422724  0.682930  1
  O  O161  1  0.231891  0.172725  0.677670  1
  O  O162  1  0.768148  0.326589  0.677655  1
  O  O163  1  0.230898  0.002192  0.541723  1
  O  O164  1  0.769277  0.497724  0.541717  1
  O  O165  1  0.730893  0.247734  0.479939  1
  O  O166  1  0.269258  0.252196  0.479950  1
  O  O167  1  0.769231  0.497447  0.649401  1
  O  O168  1  0.230837  0.001911  0.649412  1
  O  O169  1  0.269211  0.251895  0.711187  1
  O  O170  1  0.730831  0.247439  0.711175  1
  O  O171  1  0.500060  -0.000000  0.449756  1
  O  O172  1  -0.000000  0.249966  0.571915  1
  O  O173  1  0.500020  0.000000  0.741367  1
  O  O174  1  -0.000000  0.249658  0.619213  1
  O  O175  1  0.643621  0.417280  0.457873  1
  O  O176  1  0.356513  0.082706  0.457872  1
  O  O177  1  0.143637  0.332688  0.563800  1
  O  O178  1  0.856536  0.167245  0.563789  1
  O  O179  1  0.356460  0.082285  0.733244  1
  O  O180  1  0.643566  0.416912  0.733253  1
  O  O181  1  0.856509  0.166943  0.627325  1
  O  O182  1  0.143608  0.332329  0.627346  1
  O  O183  1  0.608385  0.168086  0.459988  1
  O  O184  1  0.391773  0.331909  0.460017  1
  O  O185  1  0.108387  0.081889  0.561661  1
  O  O186  1  0.891770  0.418052  0.561672  1
  O  O187  1  0.391713  0.331479  0.731143  1
  O  O188  1  0.608306  0.167708  0.731103  1
  O  O189  1  0.891761  0.417742  0.629469  1
  O  O190  1  0.108358  0.081522  0.629449  1
  O  O191  1  0.613925  0.051013  0.765006  1
  O  O192  1  0.386148  0.448629  0.426117  1
  O  O193  1  0.113969  0.198657  0.595562  1
  O  O194  1  0.886187  0.300999  0.595565  1
  O  O195  1  0.409411  0.672749  0.489847  1
  O  O196  1  0.590737  0.827128  0.489840  1
  O  O197  1  0.909429  0.577137  0.531821  1
  O  O198  1  0.090743  0.922765  0.531825  1
  O  O199  1  0.590688  0.826900  0.701275  1
  O  O200  1  0.409372  0.672516  0.701284  1
  O  O201  1  0.090682  0.922515  0.659308  1
  O  O202  1  0.909379  0.576893  0.659304  1
  O  O203  1  0.500087  0.499965  0.507395  1
  O  O204  1  -0.000000  0.750005  0.514270  1
  O  O205  1  0.500030  0.499702  0.683726  1
  O  O206  1  -0.000000  0.749674  0.676860  1
  O  O207  1  0.500086  0.749969  0.517349  1
  O  O208  1  -0.000000  0.500007  0.504315  1
  O  O209  1  0.500016  0.749697  0.673772  1
  O  O210  1  -0.000000  0.499671  0.686814  1
  O  O211  1  0.370141  0.589201  0.523341  1
  O  O212  1  0.630037  0.910729  0.523332  1
  O  O213  1  0.870138  0.660734  0.498325  1
  O  O214  1  0.130025  0.839210  0.498330  1
  O  O215  1  0.629974  0.910445  0.667780  1
  O  O216  1  0.370070  0.588922  0.667793  1
  O  O217  1  0.129970  0.838921  0.692804  1
  O  O218  1  0.870076  0.660440  0.692797  1
  O  O219  1  0.268199  0.923066  0.508202  1
  O  O220  1  0.731957  0.576936  0.508199  1
  O  O221  1  0.768216  0.826936  0.513455  1
  O  O222  1  0.231962  0.673067  0.513470  1
  O  O223  1  0.731907  0.576590  0.682920  1
  O  O224  1  0.268151  0.922724  0.682930  1
  O  O225  1  0.231891  0.672725  0.677670  1
  O  O226  1  0.768148  0.826589  0.677655  1
  O  O227  1  0.230899  0.502193  0.541723  1
  O  O228  1  0.769277  0.997723  0.541716  1
  O  O229  1  0.730893  0.747734  0.479939  1
  O  O230  1  0.269258  0.752196  0.479950  1
  O  O231  1  0.769231  0.997448  0.649401  1
  O  O232  1  0.230838  0.501911  0.649412  1
  O  O233  1  0.269211  0.751896  0.711187  1
  O  O234  1  0.730831  0.747439  0.711175  1
  O  O235  1  0.500060  0.499984  0.449756  1
  O  O236  1  -0.000000  0.749967  0.571915  1
  O  O237  1  0.500020  0.499630  0.741367  1
  O  O238  1  -0.000000  0.749659  0.619213  1
  O  O239  1  0.643622  0.917280  0.457873  1
  O  O240  1  0.356513  0.582706  0.457872  1
  O  O241  1  0.143637  0.832688  0.563800  1
  O  O242  1  0.856537  0.667245  0.563789  1
  O  O243  1  0.356459  0.582285  0.733244  1
  O  O244  1  0.643566  0.916912  0.733253  1
  O  O245  1  0.856509  0.666943  0.627325  1
  O  O246  1  0.143608  0.832329  0.627346  1
  O  O247  1  0.608385  0.668086  0.459988  1
  O  O248  1  0.391773  0.831909  0.460017  1
  O  O249  1  0.108388  0.581889  0.561661  1
  O  O250  1  0.891770  0.918052  0.561672  1
  O  O251  1  0.391713  0.831479  0.731143  1
  O  O252  1  0.608305  0.667708  0.731103  1
  O  O253  1  0.891761  0.917743  0.629469  1
  O  O254  1  0.108358  0.581522  0.629449  1
  O  O255  1  0.613925  0.551013  0.765006  1
  O  O256  1  0.386148  0.948629  0.426118  1
  O  O257  1  0.113969  0.698657  0.595562  1
  O  O258  1  0.886187  0.801000  0.595565  1
  O  O259  1  0.386148  0.448629  0.765024  1
  O  O260  1  0.386148  0.948629  0.765025  1
  Si  Si261  1  0.445383  0.128920  0.171494  1
  Si  Si262  1  0.554786  0.370999  0.171488  1
  Si  Si263  1  0.945378  0.121028  0.172359  1
  Si  Si264  1  0.054781  0.378948  0.172361  1
  Si  Si265  1  0.554728  0.370739  0.341813  1
  Si  Si266  1  0.445323  0.128660  0.341821  1
  Si  Si267  1  0.054730  0.378639  0.340956  1
  Si  Si268  1  0.945327  0.120720  0.340954  1
  Si  Si269  1  0.277978  0.047095  0.183950  1
  Si  Si270  1  0.722198  0.452879  0.183943  1
  Si  Si271  1  0.777983  0.202876  0.159898  1
  Si  Si272  1  0.222187  0.297093  0.159908  1
  Si  Si273  1  0.722136  0.452555  0.329359  1
  Si  Si274  1  0.277911  0.046774  0.329372  1
  Si  Si275  1  0.222126  0.296776  0.353415  1
  Si  Si276  1  0.777917  0.202555  0.353403  1
  Si  Si277  1  0.594044  0.033500  0.109219  1
  Si  Si278  1  0.406078  0.466422  0.109230  1
  Si  Si279  1  0.094070  0.216414  0.234633  1
  Si  Si280  1  0.906099  0.283480  0.234632  1
  Si  Si281  1  0.406039  0.466097  0.404091  1
  Si  Si282  1  0.594000  0.033205  0.404079  1
  Si  Si283  1  0.906080  0.283224  0.278682  1
  Si  Si284  1  0.094047  0.216126  0.278682  1
  Si  Si285  1  0.354309  0.208529  0.132650  1
  Si  Si286  1  0.645835  0.291399  0.132639  1
  Si  Si287  1  0.854329  0.041375  0.211206  1
  Si  Si288  1  0.145846  0.458524  0.211209  1
  Si  Si289  1  0.645774  0.291099  0.380660  1
  Si  Si290  1  0.354263  0.208200  0.380670  1
  Si  Si291  1  0.145793  0.458232  0.302110  1
  Si  Si292  1  0.854292  0.041116  0.302104  1
  Si  Si293  1  0.445384  0.628919  0.171494  1
  Si  Si294  1  0.554789  0.871001  0.171488  1
  Si  Si295  1  0.945381  0.621027  0.172359  1
  Si  Si296  1  0.054779  0.878948  0.172362  1
  Si  Si297  1  0.554727  0.870738  0.341813  1
  Si  Si298  1  0.445324  0.628661  0.341821  1
  Si  Si299  1  0.054726  0.878642  0.340956  1
  Si  Si300  1  0.945328  0.620722  0.340954  1
  Si  Si301  1  0.277975  0.547093  0.183950  1
  Si  Si302  1  0.722194  0.952877  0.183942  1
  Si  Si303  1  0.777979  0.702878  0.159898  1
  Si  Si304  1  0.222189  0.797092  0.159908  1
  Si  Si305  1  0.722137  0.952556  0.329359  1
  Si  Si306  1  0.277911  0.546774  0.329372  1
  Si  Si307  1  0.222130  0.796773  0.353415  1
  Si  Si308  1  0.777914  0.702557  0.353403  1
  Si  Si309  1  0.594044  0.533499  0.109219  1
  Si  Si310  1  0.406078  0.966423  0.109230  1
  Si  Si311  1  0.094070  0.716415  0.234633  1
  Si  Si312  1  0.906099  0.783481  0.234632  1
  Si  Si313  1  0.406039  0.966098  0.404091  1
  Si  Si314  1  0.594000  0.533204  0.404079  1
  Si  Si315  1  0.906080  0.783224  0.278682  1
  Si  Si316  1  0.094047  0.716126  0.278682  1
  Si  Si317  1  0.354308  0.708530  0.132650  1
  Si  Si318  1  0.645837  0.791397  0.132640  1
  Si  Si319  1  0.854328  0.541374  0.211205  1
  Si  Si320  1  0.145844  0.958522  0.211209  1
  Si  Si321  1  0.645776  0.791097  0.380659  1
  Si  Si322  1  0.354261  0.708201  0.380670  1
  Si  Si323  1  0.145793  0.958232  0.302110  1
  Si  Si324  1  0.854293  0.541116  0.302104  1
  Si  Si325  1  0.445383  0.128920  0.510401  1
  Si  Si326  1  0.554786  0.370999  0.510395  1
  Si  Si327  1  0.945378  0.121028  0.511266  1
  Si  Si328  1  0.054781  0.378948  0.511268  1
  Si  Si329  1  0.554728  0.370739  0.680720  1
  Si  Si330  1  0.445323  0.128660  0.680728  1
  Si  Si331  1  0.054730  0.378639  0.679863  1
  Si  Si332  1  0.945327  0.120720  0.679861  1
  Si  Si333  1  0.277978  0.047095  0.522857  1
  Si  Si334  1  0.722198  0.452879  0.522850  1
  Si  Si335  1  0.777983  0.202876  0.498805  1
  Si  Si336  1  0.222187  0.297093  0.498815  1
  Si  Si337  1  0.722136  0.452555  0.668266  1
  Si  Si338  1  0.277911  0.046774  0.668279  1
  Si  Si339  1  0.222126  0.296776  0.692322  1
  Si  Si340  1  0.777917  0.202555  0.692310  1
  Si  Si341  1  0.594044  0.033500  0.448126  1
  Si  Si342  1  0.406078  0.466422  0.448136  1
  Si  Si343  1  0.094070  0.216414  0.573540  1
  Si  Si344  1  0.906099  0.283480  0.573539  1
  Si  Si345  1  0.406039  0.466097  0.742998  1
  Si  Si346  1  0.594000  0.033205  0.742986  1
  Si  Si347  1  0.906080  0.283224  0.617589  1
  Si  Si348  1  0.094047  0.216126  0.617589  1
  Si  Si349  1  0.354309  0.208529  0.471557  1
  Si  Si350  1  0.645835  0.291399  0.471546  1
  Si  Si351  1  0.854329  0.041375  0.550113  1
  Si  Si352  1  0.145846  0.458524  0.550116  1
  Si  Si353  1  0.645774  0.291099  0.719567  1
  Si  Si354  1  0.354263  0.208200  0.719577  1
  Si  Si355  1  0.145793  0.458232  0.641017  1
  Si  Si356  1  0.854292  0.041116  0.641011  1
  Si  Si357  1  0.445384  0.628919  0.510401  1
  Si  Si358  1  0.554789  0.871001  0.510395  1
  Si  Si359  1  0.945381  0.621027  0.511266  1
  Si  Si360  1  0.054779  0.878948  0.511269  1
  Si  Si361  1  0.554727  0.870738  0.680720  1
  Si  Si362  1  0.445324  0.628661  0.680728  1
  Si  Si363  1  0.054726  0.878642  0.679863  1
  Si  Si364  1  0.945328  0.620722  0.679861  1
  Si  Si365  1  0.277975  0.547093  0.522857  1
  Si  Si366  1  0.722194  0.952877  0.522849  1
  Si  Si367  1  0.777979  0.702878  0.498805  1
  Si  Si368  1  0.222189  0.797092  0.498815  1
  Si  Si369  1  0.722137  0.952556  0.668266  1
  Si  Si370  1  0.277911  0.546774  0.668279  1
  Si  Si371  1  0.222130  0.796773  0.692322  1
  Si  Si372  1  0.777914  0.702557  0.692310  1
  Si  Si373  1  0.594044  0.533499  0.448126  1
  Si  Si374  1  0.406078  0.966423  0.448137  1
  Si  Si375  1  0.094070  0.716415  0.573540  1
  Si  Si376  1  0.906099  0.783481  0.573539  1
  Si  Si377  1  0.406039  0.966098  0.742998  1
  Si  Si378  1  0.594000  0.533204  0.742986  1
  Si  Si379  1  0.906080  0.783224  0.617589  1
  Si  Si380  1  0.094047  0.716126  0.617589  1
  Si  Si381  1  0.354308  0.708530  0.471557  1
  Si  Si382  1  0.645837  0.791397  0.471546  1
  Si  Si383  1  0.854328  0.541374  0.550112  1
  Si  Si384  1  0.145844  0.958522  0.550116  1
  Si  Si385  1  0.645776  0.791097  0.719566  1
  Si  Si386  1  0.354261  0.708201  0.719577  1
  Si  Si387  1  0.145793  0.958232  0.641017  1
  Si  Si388  1  0.854293  0.541116  0.641010  1
  H  H389  1  0.613925  0.051013  0.073892  1
  H  H390  1  0.613925  0.551013  0.073892  1
  H  H391  1  0.386148  0.448629  0.073910  1
  H  H392  1  0.386148  0.948629  0.073910  1
  H  H393  1  0.613925  0.051013  0.778306  1
  H  H394  1  0.613925  0.551013  0.778306  1
  H  H395  1  0.386148  0.448629  0.778325  1
  H  H396  1  0.386148  0.948629  0.778325  1
