# generated using pymatgen
data_Si8H2O17
_symmetry_space_group_name_H-M   'P 1'
_cell_length_a   11.39954126
_cell_length_b   25.27156065
_cell_length_c   35.66457634
_cell_angle_alpha   90.00000000
_cell_angle_beta   90.00000000
_cell_angle_gamma   90.00000000
_symmetry_Int_Tables_number   1
_chemical_formula_structural   Si8H2O17
_chemical_formula_sum   'Si64 H16 O136'
_cell_volume   10274.4008835
_cell_formula_units_Z   8
loop_
 _symmetry_equiv_pos_site_id
 _symmetry_equiv_pos_as_xyz
  1  'x, y, z'
loop_
 _atom_site_type_symbol
 _atom_site_label
 _atom_site_symmetry_multiplicity
 _atom_site_fract_x
 _atom_site_fract_y
 _atom_site_fract_z
 _atom_site_occupancy
  O  O1  1  0.826249  0.838588  0.554176  1
  O  O2  1  0.173652  0.838591  0.554176  1
  O  O3  1  0.792129  0.898827  0.426892  1
  O  O4  1  0.207780  0.898829  0.426892  1
  O  O5  1  0.811307  0.800792  0.415850  1
  O  O6  1  0.188594  0.699167  0.415859  1
  O  O7  1  0.811302  0.699166  0.415851  1
  O  O8  1  0.188596  0.800793  0.415850  1
  O  O9  1  0.615368  0.834374  0.435920  1
  O  O10  1  0.384539  0.834376  0.435918  1
  O  O11  1  0.793426  0.832032  0.482191  1
  O  O12  1  0.206476  0.667907  0.482193  1
  O  O13  1  0.793440  0.667910  0.482187  1
  O  O14  1  0.206482  0.832033  0.482190  1
  O  O15  1  0.845512  0.749971  0.520339  1
  O  O16  1  0.154398  0.749973  0.520340  1
  O  O17  1  0.000000  0.819080  0.510816  1
  O  O18  1  -0.000000  0.680863  0.510821  1
  O  O19  1  0.845567  0.929778  0.359895  1
  O  O20  1  0.000000  0.930209  0.409639  1
  O  O21  1  0.000000  0.749978  0.404953  1
  O  O22  1  0.499960  0.819674  0.374984  1
  O  O23  1  0.499944  0.680266  0.374986  1
  O  O24  1  0.499947  0.749973  0.424897  1
  O  O25  1  0.154343  0.929781  0.359895  1
  O  O26  1  0.611942  0.336006  0.406370  1
  O  O27  1  0.387939  0.336003  0.406368  1
  O  O28  1  0.782420  0.399585  0.425230  1
  O  O29  1  0.217473  0.399587  0.425232  1
  O  O30  1  0.673665  0.338592  0.474775  1
  O  O31  1  0.173663  0.661359  0.554179  1
  O  O32  1  0.826235  0.661354  0.554173  1
  O  O33  1  0.326244  0.338594  0.474775  1
  O  O34  1  0.207767  0.601129  0.426881  1
  O  O35  1  0.792120  0.601129  0.426877  1
  O  O36  1  0.384532  0.665573  0.435921  1
  O  O37  1  0.615367  0.665576  0.435921  1
  O  O38  1  -0.000000  0.428342  0.409863  1
  O  O39  1  0.154332  0.570172  0.359882  1
  O  O40  1  0.841954  0.499500  0.410392  1
  O  O41  1  0.157934  0.499502  0.410394  1
  O  O42  1  -0.000000  0.569751  0.409624  1
  O  O43  1  0.845557  0.570169  0.359880  1
  O  O44  1  0.807330  0.300478  0.425219  1
  O  O45  1  0.192563  0.199484  0.425228  1
  O  O46  1  0.807331  0.199481  0.425229  1
  O  O47  1  0.192554  0.300481  0.425225  1
  O  O48  1  0.387944  0.163955  0.406371  1
  O  O49  1  0.611949  0.163951  0.406374  1
  O  O50  1  0.217472  0.100376  0.425232  1
  O  O51  1  0.782428  0.100373  0.425232  1
  O  O52  1  0.326244  0.161363  0.474777  1
  O  O53  1  0.673659  0.161358  0.474779  1
  O  O54  1  0.706475  0.332033  0.546761  1
  O  O55  1  0.293431  0.167914  0.546763  1
  O  O56  1  0.706472  0.167915  0.546765  1
  O  O57  1  0.293429  0.332042  0.546760  1
  O  O58  1  0.654393  0.249976  0.508611  1
  O  O59  1  0.345506  0.249978  0.508614  1
  O  O60  1  0.499953  0.319086  0.518131  1
  O  O61  1  0.499950  0.180870  0.518135  1
  O  O62  1  -0.000000  0.071616  0.409865  1
  O  O63  1  0.841962  0.000000  0.410401  1
  O  O64  1  -0.000000  0.249978  0.414734  1
  O  O65  1  0.842959  0.249966  0.364765  1
  O  O66  1  0.156938  0.249977  0.364769  1
  O  O67  1  0.499951  0.249978  0.395551  1
  O  O68  1  0.157945  0.000000  0.410402  1
  O  O69  1  0.192566  0.800470  0.294389  1
  O  O70  1  0.807337  0.699471  0.294382  1
  O  O71  1  0.192577  0.699472  0.294382  1
  O  O72  1  0.807348  0.800467  0.294380  1
  O  O73  1  0.387957  0.835995  0.313240  1
  O  O74  1  0.611962  0.835990  0.313238  1
  O  O75  1  0.217480  0.899577  0.294386  1
  O  O76  1  0.782433  0.899575  0.294383  1
  O  O77  1  0.326233  0.838590  0.244836  1
  O  O78  1  0.673667  0.838591  0.244832  1
  O  O79  1  0.293422  0.832037  0.172851  1
  O  O80  1  0.706473  0.667910  0.172848  1
  O  O81  1  0.293418  0.667917  0.172845  1
  O  O82  1  0.706462  0.832036  0.172846  1
  O  O83  1  0.345504  0.749975  0.210998  1
  O  O84  1  0.654389  0.749975  0.210995  1
  O  O85  1  0.499945  0.819085  0.201480  1
  O  O86  1  0.499945  0.680868  0.201471  1
  O  O87  1  0.000000  0.928333  0.309752  1
  O  O88  1  0.157943  0.000000  0.309215  1
  O  O89  1  0.841963  0.000000  0.309215  1
  O  O90  1  -0.000000  0.749965  0.304874  1
  O  O91  1  0.156943  0.749966  0.354843  1
  O  O92  1  0.842966  0.749975  0.354839  1
  O  O93  1  0.499950  0.749967  0.324058  1
  O  O94  1  0.611957  0.663943  0.313241  1
  O  O95  1  0.387954  0.663939  0.313238  1
  O  O96  1  0.782421  0.600363  0.294369  1
  O  O97  1  0.217473  0.600364  0.294371  1
  O  O98  1  0.173654  0.338590  0.165433  1
  O  O99  1  0.673642  0.661360  0.244832  1
  O  O100  1  0.326247  0.661355  0.244830  1
  O  O101  1  0.826244  0.338583  0.165432  1
  O  O102  1  0.207781  0.398820  0.292724  1
  O  O103  1  0.792129  0.398815  0.292722  1
  O  O104  1  0.384536  0.334368  0.283687  1
  O  O105  1  0.615368  0.334368  0.283689  1
  O  O106  1  0.000000  0.571606  0.309737  1
  O  O107  1  0.841957  0.500446  0.309206  1
  O  O108  1  0.157940  0.500449  0.309209  1
  O  O109  1  0.000000  0.430199  0.309976  1
  O  O110  1  0.845562  0.429778  0.359718  1
  O  O111  1  0.154335  0.429780  0.359721  1
  O  O112  1  0.826257  0.161352  0.165430  1
  O  O113  1  0.173668  0.161356  0.165435  1
  O  O114  1  0.792126  0.101116  0.292722  1
  O  O115  1  0.207773  0.101121  0.292723  1
  O  O116  1  0.188595  0.300784  0.303755  1
  O  O117  1  0.811314  0.199152  0.303753  1
  O  O118  1  0.188607  0.199158  0.303760  1
  O  O119  1  0.811308  0.300778  0.303754  1
  O  O120  1  0.615370  0.165569  0.283689  1
  O  O121  1  0.384541  0.165567  0.283693  1
  O  O122  1  0.206471  0.332035  0.237419  1
  O  O123  1  0.793429  0.167903  0.237416  1
  O  O124  1  0.206484  0.167914  0.237421  1
  O  O125  1  0.793424  0.332028  0.237418  1
  O  O126  1  0.154396  0.249973  0.199270  1
  O  O127  1  0.845511  0.249966  0.199268  1
  O  O128  1  -0.000000  0.319078  0.208790  1
  O  O129  1  -0.000000  0.180861  0.208792  1
  O  O130  1  0.000000  0.069741  0.309979  1
  O  O131  1  -0.000000  0.249967  0.314656  1
  O  O132  1  0.499948  0.319677  0.344623  1
  O  O133  1  0.499962  0.180269  0.344626  1
  O  O134  1  0.499952  0.249969  0.294713  1
  O  O135  1  0.154340  0.070172  0.359722  1
  O  O136  1  0.845560  0.070169  0.359721  1
  Si  Si137  1  0.499947  0.688803  0.418451  1
  Si  Si138  1  0.499953  0.811144  0.418450  1
  Si  Si139  1  0.750753  0.843023  0.441231  1
  Si  Si140  1  0.249153  0.843024  0.441231  1
  Si  Si141  1  0.864505  0.811169  0.516700  1
  Si  Si142  1  0.135403  0.688775  0.516703  1
  Si  Si143  1  0.864506  0.688774  0.516698  1
  Si  Si144  1  0.135402  0.811170  0.516700  1
  Si  Si145  1  0.864798  0.939639  0.403072  1
  Si  Si146  1  0.135111  0.939641  0.403073  1
  Si  Si147  1  0.864646  0.749978  0.398123  1
  Si  Si148  1  0.135258  0.749977  0.398126  1
  Si  Si149  1  0.864787  0.560317  0.403058  1
  Si  Si150  1  0.135100  0.560319  0.403060  1
  Si  Si151  1  0.717735  0.345806  0.433526  1
  Si  Si152  1  0.282158  0.345808  0.433528  1
  Si  Si153  1  0.249145  0.656927  0.441232  1
  Si  Si154  1  0.750755  0.656929  0.441227  1
  Si  Si155  1  0.864659  0.438669  0.403020  1
  Si  Si156  1  0.135233  0.438670  0.403021  1
  Si  Si157  1  0.282159  0.154154  0.433530  1
  Si  Si158  1  0.717738  0.154150  0.433531  1
  Si  Si159  1  0.635401  0.311173  0.512250  1
  Si  Si160  1  0.364502  0.188781  0.512254  1
  Si  Si161  1  0.635398  0.188779  0.512254  1
  Si  Si162  1  0.364503  0.311176  0.512250  1
  Si  Si163  1  0.135239  0.061289  0.403024  1
  Si  Si164  1  0.864664  0.061287  0.403024  1
  Si  Si165  1  0.864583  0.249976  0.408103  1
  Si  Si166  1  0.135306  0.249980  0.408106  1
  Si  Si167  1  0.499944  0.311244  0.388053  1
  Si  Si168  1  0.499952  0.188711  0.388056  1
  Si  Si169  1  0.282163  0.845799  0.286085  1
  Si  Si170  1  0.717748  0.845797  0.286081  1
  Si  Si171  1  0.364497  0.811172  0.207361  1
  Si  Si172  1  0.635393  0.688778  0.207356  1
  Si  Si173  1  0.364497  0.688778  0.207355  1
  Si  Si174  1  0.635394  0.811173  0.207358  1
  Si  Si175  1  0.135242  0.938663  0.316593  1
  Si  Si176  1  0.864668  0.938660  0.316593  1
  Si  Si177  1  0.135318  0.749968  0.311506  1
  Si  Si178  1  0.864596  0.749969  0.311502  1
  Si  Si179  1  0.499958  0.811234  0.331554  1
  Si  Si180  1  0.499950  0.688700  0.331556  1
  Si  Si181  1  0.864794  0.439630  0.316540  1
  Si  Si182  1  0.717734  0.654144  0.286078  1
  Si  Si183  1  0.282168  0.654142  0.286078  1
  Si  Si184  1  0.249149  0.343018  0.278378  1
  Si  Si185  1  0.750755  0.343014  0.278378  1
  Si  Si186  1  0.864659  0.561278  0.316578  1
  Si  Si187  1  0.135233  0.561281  0.316581  1
  Si  Si188  1  0.135108  0.439632  0.316542  1
  Si  Si189  1  0.499958  0.188799  0.301160  1
  Si  Si190  1  0.499951  0.311140  0.301158  1
  Si  Si191  1  0.750755  0.156919  0.278376  1
  Si  Si192  1  0.249154  0.156923  0.278381  1
  Si  Si193  1  0.135397  0.311170  0.202908  1
  Si  Si194  1  0.864510  0.188769  0.202907  1
  Si  Si195  1  0.135406  0.188775  0.202910  1
  Si  Si196  1  0.864501  0.311164  0.202908  1
  Si  Si197  1  0.864794  0.060308  0.316544  1
  Si  Si198  1  0.135107  0.060311  0.316544  1
  Si  Si199  1  0.135260  0.249971  0.321486  1
  Si  Si200  1  0.864648  0.249965  0.321483  1
  H  H201  1  0.826249  0.838588  0.579411  1
  H  H202  1  0.173652  0.838591  0.579411  1
  H  H203  1  0.173663  0.661359  0.579415  1
  H  H204  1  0.826235  0.661354  0.579408  1
  H  H205  1  0.706475  0.332033  0.571997  1
  H  H206  1  0.293431  0.167914  0.571998  1
  H  H207  1  0.706472  0.167915  0.572000  1
  H  H208  1  0.293429  0.332042  0.571995  1
  H  H209  1  0.293422  0.832037  0.147616  1
  H  H210  1  0.706473  0.667910  0.147613  1
  H  H211  1  0.293418  0.667917  0.147609  1
  H  H212  1  0.706462  0.832036  0.147611  1
  H  H213  1  0.173654  0.338590  0.140198  1
  H  H214  1  0.826244  0.338583  0.140197  1
  H  H215  1  0.826257  0.161352  0.140195  1
  H  H216  1  0.173668  0.161356  0.140200  1
