# generated using pymatgen
data_Si13H2O27
_symmetry_space_group_name_H-M   'P 1'
_cell_length_a   19.04414329
_cell_length_b   14.09603100
_cell_length_c   43.96165695
_cell_angle_alpha   90.00000000
_cell_angle_beta   120.00000000
_cell_angle_gamma   90.00000000
_symmetry_Int_Tables_number   1
_chemical_formula_structural   Si13H2O27
_chemical_formula_sum   'Si52 H8 O108'
_cell_volume   10220.2841712
_cell_formula_units_Z   4
loop_
 _symmetry_equiv_pos_site_id
 _symmetry_equiv_pos_as_xyz
  1  'x, y, z'
loop_
 _atom_site_type_symbol
 _atom_site_label
 _atom_site_symmetry_multiplicity
 _atom_site_fract_x
 _atom_site_fract_y
 _atom_site_fract_z
 _atom_site_occupancy
  O  O1  1  0.454076  0.336910  0.280756  1
  O  O2  1  0.453668  0.337925  0.219956  1
  O  O3  1  0.454520  0.662674  0.280705  1
  O  O4  1  0.453438  0.662477  0.219798  1
  O  O5  1  0.401679  0.368087  0.152107  1
  O  O6  1  0.459815  0.500132  0.196108  1
  O  O7  1  0.401046  0.632403  0.151803  1
  O  O8  1  0.703573  0.338544  0.219668  1
  O  O9  1  0.843941  0.336840  0.280248  1
  O  O10  1  0.702921  0.662638  0.219573  1
  O  O11  1  0.843901  0.660927  0.279665  1
  O  O12  1  0.550832  0.372332  0.195889  1
  O  O13  1  0.550232  0.628142  0.195759  1
  O  O14  1  0.598433  0.368579  0.151896  1
  O  O15  1  0.641747  0.500426  0.196065  1
  O  O16  1  0.745944  0.194958  0.261301  1
  O  O17  1  0.746995  0.805440  0.261653  1
  O  O18  1  0.711399  0.353080  0.277218  1
  O  O19  1  0.578846  0.353019  0.277169  1
  O  O20  1  0.711916  0.647403  0.277309  1
  O  O21  1  0.579063  0.647680  0.276998  1
  O  O22  1  0.735415  -0.000000  0.267934  1
  O  O23  1  0.529859  -0.000000  0.266072  1
  O  O24  1  0.625106  0.112087  0.259951  1
  O  O25  1  0.625412  0.888132  0.260031  1
  O  O26  1  0.666030  0.500329  0.294996  1
  O  O27  1  0.507535  0.806377  0.261508  1
  O  O28  1  0.598069  0.632529  0.151857  1
  O  O29  1  0.507491  0.194086  0.261515  1
  O  O30  1  0.156022  0.334675  0.348176  1
  O  O31  1  0.298124  0.338604  0.350050  1
  O  O32  1  0.157557  0.659750  0.347555  1
  O  O33  1  0.298155  0.663339  0.348318  1
  O  O34  1  0.101286  0.370936  0.390145  1
  O  O35  1  0.449648  0.373404  0.390652  1
  O  O36  1  0.102136  0.626427  0.389472  1
  O  O37  1  0.450527  0.628122  0.390615  1
  O  O38  1  0.330573  0.499141  0.438221  1
  O  O39  1  0.401867  0.368694  0.326244  1
  O  O40  1  0.402604  0.631865  0.325944  1
  O  O41  1  0.102337  0.497395  0.350488  1
  O  O42  1  0.460611  0.499738  0.306977  1
  O  O43  1  0.101952  0.499939  0.429267  1
  O  O44  1  0.358603  0.500484  0.351403  1
  O  O45  1  0.250248  0.192114  0.369025  1
  O  O46  1  0.252167  0.805597  0.371087  1
  O  O47  1  0.286742  0.344584  0.403560  1
  O  O48  1  0.289750  0.648297  0.402308  1
  O  O49  1  0.263014  0.000000  0.381977  1
  O  O50  1  0.249150  0.117259  0.421988  1
  O  O51  1  0.372259  0.113806  0.421856  1
  O  O52  1  0.246527  0.885794  0.421577  1
  O  O53  1  0.373055  0.888574  0.422032  1
  O  O54  1  -0.000000  0.630223  0.324877  1
  O  O55  1  -0.000000  0.632600  0.410002  1
  O  O56  1  -0.000000  0.365509  0.325609  1
  O  O57  1  0.843317  0.338766  0.388315  1
  O  O58  1  0.703196  0.337613  0.388515  1
  O  O59  1  0.844061  0.663246  0.387792  1
  O  O60  1  0.704506  0.661507  0.388721  1
  O  O61  1  0.898969  0.372013  0.346160  1
  O  O62  1  0.550801  0.371931  0.346657  1
  O  O63  1  0.899276  0.627314  0.345495  1
  O  O64  1  0.551690  0.627466  0.346757  1
  O  O65  1  0.598658  0.367751  0.411295  1
  O  O66  1  0.000000  0.368354  0.410812  1
  O  O67  1  0.599644  0.632245  0.411429  1
  O  O68  1  0.541083  0.500550  0.430396  1
  O  O69  1  0.898283  0.500694  0.385121  1
  O  O70  1  0.899175  0.498548  0.306366  1
  O  O71  1  0.642513  0.499677  0.386060  1
  O  O72  1  0.745832  0.195651  0.364520  1
  O  O73  1  0.745484  0.805140  0.364596  1
  O  O74  1  0.710686  0.355502  0.334382  1
  O  O75  1  0.710779  0.645430  0.334338  1
  O  O76  1  0.735169  -0.000000  0.353511  1
  O  O77  1  0.751694  0.115938  0.314231  1
  O  O78  1  0.625069  0.112071  0.313628  1
  O  O79  1  0.751884  0.884705  0.314372  1
  O  O80  1  0.625103  0.888606  0.313645  1
  O  O81  1  0.296385  0.338253  0.517763  1
  O  O82  1  0.156354  0.338519  0.456502  1
  O  O83  1  0.296478  0.662081  0.516957  1
  O  O84  1  0.156918  0.661958  0.455670  1
  O  O85  1  0.449259  0.372749  0.541581  1
  O  O86  1  0.448980  0.628189  0.541372  1
  O  O87  1  0.357869  0.500265  0.541302  1
  O  O88  1  0.254098  0.196152  0.475213  1
  O  O89  1  0.253543  0.805011  0.474613  1
  O  O90  1  0.289996  0.356529  0.460936  1
  O  O91  1  0.420806  0.354556  0.459792  1
  O  O92  1  0.289980  0.645195  0.459701  1
  O  O93  1  0.421710  0.644982  0.459720  1
  O  O94  1  0.264198  0.001206  0.468387  1
  O  O95  1  0.467905  -0.000000  0.469580  1
  O  O96  1  0.374522  0.112994  0.477087  1
  O  O97  1  0.373193  0.888504  0.475734  1
  O  O98  1  0.490771  0.194890  0.474924  1
  O  O99  1  0.490708  0.806257  0.474565  1
  O  O100  1  0.545823  0.337908  0.456542  1
  O  O101  1  0.545552  0.338032  0.517289  1
  O  O102  1  0.546693  0.663152  0.456719  1
  O  O103  1  0.545637  0.663661  0.517300  1
  O  O104  1  0.539880  0.500646  0.541058  1
  O  O105  1  0.401679  0.368087  0.585536  1
  O  O106  1  0.401046  0.632403  0.585233  1
  O  O107  1  0.598433  0.368579  0.585325  1
  O  O108  1  0.598069  0.632529  0.585287  1
  Si  Si109  1  0.463282  0.610225  0.191027  1
  Si  Si110  1  0.493323  0.695565  0.258680  1
  Si  Si111  1  0.493293  0.304808  0.258786  1
  Si  Si112  1  0.463950  0.390028  0.191284  1
  Si  Si113  1  0.626836  0.390280  0.191134  1
  Si  Si114  1  0.626375  0.610503  0.191069  1
  Si  Si115  1  0.754019  0.305562  0.258451  1
  Si  Si116  1  0.754340  0.694743  0.258432  1
  Si  Si117  1  0.719061  0.105627  0.274103  1
  Si  Si118  1  0.562303  0.103301  0.273187  1
  Si  Si119  1  0.719419  0.894674  0.274246  1
  Si  Si120  1  0.562469  0.897124  0.273189  1
  Si  Si121  1  0.666725  0.391665  0.295978  1
  Si  Si122  1  0.666968  0.609006  0.295970  1
  Si  Si123  1  0.090581  0.387506  0.352478  1
  Si  Si124  1  0.463942  0.389701  0.313694  1
  Si  Si125  1  0.090479  0.389734  0.423071  1
  Si  Si126  1  0.374177  0.391203  0.353304  1
  Si  Si127  1  0.464769  0.609838  0.313709  1
  Si  Si128  1  0.091255  0.607701  0.351863  1
  Si  Si129  1  0.090959  0.609950  0.422427  1
  Si  Si130  1  0.374301  0.610267  0.352901  1
  Si  Si131  1  0.244905  0.300705  0.365795  1
  Si  Si132  1  0.246628  0.694837  0.364915  1
  Si  Si133  1  0.278215  0.107699  0.394137  1
  Si  Si134  1  0.279087  0.895122  0.395494  1
  Si  Si135  1  0.332139  0.390497  0.440513  1
  Si  Si136  1  0.333302  0.607921  0.440177  1
  Si  Si137  1  0.718996  0.105945  0.340204  1
  Si  Si138  1  0.718989  0.894851  0.340276  1
  Si  Si139  1  0.536477  0.390311  0.423564  1
  Si  Si140  1  0.909550  0.390439  0.383757  1
  Si  Si141  1  0.910355  0.388540  0.313281  1
  Si  Si142  1  0.626906  0.389611  0.384308  1
  Si  Si143  1  0.909863  0.610679  0.383176  1
  Si  Si144  1  0.537344  0.610675  0.423733  1
  Si  Si145  1  0.910377  0.608767  0.312649  1
  Si  Si146  1  0.627877  0.609881  0.384422  1
  Si  Si147  1  0.753539  0.306173  0.371278  1
  Si  Si148  1  0.754057  0.694562  0.371262  1
  Si  Si149  1  0.373207  0.390225  0.546347  1
  Si  Si150  1  0.372788  0.610426  0.546002  1
  Si  Si151  1  0.246156  0.306603  0.478726  1
  Si  Si152  1  0.246728  0.694207  0.477935  1
  Si  Si153  1  0.281671  0.106777  0.462718  1
  Si  Si154  1  0.434953  0.103779  0.462986  1
  Si  Si155  1  0.279302  0.895395  0.461782  1
  Si  Si156  1  0.435898  0.897183  0.462454  1
  Si  Si157  1  0.506291  0.695589  0.478266  1
  Si  Si158  1  0.506056  0.305687  0.478305  1
  Si  Si159  1  0.535937  0.610766  0.546044  1
  Si  Si160  1  0.536043  0.390556  0.546139  1
  H  H161  1  0.401679  0.368087  0.131634  1
  H  H162  1  0.401046  0.632403  0.131330  1
  H  H163  1  0.598433  0.368579  0.131423  1
  H  H164  1  0.598069  0.632529  0.131385  1
  H  H165  1  0.401679  0.368087  0.606009  1
  H  H166  1  0.401046  0.632403  0.605705  1
  H  H167  1  0.598433  0.368579  0.605798  1
  H  H168  1  0.598069  0.632529  0.605760  1
