# generated using pymatgen
data_Si65(HO33)4
_symmetry_space_group_name_H-M   'P 1'
_cell_length_a   19.41225325
_cell_length_b   11.34454198
_cell_length_c   76.98450444
_cell_angle_alpha   90.00000000
_cell_angle_beta   120.00000000
_cell_angle_gamma   90.00000000
_symmetry_Int_Tables_number   1
_chemical_formula_structural   Si65(HO33)4
_chemical_formula_sum   'Si130 H8 O264'
_cell_volume   14682.3936968
_cell_formula_units_Z   2
loop_
 _symmetry_equiv_pos_site_id
 _symmetry_equiv_pos_as_xyz
  1  'x, y, z'
loop_
 _atom_site_type_symbol
 _atom_site_label
 _atom_site_symmetry_multiplicity
 _atom_site_fract_x
 _atom_site_fract_y
 _atom_site_fract_z
 _atom_site_occupancy
  O  O1  1  0.458346  0.702740  0.122238  1
  O  O2  1  0.458399  0.297034  0.122286  1
  O  O3  1  0.457542  0.297342  0.086773  1
  O  O4  1  0.457518  0.703216  0.086726  1
  O  O5  1  0.700080  0.297075  0.086720  1
  O  O6  1  0.840813  0.296645  0.122026  1
  O  O7  1  0.840805  0.702937  0.121984  1
  O  O8  1  0.700057  0.703212  0.086686  1
  O  O9  1  0.511945  0.882558  0.111315  1
  O  O10  1  0.580211  0.314263  0.119788  1
  O  O11  1  0.709984  0.316425  0.119875  1
  O  O12  1  0.709947  0.683524  0.119835  1
  O  O13  1  0.580164  0.685841  0.119734  1
  O  O14  1  0.743233  0.882140  0.111311  1
  O  O15  1  0.624749  0.000000  0.109830  1
  O  O16  1  0.743034  0.117826  0.111273  1
  O  O17  1  0.511950  0.117572  0.111264  1
  O  O18  1  0.664839  0.500082  0.130789  1
  O  O19  1  0.256604  0.882134  0.176080  1
  O  O20  1  0.256803  0.117832  0.176092  1
  O  O21  1  0.299780  0.297032  0.162361  1
  O  O22  1  0.159046  0.296644  0.162169  1
  O  O23  1  0.159055  0.702937  0.162130  1
  O  O24  1  0.299803  0.703256  0.162333  1
  O  O25  1  0.461904  0.499901  0.137126  1
  O  O26  1  0.358490  0.500143  0.163178  1
  O  O27  1  0.103322  0.500326  0.208402  1
  O  O28  1  0.103244  0.499723  0.162812  1
  O  O29  1  0.404345  0.338448  0.148689  1
  O  O30  1  0.375037  -0.000000  0.204478  1
  O  O31  1  0.404311  0.661586  0.148643  1
  O  O32  1  0.449803  0.342304  0.185745  1
  O  O33  1  0.101364  0.342089  0.185426  1
  O  O34  1  0.449859  0.658133  0.185706  1
  O  O35  1  0.101465  0.657979  0.185339  1
  O  O36  1  0.289874  0.316507  0.193013  1
  O  O37  1  0.289912  0.683443  0.192983  1
  O  O38  1  0.250666  0.000000  0.204424  1
  O  O39  1  0.743589  0.882558  0.169595  1
  O  O40  1  0.841139  0.297302  0.183233  1
  O  O41  1  0.701072  0.297103  0.183395  1
  O  O42  1  0.701274  0.702938  0.183393  1
  O  O43  1  0.841177  0.703406  0.183147  1
  O  O44  1  0.896476  0.500326  0.182311  1
  O  O45  1  0.539321  0.500276  0.208758  1
  O  O46  1  0.642558  0.500103  0.182692  1
  O  O47  1  0.896595  0.499724  0.136744  1
  O  O48  1  0.000000  0.338852  0.196898  1
  O  O49  1  0.596792  0.338498  0.197221  1
  O  O50  1  0.596844  0.661859  0.197182  1
  O  O51  1  0.000000  0.338023  0.148352  1
  O  O52  1  0.743751  0.117821  0.169608  1
  O  O53  1  0.551333  0.341949  0.160149  1
  O  O54  1  0.898462  0.342097  0.159831  1
  O  O55  1  0.551267  0.658023  0.160105  1
  O  O56  1  0.898361  0.657972  0.159719  1
  O  O57  1  0.709705  0.315248  0.152517  1
  O  O58  1  0.709614  0.685172  0.152473  1
  O  O59  1  0.749106  0.000000  0.141144  1
  O  O60  1  0.624913  0.000000  0.141205  1
  O  O61  1  0.000000  0.661865  0.196786  1
  O  O62  1  0.000000  0.661429  0.148268  1
  O  O63  1  0.158653  0.297338  0.223288  1
  O  O64  1  0.298727  0.297143  0.258780  1
  O  O65  1  0.298526  0.702899  0.258728  1
  O  O66  1  0.158616  0.703369  0.223193  1
  O  O67  1  0.357271  0.500103  0.272833  1
  O  O68  1  0.487795  0.882523  0.234396  1
  O  O69  1  0.448493  0.341943  0.273295  1
  O  O70  1  0.448558  0.658030  0.273267  1
  O  O71  1  0.290129  0.314943  0.225722  1
  O  O72  1  0.419636  0.314484  0.225654  1
  O  O73  1  0.419684  0.685618  0.225613  1
  O  O74  1  0.290222  0.685475  0.225702  1
  O  O75  1  0.374860  0.000000  0.235808  1
  O  O76  1  0.255985  0.117781  0.234244  1
  O  O77  1  0.487790  0.117606  0.234343  1
  O  O78  1  0.256146  0.882598  0.234272  1
  O  O79  1  0.334623  0.500081  0.215347  1
  O  O80  1  0.402983  0.661861  0.298849  1
  O  O81  1  0.403036  0.338497  0.298901  1
  O  O82  1  0.537935  0.499901  0.272829  1
  O  O83  1  0.541476  0.702734  0.258834  1
  O  O84  1  0.541422  0.297041  0.258869  1
  O  O85  1  0.542273  0.297303  0.223572  1
  O  O86  1  0.542297  0.703254  0.223531  1
  O  O87  1  0.595493  0.338438  0.298904  1
  O  O88  1  0.595528  0.661596  0.298867  1
  O  O89  1  0.460513  0.500276  0.324928  1
  O  O90  1  0.458346  0.702740  0.374465  1
  O  O91  1  0.458399  0.297034  0.374513  1
  O  O92  1  0.457542  0.297342  0.338999  1
  O  O93  1  0.457518  0.703216  0.338953  1
  O  O94  1  0.700080  0.297075  0.338947  1
  O  O95  1  0.840813  0.296645  0.374252  1
  O  O96  1  0.840805  0.702937  0.374211  1
  O  O97  1  0.700057  0.703212  0.338913  1
  O  O98  1  0.641343  0.500143  0.324952  1
  O  O99  1  0.511945  0.882558  0.363542  1
  O  O100  1  0.550037  0.342289  0.324495  1
  O  O101  1  0.549981  0.658149  0.324442  1
  O  O102  1  0.580211  0.314263  0.372014  1
  O  O103  1  0.709984  0.316425  0.372101  1
  O  O104  1  0.709947  0.683524  0.372062  1
  O  O105  1  0.580164  0.685841  0.371961  1
  O  O106  1  0.743233  0.882140  0.363538  1
  O  O107  1  0.624749  0.000000  0.362057  1
  O  O108  1  0.743034  0.117826  0.363500  1
  O  O109  1  0.511950  0.117572  0.363491  1
  O  O110  1  0.664839  0.500082  0.383016  1
  O  O111  1  0.256604  0.882134  0.428307  1
  O  O112  1  0.256803  0.117832  0.428318  1
  O  O113  1  0.299780  0.297032  0.414588  1
  O  O114  1  0.159046  0.296644  0.414396  1
  O  O115  1  0.159055  0.702937  0.414356  1
  O  O116  1  0.299803  0.703256  0.414560  1
  O  O117  1  0.461904  0.499901  0.389353  1
  O  O118  1  0.358490  0.500143  0.415404  1
  O  O119  1  0.103322  0.500326  0.460628  1
  O  O120  1  0.103244  0.499723  0.415038  1
  O  O121  1  0.404345  0.338448  0.400915  1
  O  O122  1  0.375037  -0.000000  0.456704  1
  O  O123  1  0.404311  0.661586  0.400870  1
  O  O124  1  0.449803  0.342304  0.437972  1
  O  O125  1  0.101364  0.342089  0.437652  1
  O  O126  1  0.449859  0.658133  0.437933  1
  O  O127  1  0.101465  0.657979  0.437566  1
  O  O128  1  0.289874  0.316507  0.445240  1
  O  O129  1  0.289912  0.683443  0.445210  1
  O  O130  1  0.250666  -0.000000  0.456651  1
  O  O131  1  0.743589  0.882558  0.421821  1
  O  O132  1  0.841139  0.297302  0.435460  1
  O  O133  1  0.701072  0.297103  0.435622  1
  O  O134  1  0.701274  0.702938  0.435620  1
  O  O135  1  0.841177  0.703406  0.435374  1
  O  O136  1  0.896476  0.500326  0.434538  1
  O  O137  1  0.539321  0.500276  0.460984  1
  O  O138  1  0.642558  0.500103  0.434919  1
  O  O139  1  0.896595  0.499724  0.388970  1
  O  O140  1  0.000000  0.338852  0.449124  1
  O  O141  1  0.596792  0.338498  0.449447  1
  O  O142  1  0.596844  0.661859  0.449408  1
  O  O143  1  0.000000  0.338023  0.400579  1
  O  O144  1  0.743751  0.117821  0.421834  1
  O  O145  1  0.551333  0.341949  0.412376  1
  O  O146  1  0.898462  0.342097  0.412058  1
  O  O147  1  0.551267  0.658023  0.412331  1
  O  O148  1  0.898361  0.657972  0.411946  1
  O  O149  1  0.709705  0.315248  0.404743  1
  O  O150  1  0.709614  0.685172  0.404700  1
  O  O151  1  0.749106  0.000000  0.393370  1
  O  O152  1  0.624913  0.000000  0.393432  1
  O  O153  1  0.000000  0.661865  0.449013  1
  O  O154  1  0.000000  0.661429  0.400495  1
  O  O155  1  0.158653  0.297338  0.475515  1
  O  O156  1  0.298727  0.297143  0.511007  1
  O  O157  1  0.298526  0.702899  0.510954  1
  O  O158  1  0.158616  0.703369  0.475420  1
  O  O159  1  0.357271  0.500103  0.525059  1
  O  O160  1  0.487795  0.882523  0.486622  1
  O  O161  1  0.448493  0.341943  0.525522  1
  O  O162  1  0.448558  0.658030  0.525494  1
  O  O163  1  0.290129  0.314943  0.477949  1
  O  O164  1  0.419636  0.314484  0.477881  1
  O  O165  1  0.419684  0.685618  0.477840  1
  O  O166  1  0.290222  0.685475  0.477929  1
  O  O167  1  0.374860  -0.000000  0.488034  1
  O  O168  1  0.255985  0.117781  0.486471  1
  O  O169  1  0.487790  0.117606  0.486570  1
  O  O170  1  0.256146  0.882598  0.486499  1
  O  O171  1  0.334623  0.500081  0.467574  1
  O  O172  1  0.402983  0.661861  0.551075  1
  O  O173  1  0.403036  0.338497  0.551128  1
  O  O174  1  0.537935  0.499901  0.525055  1
  O  O175  1  0.541476  0.702734  0.511061  1
  O  O176  1  0.541422  0.297041  0.511096  1
  O  O177  1  0.542273  0.297303  0.475799  1
  O  O178  1  0.542297  0.703254  0.475758  1
  O  O179  1  0.595493  0.338438  0.551130  1
  O  O180  1  0.595528  0.661596  0.551093  1
  O  O181  1  0.460513  0.500276  0.577154  1
  O  O182  1  0.458346  0.702740  0.626691  1
  O  O183  1  0.458399  0.297034  0.626740  1
  O  O184  1  0.457542  0.297342  0.591226  1
  O  O185  1  0.457518  0.703216  0.591179  1
  O  O186  1  0.700080  0.297075  0.591173  1
  O  O187  1  0.840813  0.296645  0.626479  1
  O  O188  1  0.840805  0.702937  0.626437  1
  O  O189  1  0.700057  0.703212  0.591140  1
  O  O190  1  0.641343  0.500143  0.577179  1
  O  O191  1  0.511945  0.882558  0.615769  1
  O  O192  1  0.550037  0.342289  0.576722  1
  O  O193  1  0.549981  0.658149  0.576668  1
  O  O194  1  0.580211  0.314263  0.624241  1
  O  O195  1  0.709984  0.316425  0.624328  1
  O  O196  1  0.709947  0.683524  0.624288  1
  O  O197  1  0.580164  0.685841  0.624187  1
  O  O198  1  0.743233  0.882140  0.615765  1
  O  O199  1  0.624749  -0.000000  0.614284  1
  O  O200  1  0.743034  0.117826  0.615726  1
  O  O201  1  0.511950  0.117572  0.615718  1
  O  O202  1  0.664839  0.500082  0.635243  1
  O  O203  1  0.256604  0.882134  0.680533  1
  O  O204  1  0.256803  0.117832  0.680545  1
  O  O205  1  0.299780  0.297032  0.666814  1
  O  O206  1  0.159046  0.296644  0.666622  1
  O  O207  1  0.159055  0.702937  0.666583  1
  O  O208  1  0.299803  0.703256  0.666786  1
  O  O209  1  0.461904  0.499901  0.641579  1
  O  O210  1  0.358490  0.500143  0.667631  1
  O  O211  1  0.103322  0.500326  0.712855  1
  O  O212  1  0.103244  0.499723  0.667265  1
  O  O213  1  0.404345  0.338448  0.653142  1
  O  O214  1  0.375037  -0.000000  0.708931  1
  O  O215  1  0.404311  0.661586  0.653096  1
  O  O216  1  0.449803  0.342304  0.690198  1
  O  O217  1  0.101364  0.342089  0.689879  1
  O  O218  1  0.449859  0.658133  0.690159  1
  O  O219  1  0.101465  0.657979  0.689793  1
  O  O220  1  0.289874  0.316507  0.697467  1
  O  O221  1  0.289912  0.683443  0.697436  1
  O  O222  1  0.250666  -0.000000  0.708878  1
  O  O223  1  0.743589  0.882558  0.674048  1
  O  O224  1  0.841139  0.297302  0.687686  1
  O  O225  1  0.701072  0.297103  0.687848  1
  O  O226  1  0.701274  0.702938  0.687847  1
  O  O227  1  0.841177  0.703406  0.687601  1
  O  O228  1  0.896476  0.500326  0.686764  1
  O  O229  1  0.539321  0.500276  0.713211  1
  O  O230  1  0.642558  0.500103  0.687145  1
  O  O231  1  0.896595  0.499724  0.641197  1
  O  O232  1  0.000000  0.338852  0.701351  1
  O  O233  1  0.596792  0.338498  0.701674  1
  O  O234  1  0.596844  0.661859  0.701635  1
  O  O235  1  0.000000  0.338023  0.652806  1
  O  O236  1  0.743751  0.117821  0.674061  1
  O  O237  1  0.551333  0.341949  0.664602  1
  O  O238  1  0.898462  0.342097  0.664284  1
  O  O239  1  0.551267  0.658023  0.664558  1
  O  O240  1  0.898361  0.657972  0.664172  1
  O  O241  1  0.709705  0.315248  0.656970  1
  O  O242  1  0.709614  0.685172  0.656927  1
  O  O243  1  0.749106  0.000000  0.645597  1
  O  O244  1  0.624913  -0.000000  0.645658  1
  O  O245  1  0.000000  0.661865  0.701239  1
  O  O246  1  0.000000  0.661429  0.652722  1
  O  O247  1  0.158653  0.297338  0.727742  1
  O  O248  1  0.298727  0.297143  0.763234  1
  O  O249  1  0.298526  0.702899  0.763181  1
  O  O250  1  0.158616  0.703369  0.727646  1
  O  O251  1  0.487795  0.882523  0.738849  1
  O  O252  1  0.290129  0.314943  0.730176  1
  O  O253  1  0.419636  0.314484  0.730107  1
  O  O254  1  0.419684  0.685618  0.730066  1
  O  O255  1  0.290222  0.685475  0.730156  1
  O  O256  1  0.374860  0.000000  0.740261  1
  O  O257  1  0.255985  0.117781  0.738698  1
  O  O258  1  0.487790  0.117606  0.738797  1
  O  O259  1  0.256146  0.882598  0.738726  1
  O  O260  1  0.334623  0.500081  0.719800  1
  O  O261  1  0.541476  0.702734  0.763288  1
  O  O262  1  0.541422  0.297041  0.763322  1
  O  O263  1  0.542273  0.297303  0.728026  1
  O  O264  1  0.542297  0.703254  0.727985  1
  Si  Si265  1  0.496784  0.746000  0.109356  1
  Si  Si266  1  0.496813  0.254134  0.109379  1
  Si  Si267  1  0.750955  0.254284  0.109332  1
  Si  Si268  1  0.751014  0.745686  0.109318  1
  Si  Si269  1  0.718490  0.000000  0.117494  1
  Si  Si270  1  0.561560  0.000000  0.117554  1
  Si  Si271  1  0.666355  0.362459  0.130733  1
  Si  Si272  1  0.666315  0.637701  0.130705  1
  Si  Si273  1  0.466347  0.363881  0.141350  1
  Si  Si274  1  0.375249  0.364116  0.164317  1
  Si  Si275  1  0.090998  0.364265  0.204225  1
  Si  Si276  1  0.091006  0.363727  0.163998  1
  Si  Si277  1  0.091006  0.635791  0.163921  1
  Si  Si278  1  0.466313  0.635964  0.141310  1
  Si  Si279  1  0.375275  0.636159  0.164291  1
  Si  Si280  1  0.091006  0.636318  0.204141  1
  Si  Si281  1  0.248904  0.254280  0.172146  1
  Si  Si282  1  0.248846  0.745689  0.172117  1
  Si  Si283  1  0.281303  0.000000  0.188500  1
  Si  Si284  1  0.333475  0.637700  0.214861  1
  Si  Si285  1  0.333435  0.362459  0.214878  1
  Si  Si286  1  0.908814  0.364268  0.181243  1
  Si  Si287  1  0.534765  0.364219  0.204548  1
  Si  Si288  1  0.625819  0.364068  0.181569  1
  Si  Si289  1  0.908831  0.363727  0.141017  1
  Si  Si290  1  0.534812  0.636288  0.204513  1
  Si  Si291  1  0.625850  0.636150  0.181530  1
  Si  Si292  1  0.908831  0.635792  0.140940  1
  Si  Si293  1  0.908806  0.636317  0.181157  1
  Si  Si294  1  0.751513  0.254335  0.173485  1
  Si  Si295  1  0.751511  0.746029  0.173446  1
  Si  Si296  1  0.718743  -0.000000  0.157126  1
  Si  Si297  1  0.374005  0.364069  0.275930  1
  Si  Si298  1  0.373975  0.636150  0.275884  1
  Si  Si299  1  0.248260  0.254312  0.236154  1
  Si  Si300  1  0.248263  0.746051  0.236116  1
  Si  Si301  1  0.281023  0.000000  0.228065  1
  Si  Si302  1  0.438218  0.000000  0.228135  1
  Si  Si303  1  0.533487  0.363882  0.275932  1
  Si  Si304  1  0.533520  0.635963  0.275900  1
  Si  Si305  1  0.503004  0.745974  0.236257  1
  Si  Si306  1  0.502974  0.254159  0.236273  1
  Si  Si307  1  0.465069  0.364220  0.321868  1
  Si  Si308  1  0.465022  0.636289  0.321822  1
  Si  Si309  1  0.496784  0.746000  0.361583  1
  Si  Si310  1  0.496813  0.254134  0.361606  1
  Si  Si311  1  0.624592  0.364115  0.321868  1
  Si  Si312  1  0.624566  0.636160  0.321836  1
  Si  Si313  1  0.750955  0.254284  0.361559  1
  Si  Si314  1  0.751014  0.745686  0.361545  1
  Si  Si315  1  0.718490  -0.000000  0.369720  1
  Si  Si316  1  0.561560  -0.000000  0.369780  1
  Si  Si317  1  0.666355  0.362459  0.382960  1
  Si  Si318  1  0.666315  0.637701  0.382932  1
  Si  Si319  1  0.466347  0.363881  0.393576  1
  Si  Si320  1  0.375249  0.364116  0.416544  1
  Si  Si321  1  0.090998  0.364265  0.456451  1
  Si  Si322  1  0.091006  0.363727  0.416225  1
  Si  Si323  1  0.091006  0.635791  0.416148  1
  Si  Si324  1  0.466313  0.635964  0.393536  1
  Si  Si325  1  0.375275  0.636159  0.416518  1
  Si  Si326  1  0.091006  0.636318  0.456368  1
  Si  Si327  1  0.248904  0.254280  0.424372  1
  Si  Si328  1  0.248846  0.745689  0.424344  1
  Si  Si329  1  0.281303  0.000000  0.440727  1
  Si  Si330  1  0.333475  0.637700  0.467088  1
  Si  Si331  1  0.333435  0.362459  0.467105  1
  Si  Si332  1  0.908814  0.364268  0.433469  1
  Si  Si333  1  0.534765  0.364219  0.456775  1
  Si  Si334  1  0.625819  0.364068  0.433795  1
  Si  Si335  1  0.908831  0.363727  0.393244  1
  Si  Si336  1  0.534812  0.636288  0.456740  1
  Si  Si337  1  0.625850  0.636150  0.433757  1
  Si  Si338  1  0.908831  0.635792  0.393167  1
  Si  Si339  1  0.908806  0.636317  0.433384  1
  Si  Si340  1  0.751513  0.254335  0.425711  1
  Si  Si341  1  0.751511  0.746029  0.425673  1
  Si  Si342  1  0.718743  0.000000  0.409353  1
  Si  Si343  1  0.374005  0.364069  0.528157  1
  Si  Si344  1  0.373975  0.636150  0.528111  1
  Si  Si345  1  0.248260  0.254312  0.488380  1
  Si  Si346  1  0.248263  0.746051  0.488343  1
  Si  Si347  1  0.281023  -0.000000  0.480292  1
  Si  Si348  1  0.438218  0.000000  0.480362  1
  Si  Si349  1  0.533487  0.363882  0.528158  1
  Si  Si350  1  0.533520  0.635963  0.528127  1
  Si  Si351  1  0.503004  0.745974  0.488484  1
  Si  Si352  1  0.502974  0.254159  0.488499  1
  Si  Si353  1  0.465069  0.364220  0.574095  1
  Si  Si354  1  0.465022  0.636289  0.574048  1
  Si  Si355  1  0.496784  0.746000  0.613810  1
  Si  Si356  1  0.496813  0.254134  0.613833  1
  Si  Si357  1  0.624592  0.364115  0.574095  1
  Si  Si358  1  0.624566  0.636160  0.574063  1
  Si  Si359  1  0.750955  0.254284  0.613786  1
  Si  Si360  1  0.751014  0.745686  0.613772  1
  Si  Si361  1  0.718490  0.000000  0.621947  1
  Si  Si362  1  0.561560  0.000000  0.622007  1
  Si  Si363  1  0.666355  0.362459  0.635186  1
  Si  Si364  1  0.666315  0.637701  0.635158  1
  Si  Si365  1  0.466347  0.363881  0.645803  1
  Si  Si366  1  0.375249  0.364116  0.668771  1
  Si  Si367  1  0.090998  0.364265  0.708678  1
  Si  Si368  1  0.091006  0.363727  0.668452  1
  Si  Si369  1  0.091006  0.635791  0.668374  1
  Si  Si370  1  0.466313  0.635964  0.645763  1
  Si  Si371  1  0.375275  0.636159  0.668744  1
  Si  Si372  1  0.091006  0.636318  0.708595  1
  Si  Si373  1  0.248904  0.254280  0.676599  1
  Si  Si374  1  0.248846  0.745689  0.676570  1
  Si  Si375  1  0.281303  -0.000000  0.692953  1
  Si  Si376  1  0.333475  0.637700  0.719314  1
  Si  Si377  1  0.333435  0.362459  0.719332  1
  Si  Si378  1  0.908814  0.364268  0.685696  1
  Si  Si379  1  0.534765  0.364219  0.709002  1
  Si  Si380  1  0.625819  0.364068  0.686022  1
  Si  Si381  1  0.908831  0.363727  0.645471  1
  Si  Si382  1  0.534812  0.636288  0.708967  1
  Si  Si383  1  0.625850  0.636150  0.685984  1
  Si  Si384  1  0.908831  0.635792  0.645394  1
  Si  Si385  1  0.908806  0.636317  0.685610  1
  Si  Si386  1  0.751513  0.254335  0.677938  1
  Si  Si387  1  0.751511  0.746029  0.677900  1
  Si  Si388  1  0.718743  0.000000  0.661579  1
  Si  Si389  1  0.248260  0.254312  0.740607  1
  Si  Si390  1  0.248263  0.746051  0.740570  1
  Si  Si391  1  0.281023  0.000000  0.732518  1
  Si  Si392  1  0.438218  -0.000000  0.732588  1
  Si  Si393  1  0.503004  0.745974  0.740711  1
  Si  Si394  1  0.502974  0.254159  0.740726  1
  H  H395  1  0.457542  0.297342  0.075082  1
  H  H396  1  0.457518  0.703216  0.075035  1
  H  H397  1  0.700080  0.297075  0.075029  1
  H  H398  1  0.700057  0.703212  0.074996  1
  H  H399  1  0.298727  0.297143  0.774924  1
  H  H400  1  0.298526  0.702899  0.774872  1
  H  H401  1  0.541476  0.702734  0.774978  1
  H  H402  1  0.541422  0.297041  0.775013  1
