# generated using pymatgen
data_Si8H2O17
_symmetry_space_group_name_H-M   'P 1'
_cell_length_a   18.21443564
_cell_length_b   11.53028005
_cell_length_c   47.98989086
_cell_angle_alpha   57.87465027
_cell_angle_beta   98.63194497
_cell_angle_gamma   68.02464466
_symmetry_Int_Tables_number   1
_chemical_formula_structural   Si8H2O17
_chemical_formula_sum   'Si48 H12 O102'
_cell_volume   7090.48542136
_cell_formula_units_Z   6
loop_
 _symmetry_equiv_pos_site_id
 _symmetry_equiv_pos_as_xyz
  1  'x, y, z'
loop_
 _atom_site_type_symbol
 _atom_site_label
 _atom_site_symmetry_multiplicity
 _atom_site_fract_x
 _atom_site_fract_y
 _atom_site_fract_z
 _atom_site_occupancy
  O  O1  1  0.332881  0.313226  0.156227  1
  O  O2  1  0.832749  0.314258  0.156092  1
  O  O3  1  0.247969  0.009549  0.177274  1
  O  O4  1  0.773206  0.722197  0.230254  1
  O  O5  1  0.273204  0.731588  0.226504  1
  O  O6  1  0.226963  0.277827  0.310327  1
  O  O7  1  0.726962  0.268442  0.314076  1
  O  O8  1  0.832360  0.471382  0.233910  1
  O  O9  1  0.332504  0.471685  0.233702  1
  O  O10  1  0.832493  0.863492  0.244972  1
  O  O11  1  0.332350  0.864075  0.244713  1
  O  O12  1  0.167810  0.528616  0.306681  1
  O  O13  1  0.667669  0.528310  0.306890  1
  O  O14  1  0.167672  0.136511  0.295619  1
  O  O15  1  0.667814  0.135929  0.295877  1
  O  O16  1  0.667290  0.686766  0.199634  1
  O  O17  1  0.167422  0.685732  0.199769  1
  O  O18  1  0.667413  0.979588  0.217914  1
  O  O19  1  0.167281  0.978826  0.218000  1
  O  O20  1  0.332881  0.313226  0.340958  1
  O  O21  1  0.832749  0.314258  0.340823  1
  O  O22  1  0.332750  0.020410  0.322677  1
  O  O23  1  0.832884  0.021171  0.322591  1
  O  O24  1  0.747976  0.494715  0.270169  1
  O  O25  1  0.252203  0.505314  0.270421  1
  O  O26  1  0.752188  0.990500  0.178582  1
  O  O27  1  0.247969  0.009549  0.362005  1
  O  O28  1  0.615956  0.828203  0.264422  1
  O  O29  1  0.115675  0.828017  0.264514  1
  O  O30  1  0.615682  0.940785  0.318785  1
  O  O31  1  0.115963  0.940032  0.318982  1
  O  O32  1  0.384210  0.171795  0.276170  1
  O  O33  1  0.884492  0.171973  0.276079  1
  O  O34  1  0.384487  0.059207  0.221808  1
  O  O35  1  0.884206  0.059956  0.221611  1
  O  O36  1  0.618097  0.706461  0.326814  1
  O  O37  1  0.117903  0.705948  0.326896  1
  O  O38  1  0.617904  0.058401  0.257225  1
  O  O39  1  0.118099  0.057501  0.257380  1
  O  O40  1  0.382069  0.293534  0.213779  1
  O  O41  1  0.882265  0.294042  0.213696  1
  O  O42  1  0.382265  0.941590  0.283368  1
  O  O43  1  0.882070  0.942488  0.283212  1
  O  O44  1  0.500250  0.765998  0.276394  1
  O  O45  1  -0.000000  0.766335  0.276331  1
  O  O46  1  0.499917  0.233993  0.264198  1
  O  O47  1  -0.000000  0.233651  0.264263  1
  O  O48  1  0.500192  0.883853  0.333584  1
  O  O49  1  0.000000  0.884057  0.333546  1
  O  O50  1  0.499975  0.116142  0.207008  1
  O  O51  1  -0.000000  0.115934  0.207047  1
  O  O52  1  0.773206  0.722197  0.414985  1
  O  O53  1  0.273204  0.731588  0.411235  1
  O  O54  1  0.226963  0.277827  0.495058  1
  O  O55  1  0.726962  0.268442  0.498808  1
  O  O56  1  0.832360  0.471382  0.418642  1
  O  O57  1  0.332504  0.471685  0.418433  1
  O  O58  1  0.832493  0.863492  0.429704  1
  O  O59  1  0.332350  0.864075  0.429445  1
  O  O60  1  0.167810  0.528616  0.491412  1
  O  O61  1  0.667669  0.528310  0.491621  1
  O  O62  1  0.167672  0.136511  0.480350  1
  O  O63  1  0.667814  0.135929  0.480608  1
  O  O64  1  0.667290  0.686766  0.384365  1
  O  O65  1  0.167422  0.685732  0.384501  1
  O  O66  1  0.667413  0.979588  0.402645  1
  O  O67  1  0.167281  0.978826  0.402731  1
  O  O68  1  0.332881  0.313226  0.525689  1
  O  O69  1  0.832749  0.314258  0.525555  1
  O  O70  1  0.332750  0.020410  0.507409  1
  O  O71  1  0.832884  0.021171  0.507322  1
  O  O72  1  0.747976  0.494715  0.454901  1
  O  O73  1  0.252203  0.505314  0.455153  1
  O  O74  1  0.752188  0.990500  0.363313  1
  O  O75  1  0.247969  0.009549  0.546737  1
  O  O76  1  0.615956  0.828203  0.449153  1
  O  O77  1  0.115675  0.828017  0.449246  1
  O  O78  1  0.615682  0.940785  0.503516  1
  O  O79  1  0.115963  0.940032  0.503713  1
  O  O80  1  0.384210  0.171795  0.460901  1
  O  O81  1  0.884492  0.171973  0.460810  1
  O  O82  1  0.384487  0.059207  0.406539  1
  O  O83  1  0.884206  0.059956  0.406343  1
  O  O84  1  0.618097  0.706461  0.511545  1
  O  O85  1  0.117903  0.705948  0.511627  1
  O  O86  1  0.617904  0.058401  0.441956  1
  O  O87  1  0.118099  0.057501  0.442112  1
  O  O88  1  0.382069  0.293534  0.398510  1
  O  O89  1  0.882265  0.294042  0.398428  1
  O  O90  1  0.382265  0.941590  0.468099  1
  O  O91  1  0.882070  0.942488  0.467944  1
  O  O92  1  0.500250  0.765998  0.461125  1
  O  O93  1  -0.000000  0.766335  0.461062  1
  O  O94  1  0.499917  0.233993  0.448930  1
  O  O95  1  -0.000000  0.233651  0.448994  1
  O  O96  1  0.500192  0.883853  0.518316  1
  O  O97  1  0.000000  0.884057  0.518277  1
  O  O98  1  0.499975  0.116142  0.391739  1
  O  O99  1  0.000000  0.115934  0.391779  1
  O  O100  1  0.667290  0.686766  0.569097  1
  O  O101  1  0.167422  0.685732  0.569232  1
  O  O102  1  0.752188  0.990500  0.548044  1
  Si  Si103  1  0.755356  0.593620  0.233845  1
  Si  Si104  1  0.256438  0.597671  0.233039  1
  Si  Si105  1  0.756430  0.889649  0.217528  1
  Si  Si106  1  0.255347  0.895860  0.216323  1
  Si  Si107  1  0.244818  0.406390  0.306743  1
  Si  Si108  1  0.743736  0.402339  0.307550  1
  Si  Si109  1  0.243732  0.110374  0.323058  1
  Si  Si110  1  0.744816  0.104159  0.324264  1
  Si  Si111  1  0.601571  0.699697  0.294577  1
  Si  Si112  1  0.101291  0.699413  0.294629  1
  Si  Si113  1  0.601292  0.098161  0.283355  1
  Si  Si114  1  0.101580  0.097311  0.283513  1
  Si  Si115  1  0.398596  0.300296  0.246015  1
  Si  Si116  1  0.898877  0.300578  0.245964  1
  Si  Si117  1  0.398876  0.901832  0.257238  1
  Si  Si118  1  0.898587  0.902681  0.257079  1
  Si  Si119  1  0.601624  0.798527  0.342758  1
  Si  Si120  1  0.101461  0.798087  0.342832  1
  Si  Si121  1  0.601454  0.000000  0.235215  1
  Si  Si122  1  0.101621  0.998392  0.235347  1
  Si  Si123  1  0.398544  0.201466  0.197834  1
  Si  Si124  1  0.898706  0.201904  0.197761  1
  Si  Si125  1  0.398714  0.000000  0.305377  1
  Si  Si126  1  0.898547  0.001599  0.305246  1
  Si  Si127  1  0.755356  0.593620  0.418577  1
  Si  Si128  1  0.256438  0.597671  0.417771  1
  Si  Si129  1  0.756430  0.889649  0.402259  1
  Si  Si130  1  0.255347  0.895860  0.401054  1
  Si  Si131  1  0.244818  0.406390  0.491474  1
  Si  Si132  1  0.743736  0.402339  0.492282  1
  Si  Si133  1  0.243732  0.110374  0.507790  1
  Si  Si134  1  0.744816  0.104159  0.508996  1
  Si  Si135  1  0.601571  0.699697  0.479309  1
  Si  Si136  1  0.101291  0.699413  0.479360  1
  Si  Si137  1  0.601292  0.098161  0.468086  1
  Si  Si138  1  0.101580  0.097311  0.468244  1
  Si  Si139  1  0.398596  0.300296  0.430747  1
  Si  Si140  1  0.898877  0.300578  0.430696  1
  Si  Si141  1  0.398876  0.901832  0.441969  1
  Si  Si142  1  0.898587  0.902681  0.441810  1
  Si  Si143  1  0.601624  0.798527  0.527489  1
  Si  Si144  1  0.101461  0.798087  0.527563  1
  Si  Si145  1  0.601454  0.000000  0.419947  1
  Si  Si146  1  0.101621  0.998392  0.420078  1
  Si  Si147  1  0.398544  0.201466  0.382565  1
  Si  Si148  1  0.898706  0.201904  0.382492  1
  Si  Si149  1  0.398714  -0.000000  0.490108  1
  Si  Si150  1  0.898547  0.001599  0.489978  1
  H  H151  1  0.332881  0.313226  0.137473  1
  H  H152  1  0.832749  0.314258  0.137338  1
  H  H153  1  0.247969  0.009549  0.158520  1
  H  H154  1  0.667290  0.686766  0.180880  1
  H  H155  1  0.167422  0.685732  0.181015  1
  H  H156  1  0.752188  0.990500  0.159828  1
  H  H157  1  0.332881  0.313226  0.544443  1
  H  H158  1  0.832749  0.314258  0.544309  1
  H  H159  1  0.247969  0.009549  0.565491  1
  H  H160  1  0.667290  0.686766  0.587851  1
  H  H161  1  0.167422  0.685732  0.587986  1
  H  H162  1  0.752188  0.990500  0.566798  1
