# generated using pymatgen
data_Si38H2O77
_symmetry_space_group_name_H-M   'P 1'
_cell_length_a   12.87085738
_cell_length_b   12.87068762
_cell_length_c   80.19698760
_cell_angle_alpha   90.00000000
_cell_angle_beta   90.00000000
_cell_angle_gamma   90.00000000
_symmetry_Int_Tables_number   1
_chemical_formula_structural   Si38H2O77
_chemical_formula_sum   'Si152 H8 O308'
_cell_volume   13285.1751112
_cell_formula_units_Z   4
loop_
 _symmetry_equiv_pos_site_id
 _symmetry_equiv_pos_as_xyz
  1  'x, y, z'
loop_
 _atom_site_type_symbol
 _atom_site_label
 _atom_site_symmetry_multiplicity
 _atom_site_fract_x
 _atom_site_fract_y
 _atom_site_fract_z
 _atom_site_occupancy
  O  O1  1  0.866979  0.135367  0.120817  1
  O  O2  1  0.133066  0.135323  0.120815  1
  O  O3  1  -0.000000  0.139122  0.143400  1
  O  O4  1  -0.000000  0.139135  0.098232  1
  O  O5  1  0.808013  0.201919  0.148814  1
  O  O6  1  0.192060  0.201875  0.148812  1
  O  O7  1  0.807986  0.201939  0.092821  1
  O  O8  1  0.192034  0.201887  0.092818  1
  O  O9  1  0.831745  0.399336  0.093724  1
  O  O10  1  0.168220  0.399276  0.093725  1
  O  O11  1  0.831758  0.399315  0.147910  1
  O  O12  1  0.168240  0.399266  0.147913  1
  O  O13  1  0.669435  0.329674  0.104885  1
  O  O14  1  0.330559  0.329650  0.104880  1
  O  O15  1  0.669443  0.329643  0.136750  1
  O  O16  1  0.330559  0.329650  0.136748  1
  O  O17  1  0.693407  0.323603  0.073574  1
  O  O18  1  0.306559  0.323598  0.073569  1
  O  O19  1  0.693441  0.323587  0.168061  1
  O  O20  1  0.306614  0.323565  0.168060  1
  O  O21  1  -0.000000  0.499889  0.143678  1
  O  O22  1  -0.000000  0.499905  0.097961  1
  O  O23  1  0.499993  0.357751  0.120817  1
  O  O24  1  0.367423  0.499895  0.120814  1
  O  O25  1  0.868138  0.499921  0.120819  1
  O  O26  1  0.632553  0.499904  0.120822  1
  O  O27  1  0.131856  0.499868  0.120820  1
  O  O28  1  0.358648  0.499832  0.222384  1
  O  O29  1  -0.000000  0.140502  0.256542  1
  O  O30  1  0.202055  0.191922  0.251237  1
  O  O31  1  0.798025  0.191824  0.251235  1
  O  O32  1  0.399440  0.168066  0.252148  1
  O  O33  1  0.600630  0.168115  0.252141  1
  O  O34  1  0.329847  0.330434  0.263300  1
  O  O35  1  0.670342  0.330402  0.263303  1
  O  O36  1  0.323791  0.306405  0.231989  1
  O  O37  1  0.676366  0.306434  0.231990  1
  O  O38  1  0.641485  0.499849  0.222382  1
  O  O39  1  0.640704  0.359214  0.200025  1
  O  O40  1  0.359401  0.359196  0.200025  1
  O  O41  1  0.367088  0.499859  0.178188  1
  O  O42  1  0.500071  0.366912  0.221863  1
  O  O43  1  0.500032  0.358455  0.177669  1
  O  O44  1  0.632952  0.499881  0.178188  1
  O  O45  1  0.133029  0.864409  0.120815  1
  O  O46  1  0.866934  0.864462  0.120818  1
  O  O47  1  -0.000000  0.860647  0.143400  1
  O  O48  1  -0.000000  0.860660  0.098233  1
  O  O49  1  0.140638  0.000000  0.098125  1
  O  O50  1  0.192011  0.797852  0.148815  1
  O  O51  1  0.807967  0.797901  0.148816  1
  O  O52  1  0.191982  0.797858  0.092817  1
  O  O53  1  0.807930  0.797913  0.092822  1
  O  O54  1  0.168242  0.600466  0.093726  1
  O  O55  1  0.831756  0.600528  0.093728  1
  O  O56  1  0.168243  0.600459  0.147914  1
  O  O57  1  0.831763  0.600511  0.147912  1
  O  O58  1  0.330541  0.670155  0.104886  1
  O  O59  1  0.669417  0.670143  0.104887  1
  O  O60  1  0.330549  0.670116  0.136754  1
  O  O61  1  0.669430  0.670152  0.136754  1
  O  O62  1  0.306570  0.676176  0.073573  1
  O  O63  1  0.693398  0.676191  0.073576  1
  O  O64  1  0.306583  0.676162  0.168066  1
  O  O65  1  0.693419  0.676193  0.168064  1
  O  O66  1  0.499982  0.642049  0.120821  1
  O  O67  1  0.859365  0.000000  0.143508  1
  O  O68  1  0.140667  0.000000  0.143505  1
  O  O69  1  0.859334  0.000000  0.098127  1
  O  O70  1  0.860846  0.000000  0.256650  1
  O  O71  1  0.139318  0.000000  0.256648  1
  O  O72  1  -0.000000  0.859195  0.256543  1
  O  O73  1  0.798119  0.807774  0.251238  1
  O  O74  1  0.202150  0.807873  0.251238  1
  O  O75  1  0.600739  0.831620  0.252146  1
  O  O76  1  0.399550  0.831603  0.252142  1
  O  O77  1  0.670347  0.669275  0.263304  1
  O  O78  1  0.329865  0.669312  0.263305  1
  O  O79  1  0.676369  0.693259  0.231992  1
  O  O80  1  0.323789  0.693259  0.231994  1
  O  O81  1  0.359387  0.640492  0.200029  1
  O  O82  1  0.640684  0.640516  0.200028  1
  O  O83  1  0.500061  0.632767  0.221867  1
  O  O84  1  0.500009  0.641285  0.177672  1
  O  O85  1  0.500106  0.000000  0.256380  1
  O  O86  1  0.500081  0.131718  0.279239  1
  O  O87  1  -0.000000  0.140520  0.301923  1
  O  O88  1  0.202048  0.191936  0.307228  1
  O  O89  1  0.798028  0.191845  0.307235  1
  O  O90  1  0.399439  0.168088  0.306328  1
  O  O91  1  0.600632  0.168126  0.306336  1
  O  O92  1  0.329844  0.330426  0.295166  1
  O  O93  1  0.670324  0.330407  0.295170  1
  O  O94  1  0.323752  0.306467  0.326477  1
  O  O95  1  0.676361  0.306466  0.326483  1
  O  O96  1  0.641461  0.499880  0.336091  1
  O  O97  1  0.500092  0.367290  0.279234  1
  O  O98  1  0.359367  0.359237  0.358441  1
  O  O99  1  0.640661  0.359235  0.358446  1
  O  O100  1  0.500043  0.366949  0.336604  1
  O  O101  1  0.499987  0.358469  0.380800  1
  O  O102  1  0.642249  0.499844  0.279238  1
  O  O103  1  0.358635  0.499888  0.336086  1
  O  O104  1  0.357951  0.499868  0.279236  1
  O  O105  1  0.632915  0.499888  0.380286  1
  O  O106  1  0.367059  0.499886  0.380281  1
  O  O107  1  0.135485  0.132941  0.279232  1
  O  O108  1  0.864576  0.132870  0.279234  1
  O  O109  1  0.866979  0.135367  0.437654  1
  O  O110  1  0.133066  0.135323  0.437651  1
  O  O111  1  -0.000000  0.139122  0.460236  1
  O  O112  1  -0.000000  0.139135  0.415068  1
  O  O113  1  0.808013  0.201919  0.465650  1
  O  O114  1  0.192060  0.201875  0.465648  1
  O  O115  1  0.807986  0.201939  0.409658  1
  O  O116  1  0.192034  0.201887  0.409654  1
  O  O117  1  0.831745  0.399336  0.410560  1
  O  O118  1  0.168220  0.399276  0.410561  1
  O  O119  1  0.831758  0.399315  0.464746  1
  O  O120  1  0.168240  0.399266  0.464749  1
  O  O121  1  0.669435  0.329674  0.421721  1
  O  O122  1  0.330559  0.329650  0.421717  1
  O  O123  1  0.669443  0.329643  0.453586  1
  O  O124  1  0.330559  0.329650  0.453584  1
  O  O125  1  0.693407  0.323603  0.390410  1
  O  O126  1  0.306559  0.323598  0.390405  1
  O  O127  1  0.693441  0.323587  0.484897  1
  O  O128  1  0.306614  0.323565  0.484897  1
  O  O129  1  0.000000  0.499889  0.460514  1
  O  O130  1  -0.000000  0.499905  0.414798  1
  O  O131  1  0.499993  0.357751  0.437653  1
  O  O132  1  0.367423  0.499895  0.437650  1
  O  O133  1  0.868138  0.499921  0.437655  1
  O  O134  1  0.632553  0.499904  0.437658  1
  O  O135  1  0.131856  0.499868  0.437656  1
  O  O136  1  0.358648  0.499832  0.539220  1
  O  O137  1  -0.000000  0.140502  0.573378  1
  O  O138  1  0.202055  0.191922  0.568073  1
  O  O139  1  0.798025  0.191824  0.568071  1
  O  O140  1  0.399440  0.168066  0.568985  1
  O  O141  1  0.600630  0.168115  0.568977  1
  O  O142  1  0.329847  0.330434  0.580136  1
  O  O143  1  0.670342  0.330402  0.580139  1
  O  O144  1  0.323791  0.306405  0.548825  1
  O  O145  1  0.676366  0.306434  0.548826  1
  O  O146  1  0.641485  0.499849  0.539218  1
  O  O147  1  0.640704  0.359214  0.516861  1
  O  O148  1  0.359401  0.359196  0.516862  1
  O  O149  1  0.367088  0.499859  0.495024  1
  O  O150  1  0.500071  0.366912  0.538700  1
  O  O151  1  0.500032  0.358455  0.494505  1
  O  O152  1  0.632952  0.499881  0.495024  1
  O  O153  1  0.860840  0.000000  0.301817  1
  O  O154  1  -0.000000  0.859218  0.301924  1
  O  O155  1  0.798122  0.807794  0.307234  1
  O  O156  1  0.202140  0.807899  0.307231  1
  O  O157  1  0.600741  0.831630  0.306329  1
  O  O158  1  0.399544  0.831621  0.306332  1
  O  O159  1  0.670349  0.669279  0.295173  1
  O  O160  1  0.329859  0.669319  0.295170  1
  O  O161  1  0.676377  0.693285  0.326484  1
  O  O162  1  0.323771  0.693308  0.326480  1
  O  O163  1  0.139315  0.000000  0.301816  1
  O  O164  1  0.500107  0.632421  0.279239  1
  O  O165  1  0.640671  0.640535  0.358448  1
  O  O166  1  0.359370  0.640538  0.358444  1
  O  O167  1  0.500052  0.632819  0.336607  1
  O  O168  1  0.500126  0.868000  0.279238  1
  O  O169  1  0.499989  0.641305  0.380802  1
  O  O170  1  0.500106  0.000000  0.302096  1
  O  O171  1  0.135579  0.866856  0.279233  1
  O  O172  1  0.864672  0.866769  0.279234  1
  O  O173  1  0.133029  0.864409  0.437652  1
  O  O174  1  0.866934  0.864462  0.437654  1
  O  O175  1  -0.000000  0.860647  0.460236  1
  O  O176  1  -0.000000  0.860660  0.415069  1
  O  O177  1  0.140638  0.000000  0.414961  1
  O  O178  1  0.192011  0.797852  0.465651  1
  O  O179  1  0.807967  0.797901  0.465652  1
  O  O180  1  0.191982  0.797858  0.409653  1
  O  O181  1  0.807930  0.797913  0.409658  1
  O  O182  1  0.168242  0.600466  0.410562  1
  O  O183  1  0.831756  0.600528  0.410564  1
  O  O184  1  0.168243  0.600459  0.464751  1
  O  O185  1  0.831763  0.600511  0.464748  1
  O  O186  1  0.330541  0.670155  0.421722  1
  O  O187  1  0.669417  0.670143  0.421723  1
  O  O188  1  0.330549  0.670116  0.453590  1
  O  O189  1  0.669430  0.670152  0.453590  1
  O  O190  1  0.306570  0.676176  0.390409  1
  O  O191  1  0.693398  0.676191  0.390412  1
  O  O192  1  0.306583  0.676162  0.484902  1
  O  O193  1  0.693419  0.676193  0.484900  1
  O  O194  1  0.499982  0.642049  0.437657  1
  O  O195  1  0.859365  0.000000  0.460344  1
  O  O196  1  0.140667  0.000000  0.460341  1
  O  O197  1  0.859334  0.000000  0.414963  1
  O  O198  1  0.860846  0.000000  0.573487  1
  O  O199  1  0.139318  0.000000  0.573484  1
  O  O200  1  -0.000000  0.859195  0.573379  1
  O  O201  1  0.798119  0.807774  0.568074  1
  O  O202  1  0.202150  0.807873  0.568074  1
  O  O203  1  0.600739  0.831620  0.568982  1
  O  O204  1  0.399550  0.831603  0.568978  1
  O  O205  1  0.670347  0.669275  0.580140  1
  O  O206  1  0.329865  0.669312  0.580141  1
  O  O207  1  0.676369  0.693259  0.548828  1
  O  O208  1  0.323789  0.693259  0.548830  1
  O  O209  1  0.359387  0.640492  0.516865  1
  O  O210  1  0.640684  0.640516  0.516864  1
  O  O211  1  0.500061  0.632767  0.538703  1
  O  O212  1  0.500009  0.641285  0.494508  1
  O  O213  1  0.500106  0.000000  0.573217  1
  O  O214  1  0.500081  0.131718  0.596075  1
  O  O215  1  0.000000  0.140520  0.618759  1
  O  O216  1  0.202048  0.191936  0.624064  1
  O  O217  1  0.798028  0.191845  0.624071  1
  O  O218  1  0.399439  0.168088  0.623165  1
  O  O219  1  0.600632  0.168126  0.623172  1
  O  O220  1  0.329844  0.330426  0.612002  1
  O  O221  1  0.670324  0.330407  0.612007  1
  O  O222  1  0.323752  0.306467  0.643313  1
  O  O223  1  0.676361  0.306466  0.643319  1
  O  O224  1  0.641461  0.499880  0.652927  1
  O  O225  1  0.500092  0.367290  0.596070  1
  O  O226  1  0.359367  0.359237  0.675277  1
  O  O227  1  0.640661  0.359235  0.675283  1
  O  O228  1  0.500043  0.366949  0.653440  1
  O  O229  1  0.499987  0.358469  0.697636  1
  O  O230  1  0.642249  0.499844  0.596074  1
  O  O231  1  0.358635  0.499888  0.652922  1
  O  O232  1  0.357951  0.499868  0.596073  1
  O  O233  1  0.632915  0.499888  0.697122  1
  O  O234  1  0.367059  0.499886  0.697118  1
  O  O235  1  0.135485  0.132941  0.596068  1
  O  O236  1  0.864576  0.132870  0.596070  1
  O  O237  1  0.866979  0.135367  0.754490  1
  O  O238  1  0.133066  0.135323  0.754487  1
  O  O239  1  -0.000000  0.139122  0.777072  1
  O  O240  1  -0.000000  0.139135  0.731904  1
  O  O241  1  0.808013  0.201919  0.782487  1
  O  O242  1  0.192060  0.201875  0.782484  1
  O  O243  1  0.807986  0.201939  0.726494  1
  O  O244  1  0.192034  0.201887  0.726490  1
  O  O245  1  0.831745  0.399336  0.727396  1
  O  O246  1  0.168220  0.399276  0.727397  1
  O  O247  1  0.831758  0.399315  0.781582  1
  O  O248  1  0.168240  0.399266  0.781585  1
  O  O249  1  0.669435  0.329674  0.738557  1
  O  O250  1  0.330559  0.329650  0.738553  1
  O  O251  1  0.669443  0.329643  0.770422  1
  O  O252  1  0.330559  0.329650  0.770421  1
  O  O253  1  0.693407  0.323603  0.707247  1
  O  O254  1  0.306559  0.323598  0.707241  1
  O  O255  1  0.693441  0.323587  0.801733  1
  O  O256  1  0.306614  0.323565  0.801733  1
  O  O257  1  -0.000000  0.499889  0.777350  1
  O  O258  1  -0.000000  0.499905  0.731634  1
  O  O259  1  0.499993  0.357751  0.754489  1
  O  O260  1  0.367423  0.499895  0.754487  1
  O  O261  1  0.868138  0.499921  0.754491  1
  O  O262  1  0.632553  0.499904  0.754494  1
  O  O263  1  0.131856  0.499868  0.754492  1
  O  O264  1  0.860840  0.000000  0.618653  1
  O  O265  1  -0.000000  0.859218  0.618760  1
  O  O266  1  0.798122  0.807794  0.624070  1
  O  O267  1  0.202140  0.807899  0.624067  1
  O  O268  1  0.600741  0.831630  0.623165  1
  O  O269  1  0.399544  0.831621  0.623168  1
  O  O270  1  0.670349  0.669279  0.612009  1
  O  O271  1  0.329859  0.669319  0.612006  1
  O  O272  1  0.676377  0.693285  0.643320  1
  O  O273  1  0.323771  0.693308  0.643316  1
  O  O274  1  0.139315  0.000000  0.618653  1
  O  O275  1  0.500107  0.632421  0.596075  1
  O  O276  1  0.640671  0.640535  0.675284  1
  O  O277  1  0.359370  0.640538  0.675280  1
  O  O278  1  0.500052  0.632819  0.653444  1
  O  O279  1  0.500126  0.868000  0.596074  1
  O  O280  1  0.499989  0.641305  0.697638  1
  O  O281  1  0.500106  0.000000  0.618933  1
  O  O282  1  0.135579  0.866856  0.596069  1
  O  O283  1  0.864672  0.866769  0.596071  1
  O  O284  1  0.133029  0.864409  0.754488  1
  O  O285  1  0.866934  0.864462  0.754490  1
  O  O286  1  -0.000000  0.860647  0.777072  1
  O  O287  1  -0.000000  0.860660  0.731905  1
  O  O288  1  0.140638  0.000000  0.731797  1
  O  O289  1  0.192011  0.797852  0.782488  1
  O  O290  1  0.807967  0.797901  0.782488  1
  O  O291  1  0.191982  0.797858  0.726489  1
  O  O292  1  0.807930  0.797913  0.726494  1
  O  O293  1  0.168242  0.600466  0.727398  1
  O  O294  1  0.831756  0.600528  0.727400  1
  O  O295  1  0.168243  0.600459  0.781587  1
  O  O296  1  0.831763  0.600511  0.781585  1
  O  O297  1  0.330541  0.670155  0.738559  1
  O  O298  1  0.669417  0.670143  0.738559  1
  O  O299  1  0.330549  0.670116  0.770426  1
  O  O300  1  0.669430  0.670152  0.770426  1
  O  O301  1  0.306570  0.676176  0.707246  1
  O  O302  1  0.693398  0.676191  0.707248  1
  O  O303  1  0.306583  0.676162  0.801738  1
  O  O304  1  0.693419  0.676193  0.801737  1
  O  O305  1  0.499982  0.642049  0.754493  1
  O  O306  1  0.859365  0.000000  0.777181  1
  O  O307  1  0.140667  0.000000  0.777177  1
  O  O308  1  0.859334  0.000000  0.731799  1
  Si  Si309  1  0.380775  0.378462  0.120815  1
  Si  Si310  1  0.619209  0.378470  0.120819  1
  Si  Si311  1  0.119119  0.499876  0.101360  1
  Si  Si312  1  0.119126  0.499867  0.140280  1
  Si  Si313  1  0.880869  0.499924  0.101359  1
  Si  Si314  1  0.751167  0.309710  0.090751  1
  Si  Si315  1  0.248823  0.309676  0.090747  1
  Si  Si316  1  0.751185  0.309685  0.150883  1
  Si  Si317  1  0.248848  0.309662  0.150884  1
  Si  Si318  1  0.880396  0.119450  0.140071  1
  Si  Si319  1  0.119667  0.119412  0.140069  1
  Si  Si320  1  0.880371  0.119464  0.101563  1
  Si  Si321  1  0.119643  0.119422  0.101560  1
  Si  Si322  1  0.880876  0.499914  0.140278  1
  Si  Si323  1  0.620272  0.380283  0.219179  1
  Si  Si324  1  0.500060  0.118979  0.259779  1
  Si  Si325  1  0.309857  0.248686  0.249169  1
  Si  Si326  1  0.690270  0.248674  0.249167  1
  Si  Si327  1  0.119588  0.119522  0.259978  1
  Si  Si328  1  0.880498  0.119453  0.259979  1
  Si  Si329  1  0.619596  0.379677  0.180873  1
  Si  Si330  1  0.380464  0.379657  0.180872  1
  Si  Si331  1  0.379868  0.380268  0.219178  1
  Si  Si332  1  0.619200  0.621338  0.120821  1
  Si  Si333  1  0.380766  0.621329  0.120819  1
  Si  Si334  1  0.248815  0.690091  0.090750  1
  Si  Si335  1  0.751143  0.690123  0.090753  1
  Si  Si336  1  0.248825  0.690079  0.150889  1
  Si  Si337  1  0.751165  0.690120  0.150887  1
  Si  Si338  1  0.119634  0.880318  0.140070  1
  Si  Si339  1  0.880361  0.880359  0.140072  1
  Si  Si340  1  0.119607  0.880329  0.101561  1
  Si  Si341  1  0.880334  0.880372  0.101564  1
  Si  Si342  1  0.379860  0.619401  0.219181  1
  Si  Si343  1  0.620263  0.619416  0.219180  1
  Si  Si344  1  0.500133  0.880727  0.259778  1
  Si  Si345  1  0.690322  0.750997  0.249169  1
  Si  Si346  1  0.309912  0.751037  0.249169  1
  Si  Si347  1  0.880576  0.880178  0.259980  1
  Si  Si348  1  0.119667  0.880248  0.259978  1
  Si  Si349  1  0.380445  0.620061  0.180876  1
  Si  Si350  1  0.619578  0.620081  0.180875  1
  Si  Si351  1  0.621527  0.380627  0.279236  1
  Si  Si352  1  0.500059  0.118991  0.298699  1
  Si  Si353  1  0.378660  0.380649  0.279234  1
  Si  Si354  1  0.309844  0.248707  0.309300  1
  Si  Si355  1  0.690272  0.248690  0.309307  1
  Si  Si356  1  0.119584  0.119539  0.298486  1
  Si  Si357  1  0.880493  0.119471  0.298488  1
  Si  Si358  1  0.379841  0.380319  0.339289  1
  Si  Si359  1  0.620242  0.380313  0.339293  1
  Si  Si360  1  0.619554  0.379687  0.377598  1
  Si  Si361  1  0.380423  0.379685  0.377595  1
  Si  Si362  1  0.380775  0.378462  0.437651  1
  Si  Si363  1  0.619209  0.378470  0.437655  1
  Si  Si364  1  0.119119  0.499876  0.418196  1
  Si  Si365  1  0.119126  0.499867  0.457116  1
  Si  Si366  1  0.880869  0.499924  0.418195  1
  Si  Si367  1  0.751167  0.309710  0.407587  1
  Si  Si368  1  0.248823  0.309676  0.407584  1
  Si  Si369  1  0.751185  0.309685  0.467719  1
  Si  Si370  1  0.248848  0.309662  0.467720  1
  Si  Si371  1  0.880396  0.119450  0.456908  1
  Si  Si372  1  0.119667  0.119412  0.456905  1
  Si  Si373  1  0.880371  0.119464  0.418399  1
  Si  Si374  1  0.119643  0.119422  0.418397  1
  Si  Si375  1  0.880876  0.499914  0.457115  1
  Si  Si376  1  0.620272  0.380283  0.536015  1
  Si  Si377  1  0.500060  0.118979  0.576615  1
  Si  Si378  1  0.309857  0.248686  0.566005  1
  Si  Si379  1  0.690270  0.248674  0.566003  1
  Si  Si380  1  0.119588  0.119522  0.576814  1
  Si  Si381  1  0.880498  0.119453  0.576816  1
  Si  Si382  1  0.619596  0.379677  0.497709  1
  Si  Si383  1  0.380464  0.379657  0.497709  1
  Si  Si384  1  0.379868  0.380268  0.536014  1
  Si  Si385  1  0.380425  0.620089  0.377598  1
  Si  Si386  1  0.379849  0.619452  0.339292  1
  Si  Si387  1  0.500136  0.880739  0.298697  1
  Si  Si388  1  0.619557  0.620091  0.377600  1
  Si  Si389  1  0.690330  0.751014  0.309306  1
  Si  Si390  1  0.309899  0.751063  0.309302  1
  Si  Si391  1  0.880572  0.880195  0.298489  1
  Si  Si392  1  0.119662  0.880266  0.298487  1
  Si  Si393  1  0.620252  0.619448  0.339295  1
  Si  Si394  1  0.378673  0.619084  0.279238  1
  Si  Si395  1  0.621539  0.619063  0.279239  1
  Si  Si396  1  0.619200  0.621338  0.437657  1
  Si  Si397  1  0.380766  0.621329  0.437655  1
  Si  Si398  1  0.248815  0.690091  0.407586  1
  Si  Si399  1  0.751143  0.690123  0.407589  1
  Si  Si400  1  0.248825  0.690079  0.467725  1
  Si  Si401  1  0.751165  0.690120  0.467723  1
  Si  Si402  1  0.119634  0.880318  0.456906  1
  Si  Si403  1  0.880361  0.880359  0.456908  1
  Si  Si404  1  0.119607  0.880329  0.418397  1
  Si  Si405  1  0.880334  0.880372  0.418400  1
  Si  Si406  1  0.379860  0.619401  0.536017  1
  Si  Si407  1  0.620263  0.619416  0.536017  1
  Si  Si408  1  0.500133  0.880727  0.576614  1
  Si  Si409  1  0.690322  0.750997  0.566005  1
  Si  Si410  1  0.309912  0.751037  0.566005  1
  Si  Si411  1  0.880576  0.880178  0.576816  1
  Si  Si412  1  0.119667  0.880248  0.576815  1
  Si  Si413  1  0.380445  0.620061  0.497712  1
  Si  Si414  1  0.619578  0.620081  0.497711  1
  Si  Si415  1  0.621527  0.380627  0.596072  1
  Si  Si416  1  0.500059  0.118991  0.615535  1
  Si  Si417  1  0.378660  0.380649  0.596070  1
  Si  Si418  1  0.309844  0.248707  0.626136  1
  Si  Si419  1  0.690272  0.248690  0.626143  1
  Si  Si420  1  0.119584  0.119539  0.615323  1
  Si  Si421  1  0.880493  0.119471  0.615324  1
  Si  Si422  1  0.379841  0.380319  0.656125  1
  Si  Si423  1  0.620242  0.380313  0.656129  1
  Si  Si424  1  0.619554  0.379687  0.694434  1
  Si  Si425  1  0.380423  0.379685  0.694431  1
  Si  Si426  1  0.380775  0.378462  0.754487  1
  Si  Si427  1  0.619209  0.378470  0.754491  1
  Si  Si428  1  0.119119  0.499876  0.735032  1
  Si  Si429  1  0.119126  0.499867  0.773952  1
  Si  Si430  1  0.880869  0.499924  0.735032  1
  Si  Si431  1  0.751167  0.309710  0.724424  1
  Si  Si432  1  0.248823  0.309676  0.724420  1
  Si  Si433  1  0.751185  0.309685  0.784556  1
  Si  Si434  1  0.248848  0.309662  0.784556  1
  Si  Si435  1  0.880396  0.119450  0.773744  1
  Si  Si436  1  0.119667  0.119412  0.773741  1
  Si  Si437  1  0.880371  0.119464  0.735235  1
  Si  Si438  1  0.119643  0.119422  0.735233  1
  Si  Si439  1  0.880876  0.499914  0.773951  1
  Si  Si440  1  0.380425  0.620089  0.694434  1
  Si  Si441  1  0.379849  0.619452  0.656129  1
  Si  Si442  1  0.500136  0.880739  0.615534  1
  Si  Si443  1  0.619557  0.620091  0.694436  1
  Si  Si444  1  0.690330  0.751014  0.626142  1
  Si  Si445  1  0.309899  0.751063  0.626138  1
  Si  Si446  1  0.880572  0.880195  0.615325  1
  Si  Si447  1  0.119662  0.880266  0.615323  1
  Si  Si448  1  0.620252  0.619448  0.656131  1
  Si  Si449  1  0.378673  0.619084  0.596074  1
  Si  Si450  1  0.621539  0.619063  0.596075  1
  Si  Si451  1  0.619200  0.621338  0.754493  1
  Si  Si452  1  0.380766  0.621329  0.754491  1
  Si  Si453  1  0.248815  0.690091  0.724423  1
  Si  Si454  1  0.751143  0.690123  0.724425  1
  Si  Si455  1  0.248825  0.690079  0.784561  1
  Si  Si456  1  0.751165  0.690120  0.784559  1
  Si  Si457  1  0.119634  0.880318  0.773742  1
  Si  Si458  1  0.880361  0.880359  0.773744  1
  Si  Si459  1  0.119607  0.880329  0.735234  1
  Si  Si460  1  0.880334  0.880372  0.735236  1
  H  H461  1  0.693407  0.323603  0.062352  1
  H  H462  1  0.306559  0.323598  0.062346  1
  H  H463  1  0.306570  0.676176  0.062351  1
  H  H464  1  0.693398  0.676191  0.062353  1
  H  H465  1  0.693441  0.323587  0.812955  1
  H  H466  1  0.306614  0.323565  0.812955  1
  H  H467  1  0.306583  0.676162  0.812961  1
  H  H468  1  0.693419  0.676193  0.812959  1
