# generated using pymatgen
data_Si4H2O9
_symmetry_space_group_name_H-M   'P 1'
_cell_length_a   18.21443564
_cell_length_b   11.53028005
_cell_length_c   39.12465285
_cell_angle_alpha   57.87465027
_cell_angle_beta   98.63194497
_cell_angle_gamma   68.02464466
_symmetry_Int_Tables_number   1
_chemical_formula_structural   Si4H2O9
_chemical_formula_sum   'Si24 H12 O54'
_cell_volume   5780.6503762
_cell_formula_units_Z   6
loop_
 _symmetry_equiv_pos_site_id
 _symmetry_equiv_pos_as_xyz
  1  'x, y, z'
loop_
 _atom_site_type_symbol
 _atom_site_label
 _atom_site_symmetry_multiplicity
 _atom_site_fract_x
 _atom_site_fract_y
 _atom_site_fract_z
 _atom_site_occupancy
  O  O1  1  0.332881  0.313226  0.191626  1
  O  O2  1  0.832749  0.314258  0.191461  1
  O  O3  1  0.247969  0.009549  0.217442  1
  O  O4  1  0.773206  0.722197  0.282427  1
  O  O5  1  0.273204  0.731588  0.277827  1
  O  O6  1  0.226963  0.277827  0.380644  1
  O  O7  1  0.726962  0.268442  0.385243  1
  O  O8  1  0.832360  0.471382  0.286912  1
  O  O9  1  0.332504  0.471685  0.286657  1
  O  O10  1  0.832493  0.863492  0.300481  1
  O  O11  1  0.332350  0.864075  0.300163  1
  O  O12  1  0.167810  0.528616  0.376172  1
  O  O13  1  0.667669  0.528310  0.376428  1
  O  O14  1  0.167672  0.136511  0.362603  1
  O  O15  1  0.667814  0.135929  0.362919  1
  O  O16  1  0.667290  0.686766  0.244869  1
  O  O17  1  0.167422  0.685732  0.245035  1
  O  O18  1  0.667413  0.979588  0.267291  1
  O  O19  1  0.167281  0.978826  0.267396  1
  O  O20  1  0.332881  0.313226  0.418216  1
  O  O21  1  0.832749  0.314258  0.418050  1
  O  O22  1  0.332750  0.020410  0.395792  1
  O  O23  1  0.832884  0.021171  0.395687  1
  O  O24  1  0.747976  0.494715  0.331387  1
  O  O25  1  0.252203  0.505314  0.331696  1
  O  O26  1  0.752188  0.990500  0.219046  1
  O  O27  1  0.247969  0.009549  0.444032  1
  O  O28  1  0.615956  0.828203  0.324337  1
  O  O29  1  0.115675  0.828017  0.324451  1
  O  O30  1  0.615682  0.940785  0.391018  1
  O  O31  1  0.115963  0.940032  0.391260  1
  O  O32  1  0.384210  0.171795  0.338747  1
  O  O33  1  0.884492  0.171973  0.338635  1
  O  O34  1  0.384487  0.059207  0.272067  1
  O  O35  1  0.884206  0.059956  0.271826  1
  O  O36  1  0.618097  0.706461  0.400866  1
  O  O37  1  0.117903  0.705948  0.400967  1
  O  O38  1  0.617904  0.058401  0.315509  1
  O  O39  1  0.118099  0.057501  0.315700  1
  O  O40  1  0.382069  0.293534  0.262219  1
  O  O41  1  0.882265  0.294042  0.262118  1
  O  O42  1  0.382265  0.941590  0.347576  1
  O  O43  1  0.882070  0.942488  0.347385  1
  O  O44  1  0.500250  0.765998  0.339022  1
  O  O45  1  0.000000  0.766335  0.338944  1
  O  O46  1  0.499917  0.233993  0.324063  1
  O  O47  1  -0.000000  0.233651  0.324142  1
  O  O48  1  0.500192  0.883853  0.409171  1
  O  O49  1  0.000000  0.884057  0.409124  1
  O  O50  1  0.499975  0.116142  0.253914  1
  O  O51  1  -0.000000  0.115934  0.253962  1
  O  O52  1  0.667290  0.686766  0.471458  1
  O  O53  1  0.167422  0.685732  0.471624  1
  O  O54  1  0.752188  0.990500  0.445636  1
  Si  Si55  1  0.755356  0.593620  0.286832  1
  Si  Si56  1  0.256438  0.597671  0.285844  1
  Si  Si57  1  0.756430  0.889649  0.266818  1
  Si  Si58  1  0.255347  0.895860  0.265340  1
  Si  Si59  1  0.244818  0.406390  0.376248  1
  Si  Si60  1  0.743736  0.402339  0.377238  1
  Si  Si61  1  0.243732  0.110374  0.396260  1
  Si  Si62  1  0.744816  0.104159  0.397739  1
  Si  Si63  1  0.601571  0.699697  0.361326  1
  Si  Si64  1  0.101291  0.699413  0.361388  1
  Si  Si65  1  0.601292  0.098161  0.347560  1
  Si  Si66  1  0.101580  0.097311  0.347754  1
  Si  Si67  1  0.398596  0.300296  0.301760  1
  Si  Si68  1  0.898877  0.300578  0.301697  1
  Si  Si69  1  0.398876  0.901832  0.315525  1
  Si  Si70  1  0.898587  0.902681  0.315331  1
  Si  Si71  1  0.601624  0.798527  0.420423  1
  Si  Si72  1  0.101461  0.798087  0.420514  1
  Si  Si73  1  0.601454  0.000000  0.288513  1
  Si  Si74  1  0.101621  0.998392  0.288674  1
  Si  Si75  1  0.398544  0.201466  0.242661  1
  Si  Si76  1  0.898706  0.201904  0.242572  1
  Si  Si77  1  0.398714  0.000000  0.374572  1
  Si  Si78  1  0.898547  0.001599  0.374412  1
  H  H79  1  0.332881  0.313226  0.168623  1
  H  H80  1  0.832749  0.314258  0.168457  1
  H  H81  1  0.247969  0.009549  0.194439  1
  H  H82  1  0.667290  0.686766  0.221865  1
  H  H83  1  0.167422  0.685732  0.222031  1
  H  H84  1  0.332881  0.313226  0.441219  1
  H  H85  1  0.832749  0.314258  0.441054  1
  H  H86  1  0.752188  0.990500  0.196043  1
  H  H87  1  0.247969  0.009549  0.467035  1
  H  H88  1  0.667290  0.686766  0.494462  1
  H  H89  1  0.167422  0.685732  0.494628  1
  H  H90  1  0.752188  0.990500  0.468639  1
