# generated using pymatgen
data_Si8H2O17
_symmetry_space_group_name_H-M   'P 1'
_cell_length_a   20.61705954
_cell_length_b   9.77350595
_cell_length_c   31.53564017
_cell_angle_alpha   90.00000000
_cell_angle_beta   90.00000000
_cell_angle_gamma   90.00000000
_symmetry_Int_Tables_number   1
_chemical_formula_structural   Si8H2O17
_chemical_formula_sum   'Si32 H8 O68'
_cell_volume   6354.46158229
_cell_formula_units_Z   4
loop_
 _symmetry_equiv_pos_site_id
 _symmetry_equiv_pos_as_xyz
  1  'x, y, z'
loop_
 _atom_site_type_symbol
 _atom_site_label
 _atom_site_symmetry_multiplicity
 _atom_site_fract_x
 _atom_site_fract_y
 _atom_site_fract_z
 _atom_site_occupancy
  O  O1  1  0.271602  0.158494  0.435332  1
  O  O2  1  0.771602  0.658528  0.435310  1
  O  O3  1  0.728473  0.158547  0.435304  1
  O  O4  1  0.228471  0.658499  0.435340  1
  O  O5  1  0.728466  0.841123  0.247559  1
  O  O6  1  0.228470  0.341077  0.247594  1
  O  O7  1  0.271604  0.841076  0.247595  1
  O  O8  1  0.771602  0.341104  0.247570  1
  O  O9  1  0.336340  0.949605  0.187117  1
  O  O10  1  0.836322  0.449653  0.187095  1
  O  O11  1  0.663711  0.949641  0.187090  1
  O  O12  1  0.163719  0.449618  0.187123  1
  O  O13  1  0.336329  0.050036  0.495809  1
  O  O14  1  0.836343  0.550052  0.495784  1
  O  O15  1  0.663717  0.050070  0.495777  1
  O  O16  1  0.163713  0.550014  0.495807  1
  O  O17  1  0.289872  0.899137  0.436530  1
  O  O18  1  0.789870  0.399166  0.436500  1
  O  O19  1  0.710217  0.899175  0.436502  1
  O  O20  1  0.210208  0.399138  0.436531  1
  O  O21  1  0.710202  0.100477  0.246372  1
  O  O22  1  0.210210  0.600455  0.246407  1
  O  O23  1  0.289861  0.100450  0.246402  1
  O  O24  1  0.789861  0.600484  0.246379  1
  O  O25  1  0.382502  0.060100  0.418142  1
  O  O26  1  0.882494  0.560132  0.418117  1
  O  O27  1  0.617588  0.060119  0.418108  1
  O  O28  1  0.117579  0.560088  0.418138  1
  O  O29  1  0.617571  0.939515  0.264758  1
  O  O30  1  0.117583  0.439490  0.264787  1
  O  O31  1  0.382490  0.939494  0.264785  1
  O  O32  1  0.882495  0.439525  0.264760  1
  O  O33  1  0.087238  0.499797  0.341459  1
  O  O34  1  0.587239  -0.000000  0.341434  1
  O  O35  1  0.912834  0.499811  0.341442  1
  O  O36  1  0.412834  -0.000000  0.341461  1
  O  O37  1  -0.000000  0.604571  0.388406  1
  O  O38  1  0.500042  0.104584  0.388402  1
  O  O39  1  0.000000  0.395039  0.294493  1
  O  O40  1  0.500032  0.895034  0.294495  1
  O  O41  1  0.100187  0.743946  0.362108  1
  O  O42  1  0.600184  0.243985  0.362081  1
  O  O43  1  0.899900  0.743966  0.362079  1
  O  O44  1  0.399888  0.243947  0.362107  1
  O  O45  1  0.899890  0.255666  0.320791  1
  O  O46  1  0.399894  0.755645  0.320821  1
  O  O47  1  0.100175  0.255640  0.320820  1
  O  O48  1  0.600185  0.755677  0.320797  1
  O  O49  1  0.316405  0.712381  0.380251  1
  O  O50  1  0.816404  0.212406  0.380217  1
  O  O51  1  0.683676  0.712419  0.380220  1
  O  O52  1  0.183667  0.212394  0.380248  1
  O  O53  1  0.683673  0.287228  0.302654  1
  O  O54  1  0.183676  0.787221  0.302685  1
  O  O55  1  0.316398  0.287208  0.302682  1
  O  O56  1  0.816405  0.787251  0.302652  1
  O  O57  1  0.211352  0.836397  0.378541  1
  O  O58  1  0.711355  0.336415  0.378510  1
  O  O59  1  0.788734  0.836417  0.378509  1
  O  O60  1  0.288722  0.336399  0.378536  1
  O  O61  1  0.788724  0.163219  0.304359  1
  O  O62  1  0.288726  0.663220  0.304392  1
  O  O63  1  0.211344  0.163215  0.304389  1
  O  O64  1  0.711352  0.663250  0.304367  1
  O  O65  1  0.135397  -0.000000  0.341470  1
  O  O66  1  0.635405  0.499829  0.341434  1
  O  O67  1  0.864684  0.000000  0.341438  1
  O  O68  1  0.364676  0.499796  0.341465  1
  Si  Si69  1  0.321006  0.041940  0.446988  1
  Si  Si70  1  0.821003  0.541966  0.446965  1
  Si  Si71  1  0.679075  0.041970  0.446961  1
  Si  Si72  1  0.179067  0.541935  0.446990  1
  Si  Si73  1  0.679062  0.957685  0.235908  1
  Si  Si74  1  0.179073  0.457663  0.235940  1
  Si  Si75  1  0.321000  0.957659  0.235937  1
  Si  Si76  1  0.820998  0.457690  0.235916  1
  Si  Si77  1  0.074830  0.601839  0.378942  1
  Si  Si78  1  0.574830  0.101875  0.378918  1
  Si  Si79  1  0.925248  0.601861  0.378923  1
  Si  Si80  1  0.425247  0.101843  0.378942  1
  Si  Si81  1  0.925244  0.397776  0.303957  1
  Si  Si82  1  0.425244  0.897750  0.303979  1
  Si  Si83  1  0.074825  0.397746  0.303978  1
  Si  Si84  1  0.574826  0.897775  0.303957  1
  Si  Si85  1  0.262789  0.776030  0.409871  1
  Si  Si86  1  0.762790  0.276064  0.409838  1
  Si  Si87  1  0.737294  0.776068  0.409840  1
  Si  Si88  1  0.237286  0.276035  0.409867  1
  Si  Si89  1  0.737287  0.223576  0.273033  1
  Si  Si90  1  0.237290  0.723564  0.273065  1
  Si  Si91  1  0.262782  0.223557  0.273063  1
  Si  Si92  1  0.762786  0.723606  0.273034  1
  Si  Si93  1  0.154490  0.843750  0.345543  1
  Si  Si94  1  0.654489  0.343776  0.345510  1
  Si  Si95  1  0.845596  0.843766  0.345511  1
  Si  Si96  1  0.345585  0.343746  0.345539  1
  Si  Si97  1  0.845589  0.155865  0.337360  1
  Si  Si98  1  0.345590  0.655850  0.337393  1
  Si  Si99  1  0.154481  0.155851  0.337392  1
  Si  Si100  1  0.654490  0.655882  0.337364  1
  H  H101  1  0.336340  0.949605  0.158578  1
  H  H102  1  0.836322  0.449653  0.158556  1
  H  H103  1  0.663711  0.949641  0.158551  1
  H  H104  1  0.163719  0.449618  0.158584  1
  H  H105  1  0.336329  0.050036  0.524348  1
  H  H106  1  0.836343  0.550052  0.524323  1
  H  H107  1  0.663717  0.050070  0.524316  1
  H  H108  1  0.163713  0.550014  0.524346  1
