# generated using pymatgen
data_Si20H2O41
_symmetry_space_group_name_H-M   'P 1'
_cell_length_a   11.39954126
_cell_length_b   25.27156065
_cell_length_c   52.59508931
_cell_angle_alpha   90.00000000
_cell_angle_beta   90.00000000
_cell_angle_gamma   90.00000000
_symmetry_Int_Tables_number   1
_chemical_formula_structural   Si20H2O41
_chemical_formula_sum   'Si160 H16 O328'
_cell_volume   15151.8141395
_cell_formula_units_Z   8
loop_
 _symmetry_equiv_pos_site_id
 _symmetry_equiv_pos_as_xyz
  1  'x, y, z'
loop_
 _atom_site_type_symbol
 _atom_site_label
 _atom_site_symmetry_multiplicity
 _atom_site_fract_x
 _atom_site_fract_y
 _atom_site_fract_z
 _atom_site_occupancy
  O  O1  1  0.692572  0.800467  0.360572  1
  O  O2  1  0.307339  0.699481  0.360574  1
  O  O3  1  0.692561  0.699471  0.360572  1
  O  O4  1  0.307337  0.800478  0.360572  1
  O  O5  1  0.887944  0.836003  0.373359  1
  O  O6  1  0.111947  0.835998  0.373358  1
  O  O7  1  0.717458  0.899576  0.360566  1
  O  O8  1  0.282406  0.899584  0.360569  1
  O  O9  1  0.826249  0.838588  0.326972  1
  O  O10  1  0.173652  0.838591  0.326972  1
  O  O11  1  0.792129  0.898827  0.240661  1
  O  O12  1  0.207780  0.898829  0.240661  1
  O  O13  1  0.811307  0.800792  0.233174  1
  O  O14  1  0.188594  0.699167  0.233180  1
  O  O15  1  0.811302  0.699166  0.233174  1
  O  O16  1  0.188596  0.800793  0.233174  1
  O  O17  1  0.615368  0.834374  0.246783  1
  O  O18  1  0.384539  0.834376  0.246782  1
  O  O19  1  0.793426  0.832032  0.278159  1
  O  O20  1  0.206476  0.667907  0.278161  1
  O  O21  1  0.793440  0.667910  0.278156  1
  O  O22  1  0.206482  0.832033  0.278159  1
  O  O23  1  0.845512  0.749971  0.304027  1
  O  O24  1  0.154398  0.749973  0.304028  1
  O  O25  1  0.000000  0.819080  0.297570  1
  O  O26  1  -0.000000  0.680863  0.297573  1
  O  O27  1  0.499933  0.928336  0.370988  1
  O  O28  1  0.657929  -0.000000  0.370626  1
  O  O29  1  0.845567  0.929778  0.195230  1
  O  O30  1  0.000000  0.930209  0.228962  1
  O  O31  1  0.499953  0.749977  0.367686  1
  O  O32  1  0.656942  0.749969  0.401568  1
  O  O33  1  0.342964  0.749983  0.401569  1
  O  O34  1  -0.000000  0.749978  0.225784  1
  O  O35  1  0.499960  0.819674  0.205463  1
  O  O36  1  0.499944  0.680266  0.205464  1
  O  O37  1  -0.000000  0.749975  0.380695  1
  O  O38  1  0.499947  0.749973  0.239308  1
  O  O39  1  0.154343  0.929781  0.195231  1
  O  O40  1  0.341948  0.000000  0.370630  1
  O  O41  1  0.611942  0.336006  0.226745  1
  O  O42  1  0.111958  0.663952  0.373360  1
  O  O43  1  0.887953  0.663947  0.373355  1
  O  O44  1  0.387939  0.336003  0.226744  1
  O  O45  1  0.782420  0.399585  0.239534  1
  O  O46  1  0.282436  0.600373  0.360570  1
  O  O47  1  0.717482  0.600364  0.360568  1
  O  O48  1  0.217473  0.399587  0.239535  1
  O  O49  1  0.673665  0.338592  0.273130  1
  O  O50  1  0.173663  0.661359  0.326974  1
  O  O51  1  0.826235  0.661354  0.326970  1
  O  O52  1  0.326244  0.338594  0.273130  1
  O  O53  1  0.707769  0.398819  0.359446  1
  O  O54  1  0.207767  0.601129  0.240654  1
  O  O55  1  0.792120  0.601129  0.240651  1
  O  O56  1  0.292116  0.398827  0.359446  1
  O  O57  1  0.884534  0.334373  0.353321  1
  O  O58  1  0.384532  0.665573  0.246784  1
  O  O59  1  0.615367  0.665576  0.246783  1
  O  O60  1  0.115365  0.334372  0.353319  1
  O  O61  1  0.000000  0.428342  0.229114  1
  O  O62  1  0.499960  0.571610  0.370990  1
  O  O63  1  0.154332  0.570172  0.195222  1
  O  O64  1  0.841954  0.499500  0.229472  1
  O  O65  1  0.341962  0.500455  0.370627  1
  O  O66  1  0.657943  0.500449  0.370626  1
  O  O67  1  0.157934  0.499502  0.229474  1
  O  O68  1  0.499946  0.430202  0.371145  1
  O  O69  1  0.000000  0.569751  0.228952  1
  O  O70  1  0.845557  0.570169  0.195220  1
  O  O71  1  0.654336  0.429773  0.404876  1
  O  O72  1  0.345561  0.429778  0.404877  1
  O  O73  1  0.807330  0.300478  0.239526  1
  O  O74  1  0.192563  0.199484  0.239533  1
  O  O75  1  0.807331  0.199481  0.239534  1
  O  O76  1  0.192554  0.300481  0.239531  1
  O  O77  1  0.387944  0.163955  0.226746  1
  O  O78  1  0.611949  0.163951  0.226748  1
  O  O79  1  0.217472  0.100376  0.239536  1
  O  O80  1  0.782428  0.100373  0.239536  1
  O  O81  1  0.326244  0.161363  0.273132  1
  O  O82  1  0.673659  0.161358  0.273133  1
  O  O83  1  0.292124  0.101127  0.359449  1
  O  O84  1  0.707767  0.101121  0.359446  1
  O  O85  1  0.688597  0.300783  0.366928  1
  O  O86  1  0.311297  0.199165  0.366929  1
  O  O87  1  0.688591  0.199157  0.366930  1
  O  O88  1  0.311309  0.300791  0.366926  1
  O  O89  1  0.115364  0.165574  0.353319  1
  O  O90  1  0.884531  0.165569  0.353322  1
  O  O91  1  0.706475  0.332033  0.321944  1
  O  O92  1  0.293431  0.167914  0.321945  1
  O  O93  1  0.706472  0.167915  0.321946  1
  O  O94  1  0.293429  0.332042  0.321943  1
  O  O95  1  0.654393  0.249976  0.296075  1
  O  O96  1  0.345506  0.249978  0.296076  1
  O  O97  1  0.499953  0.319086  0.302530  1
  O  O98  1  0.499950  0.180870  0.302533  1
  O  O99  1  -0.000000  0.071616  0.229115  1
  O  O100  1  0.841962  0.000000  0.229479  1
  O  O101  1  0.345564  0.070170  0.404881  1
  O  O102  1  0.499945  0.069744  0.371148  1
  O  O103  1  -0.000000  0.249978  0.232417  1
  O  O104  1  0.842959  0.249966  0.198533  1
  O  O105  1  0.156938  0.249977  0.198535  1
  O  O106  1  0.499948  0.249973  0.374319  1
  O  O107  1  -0.000000  0.319674  0.394639  1
  O  O108  1  0.000000  0.180267  0.394640  1
  O  O109  1  0.499951  0.249978  0.219409  1
  O  O110  1  -0.000000  0.249972  0.360795  1
  O  O111  1  0.157945  0.000000  0.229479  1
  O  O112  1  0.654340  0.070163  0.404877  1
  O  O113  1  0.192566  0.800470  0.150811  1
  O  O114  1  0.807337  0.699471  0.150807  1
  O  O115  1  0.192577  0.699472  0.150807  1
  O  O116  1  0.807348  0.800467  0.150805  1
  O  O117  1  0.387957  0.835995  0.163594  1
  O  O118  1  0.611962  0.835990  0.163593  1
  O  O119  1  0.217480  0.899577  0.150809  1
  O  O120  1  0.782433  0.899575  0.150807  1
  O  O121  1  0.326233  0.838590  0.117210  1
  O  O122  1  0.673667  0.838591  0.117207  1
  O  O123  1  0.000000  0.928333  0.161229  1
  O  O124  1  0.157943  0.000000  0.160865  1
  O  O125  1  0.841963  0.000000  0.160865  1
  O  O126  1  -0.000000  0.749965  0.157921  1
  O  O127  1  0.156943  0.749966  0.191805  1
  O  O128  1  0.842966  0.749975  0.191802  1
  O  O129  1  0.499950  0.749967  0.170930  1
  O  O130  1  0.611957  0.663943  0.163595  1
  O  O131  1  0.387954  0.663939  0.163592  1
  O  O132  1  0.782421  0.600363  0.150798  1
  O  O133  1  0.217473  0.600364  0.150799  1
  O  O134  1  0.673642  0.661360  0.117207  1
  O  O135  1  0.326247  0.661355  0.117205  1
  O  O136  1  0.207781  0.398820  0.149682  1
  O  O137  1  0.792129  0.398815  0.149681  1
  O  O138  1  0.384536  0.334368  0.143554  1
  O  O139  1  0.615368  0.334368  0.143556  1
  O  O140  1  -0.000000  0.571606  0.161219  1
  O  O141  1  0.841957  0.500446  0.160858  1
  O  O142  1  0.157940  0.500449  0.160860  1
  O  O143  1  0.000000  0.430199  0.161381  1
  O  O144  1  0.845562  0.429778  0.195111  1
  O  O145  1  0.154335  0.429780  0.195112  1
  O  O146  1  0.792126  0.101116  0.149681  1
  O  O147  1  0.207773  0.101121  0.149682  1
  O  O148  1  0.188595  0.300784  0.157162  1
  O  O149  1  0.811314  0.199152  0.157161  1
  O  O150  1  0.188607  0.199158  0.157166  1
  O  O151  1  0.811308  0.300778  0.157162  1
  O  O152  1  0.615370  0.165569  0.143556  1
  O  O153  1  0.384541  0.165567  0.143558  1
  O  O154  1  0.206471  0.332035  0.112180  1
  O  O155  1  0.793429  0.167903  0.112178  1
  O  O156  1  0.206484  0.167914  0.112181  1
  O  O157  1  0.793424  0.332028  0.112179  1
  O  O158  1  -0.000000  0.069741  0.161383  1
  O  O159  1  0.000000  0.249967  0.164554  1
  O  O160  1  0.499948  0.319677  0.184875  1
  O  O161  1  0.499962  0.180269  0.184877  1
  O  O162  1  0.499952  0.249969  0.151031  1
  O  O163  1  0.154340  0.070172  0.195113  1
  O  O164  1  0.845560  0.070169  0.195113  1
  O  O165  1  0.792129  0.898827  0.660190  1
  O  O166  1  0.207780  0.898829  0.660190  1
  O  O167  1  0.811307  0.800792  0.652703  1
  O  O168  1  0.188594  0.699167  0.652709  1
  O  O169  1  0.811302  0.699166  0.652704  1
  O  O170  1  0.188596  0.800793  0.652703  1
  O  O171  1  0.615368  0.834374  0.666313  1
  O  O172  1  0.384539  0.834376  0.666311  1
  O  O173  1  0.793426  0.832032  0.697689  1
  O  O174  1  0.206476  0.667907  0.697690  1
  O  O175  1  0.793440  0.667910  0.697686  1
  O  O176  1  0.206482  0.832033  0.697688  1
  O  O177  1  0.845567  0.929778  0.614760  1
  O  O178  1  -0.000000  0.930209  0.648491  1
  O  O179  1  0.000000  0.749978  0.645314  1
  O  O180  1  0.499960  0.819674  0.624992  1
  O  O181  1  0.499944  0.680266  0.624993  1
  O  O182  1  0.499947  0.749973  0.658838  1
  O  O183  1  0.154343  0.929781  0.614760  1
  O  O184  1  0.611942  0.336006  0.646275  1
  O  O185  1  0.387939  0.336003  0.646273  1
  O  O186  1  0.782420  0.399585  0.659063  1
  O  O187  1  0.217473  0.399587  0.659065  1
  O  O188  1  0.673665  0.338592  0.692660  1
  O  O189  1  0.326244  0.338594  0.692660  1
  O  O190  1  0.207767  0.601129  0.660183  1
  O  O191  1  0.792120  0.601129  0.660181  1
  O  O192  1  0.384532  0.665573  0.666313  1
  O  O193  1  0.615367  0.665576  0.666313  1
  O  O194  1  0.000000  0.428342  0.648644  1
  O  O195  1  0.154332  0.570172  0.614752  1
  O  O196  1  0.841954  0.499500  0.649002  1
  O  O197  1  0.157934  0.499502  0.649003  1
  O  O198  1  0.000000  0.569751  0.648481  1
  O  O199  1  0.845557  0.570169  0.614750  1
  O  O200  1  0.807330  0.300478  0.659056  1
  O  O201  1  0.192563  0.199484  0.659063  1
  O  O202  1  0.807331  0.199481  0.659063  1
  O  O203  1  0.192554  0.300481  0.659061  1
  O  O204  1  0.387944  0.163955  0.646275  1
  O  O205  1  0.611949  0.163951  0.646277  1
  O  O206  1  0.217472  0.100376  0.659065  1
  O  O207  1  0.782428  0.100373  0.659065  1
  O  O208  1  0.326244  0.161363  0.692662  1
  O  O209  1  0.673659  0.161358  0.692663  1
  O  O210  1  0.000000  0.071616  0.648644  1
  O  O211  1  0.841962  -0.000000  0.649008  1
  O  O212  1  0.000000  0.249978  0.651946  1
  O  O213  1  0.842959  0.249966  0.618063  1
  O  O214  1  0.156938  0.249977  0.618065  1
  O  O215  1  0.499951  0.249978  0.638939  1
  O  O216  1  0.157945  -0.000000  0.649009  1
  O  O217  1  0.192566  0.800470  0.570341  1
  O  O218  1  0.807337  0.699471  0.570336  1
  O  O219  1  0.192577  0.699472  0.570336  1
  O  O220  1  0.807348  0.800467  0.570335  1
  O  O221  1  0.387957  0.835995  0.583124  1
  O  O222  1  0.611962  0.835990  0.583122  1
  O  O223  1  0.217480  0.899577  0.570338  1
  O  O224  1  0.782433  0.899575  0.570337  1
  O  O225  1  0.326233  0.838590  0.536739  1
  O  O226  1  0.673667  0.838591  0.536737  1
  O  O227  1  0.292123  0.898821  0.450423  1
  O  O228  1  0.707777  0.898815  0.450418  1
  O  O229  1  0.311312  0.800785  0.442944  1
  O  O230  1  0.688595  0.699152  0.442939  1
  O  O231  1  0.311299  0.699159  0.442937  1
  O  O232  1  0.688597  0.800778  0.442941  1
  O  O233  1  0.115366  0.834371  0.456548  1
  O  O234  1  0.884533  0.834366  0.456549  1
  O  O235  1  0.293422  0.832037  0.487926  1
  O  O236  1  0.706473  0.667910  0.487924  1
  O  O237  1  0.293418  0.667917  0.487922  1
  O  O238  1  0.706462  0.832036  0.487923  1
  O  O239  1  0.345504  0.749975  0.513794  1
  O  O240  1  0.654389  0.749975  0.513792  1
  O  O241  1  0.499945  0.819085  0.507339  1
  O  O242  1  0.499945  0.680868  0.507333  1
  O  O243  1  0.000000  0.928333  0.580758  1
  O  O244  1  0.157943  -0.000000  0.580395  1
  O  O245  1  0.841963  -0.000000  0.580395  1
  O  O246  1  0.499949  0.930197  0.438722  1
  O  O247  1  -0.000000  0.749965  0.577451  1
  O  O248  1  0.156943  0.749966  0.611334  1
  O  O249  1  0.842966  0.749975  0.611332  1
  O  O250  1  0.499952  0.749967  0.435549  1
  O  O251  1  0.000000  0.819676  0.415229  1
  O  O252  1  0.000000  0.680268  0.415227  1
  O  O253  1  0.499950  0.749967  0.590459  1
  O  O254  1  0.000000  0.749969  0.449073  1
  O  O255  1  0.654328  0.929772  0.404989  1
  O  O256  1  0.345553  0.929778  0.404992  1
  O  O257  1  0.111950  0.335998  0.436510  1
  O  O258  1  0.611957  0.663943  0.583124  1
  O  O259  1  0.387954  0.663939  0.583122  1
  O  O260  1  0.887945  0.335990  0.436509  1
  O  O261  1  0.282426  0.399579  0.449300  1
  O  O262  1  0.782421  0.600363  0.570328  1
  O  O263  1  0.217473  0.600364  0.570329  1
  O  O264  1  0.717475  0.399572  0.449298  1
  O  O265  1  0.173654  0.338590  0.482896  1
  O  O266  1  0.673642  0.661360  0.536737  1
  O  O267  1  0.326247  0.661355  0.536735  1
  O  O268  1  0.826244  0.338583  0.482895  1
  O  O269  1  0.207781  0.398820  0.569212  1
  O  O270  1  0.707787  0.601117  0.450423  1
  O  O271  1  0.292143  0.601122  0.450423  1
  O  O272  1  0.792129  0.398815  0.569210  1
  O  O273  1  0.384536  0.334368  0.563084  1
  O  O274  1  0.884536  0.665571  0.456549  1
  O  O275  1  0.115366  0.665565  0.456544  1
  O  O276  1  0.615368  0.334368  0.563085  1
  O  O277  1  0.499953  0.428332  0.438878  1
  O  O278  1  0.000000  0.571606  0.580748  1
  O  O279  1  0.341968  0.499493  0.439241  1
  O  O280  1  0.841957  0.500446  0.580388  1
  O  O281  1  0.157940  0.500449  0.580390  1
  O  O282  1  0.657950  0.499488  0.439240  1
  O  O283  1  0.000000  0.430199  0.580910  1
  O  O284  1  0.499966  0.569739  0.438722  1
  O  O285  1  0.654353  0.570164  0.404991  1
  O  O286  1  0.345575  0.570169  0.404992  1
  O  O287  1  0.845562  0.429778  0.614640  1
  O  O288  1  0.154335  0.429780  0.614642  1
  O  O289  1  0.307333  0.300471  0.449297  1
  O  O290  1  0.692559  0.199467  0.449297  1
  O  O291  1  0.307329  0.199475  0.449295  1
  O  O292  1  0.692562  0.300464  0.449297  1
  O  O293  1  0.887945  0.163947  0.436508  1
  O  O294  1  0.111950  0.163940  0.436512  1
  O  O295  1  0.717488  0.100360  0.449299  1
  O  O296  1  0.282437  0.100366  0.449303  1
  O  O297  1  0.826257  0.161352  0.482894  1
  O  O298  1  0.173668  0.161356  0.482898  1
  O  O299  1  0.792126  0.101116  0.569210  1
  O  O300  1  0.207773  0.101121  0.569211  1
  O  O301  1  0.188595  0.300784  0.576692  1
  O  O302  1  0.811314  0.199152  0.576691  1
  O  O303  1  0.188607  0.199158  0.576695  1
  O  O304  1  0.811308  0.300778  0.576691  1
  O  O305  1  0.615370  0.165569  0.563085  1
  O  O306  1  0.384541  0.165567  0.563088  1
  O  O307  1  0.206471  0.332035  0.531709  1
  O  O308  1  0.793429  0.167903  0.531707  1
  O  O309  1  0.206484  0.167914  0.531711  1
  O  O310  1  0.793424  0.332028  0.531709  1
  O  O311  1  0.154396  0.249973  0.505841  1
  O  O312  1  0.845511  0.249966  0.505840  1
  O  O313  1  0.000000  0.319078  0.512297  1
  O  O314  1  -0.000000  0.180861  0.512297  1
  O  O315  1  0.499960  0.071606  0.438881  1
  O  O316  1  0.657945  0.000000  0.439240  1
  O  O317  1  0.341964  0.000000  0.439243  1
  O  O318  1  -0.000000  0.069741  0.580912  1
  O  O319  1  0.499944  0.249969  0.442183  1
  O  O320  1  0.342957  0.249979  0.408299  1
  O  O321  1  0.656934  0.249970  0.408301  1
  O  O322  1  0.000000  0.249967  0.584083  1
  O  O323  1  0.499948  0.319677  0.604404  1
  O  O324  1  0.499962  0.180269  0.604406  1
  O  O325  1  0.000000  0.249969  0.429173  1
  O  O326  1  0.499952  0.249969  0.570560  1
  O  O327  1  0.154340  0.070172  0.614643  1
  O  O328  1  0.845560  0.070169  0.614642  1
  Si  Si329  1  0.499947  0.688803  0.234938  1
  Si  Si330  1  0.499953  0.811144  0.234937  1
  Si  Si331  1  0.782160  0.845800  0.354941  1
  Si  Si332  1  0.217729  0.845804  0.354942  1
  Si  Si333  1  0.750753  0.843023  0.250385  1
  Si  Si334  1  0.249153  0.843024  0.250384  1
  Si  Si335  1  0.864505  0.811169  0.301560  1
  Si  Si336  1  0.135403  0.688775  0.301562  1
  Si  Si337  1  0.864506  0.688774  0.301558  1
  Si  Si338  1  0.135402  0.811170  0.301560  1
  Si  Si339  1  0.635223  0.938661  0.375626  1
  Si  Si340  1  0.364648  0.938667  0.375629  1
  Si  Si341  1  0.864798  0.939639  0.224509  1
  Si  Si342  1  0.135111  0.939641  0.224509  1
  Si  Si343  1  0.635315  0.749971  0.372181  1
  Si  Si344  1  0.364592  0.749980  0.372182  1
  Si  Si345  1  0.864646  0.749978  0.221153  1
  Si  Si346  1  0.135258  0.749977  0.221155  1
  Si  Si347  1  -0.000000  0.811241  0.385779  1
  Si  Si348  1  0.000000  0.688708  0.385777  1
  Si  Si349  1  0.364790  0.439637  0.375598  1
  Si  Si350  1  0.864787  0.560317  0.224500  1
  Si  Si351  1  0.135100  0.560319  0.224501  1
  Si  Si352  1  0.635103  0.439631  0.375597  1
  Si  Si353  1  0.717735  0.345806  0.245160  1
  Si  Si354  1  0.217745  0.654150  0.354944  1
  Si  Si355  1  0.782162  0.654143  0.354940  1
  Si  Si356  1  0.282158  0.345808  0.245161  1
  Si  Si357  1  0.749147  0.343018  0.349719  1
  Si  Si358  1  0.249145  0.656927  0.250385  1
  Si  Si359  1  0.750755  0.656929  0.250382  1
  Si  Si360  1  0.250750  0.343024  0.349718  1
  Si  Si361  1  0.864659  0.438669  0.224473  1
  Si  Si362  1  0.364672  0.561285  0.375629  1
  Si  Si363  1  0.635246  0.561280  0.375628  1
  Si  Si364  1  0.135233  0.438670  0.224475  1
  Si  Si365  1  -0.000000  0.188801  0.365166  1
  Si  Si366  1  -0.000000  0.311142  0.365166  1
  Si  Si367  1  0.282159  0.154154  0.245162  1
  Si  Si368  1  0.717738  0.154150  0.245163  1
  Si  Si369  1  0.250753  0.156928  0.349720  1
  Si  Si370  1  0.749144  0.156924  0.349720  1
  Si  Si371  1  0.635401  0.311173  0.298542  1
  Si  Si372  1  0.364502  0.188781  0.298545  1
  Si  Si373  1  0.635398  0.188779  0.298545  1
  Si  Si374  1  0.364503  0.311176  0.298542  1
  Si  Si375  1  0.135239  0.061289  0.224476  1
  Si  Si376  1  0.864664  0.061287  0.224476  1
  Si  Si377  1  0.364788  0.060315  0.375601  1
  Si  Si378  1  0.635102  0.060309  0.375598  1
  Si  Si379  1  0.864583  0.249976  0.227921  1
  Si  Si380  1  0.135306  0.249980  0.227922  1
  Si  Si381  1  0.635253  0.249971  0.378950  1
  Si  Si382  1  0.364641  0.249978  0.378949  1
  Si  Si383  1  0.499944  0.311244  0.214325  1
  Si  Si384  1  0.499952  0.188711  0.214327  1
  Si  Si385  1  0.282163  0.845799  0.145180  1
  Si  Si386  1  0.717748  0.845797  0.145178  1
  Si  Si387  1  0.135242  0.938663  0.165868  1
  Si  Si388  1  0.864668  0.938660  0.165867  1
  Si  Si389  1  0.135318  0.749968  0.162418  1
  Si  Si390  1  0.864596  0.749969  0.162416  1
  Si  Si391  1  0.499958  0.811234  0.176013  1
  Si  Si392  1  0.499950  0.688700  0.176014  1
  Si  Si393  1  0.864794  0.439630  0.165832  1
  Si  Si394  1  0.717734  0.654144  0.145176  1
  Si  Si395  1  0.282168  0.654142  0.145175  1
  Si  Si396  1  0.249149  0.343018  0.139954  1
  Si  Si397  1  0.750755  0.343014  0.139954  1
  Si  Si398  1  0.864659  0.561278  0.165858  1
  Si  Si399  1  0.135233  0.561281  0.165860  1
  Si  Si400  1  0.135108  0.439632  0.165833  1
  Si  Si401  1  0.499958  0.188799  0.155403  1
  Si  Si402  1  0.499951  0.311140  0.155401  1
  Si  Si403  1  0.750755  0.156919  0.139953  1
  Si  Si404  1  0.249154  0.156923  0.139956  1
  Si  Si405  1  0.864794  0.060308  0.165835  1
  Si  Si406  1  0.135107  0.060311  0.165835  1
  Si  Si407  1  0.135260  0.249971  0.169186  1
  Si  Si408  1  0.864648  0.249965  0.169183  1
  Si  Si409  1  0.499947  0.688803  0.654467  1
  Si  Si410  1  0.499953  0.811144  0.654466  1
  Si  Si411  1  0.750753  0.843023  0.669914  1
  Si  Si412  1  0.249153  0.843024  0.669914  1
  Si  Si413  1  0.864798  0.939639  0.644038  1
  Si  Si414  1  0.135111  0.939641  0.644039  1
  Si  Si415  1  0.864646  0.749978  0.640682  1
  Si  Si416  1  0.135258  0.749977  0.640684  1
  Si  Si417  1  0.864787  0.560317  0.644029  1
  Si  Si418  1  0.135100  0.560319  0.644030  1
  Si  Si419  1  0.717735  0.345806  0.664689  1
  Si  Si420  1  0.282158  0.345808  0.664691  1
  Si  Si421  1  0.249145  0.656927  0.669915  1
  Si  Si422  1  0.750755  0.656929  0.669911  1
  Si  Si423  1  0.864659  0.438669  0.644003  1
  Si  Si424  1  0.135233  0.438670  0.644004  1
  Si  Si425  1  0.282159  0.154154  0.664692  1
  Si  Si426  1  0.717738  0.154150  0.664693  1
  Si  Si427  1  0.135239  0.061289  0.644006  1
  Si  Si428  1  0.864664  0.061287  0.644006  1
  Si  Si429  1  0.864583  0.249976  0.647450  1
  Si  Si430  1  0.135306  0.249980  0.647452  1
  Si  Si431  1  0.499944  0.311244  0.633854  1
  Si  Si432  1  0.499952  0.188711  0.633856  1
  Si  Si433  1  0.000000  0.688799  0.444701  1
  Si  Si434  1  0.000000  0.811140  0.444703  1
  Si  Si435  1  0.282163  0.845799  0.564710  1
  Si  Si436  1  0.717748  0.845797  0.564707  1
  Si  Si437  1  0.250751  0.843019  0.460151  1
  Si  Si438  1  0.749146  0.843015  0.460148  1
  Si  Si439  1  0.364497  0.811172  0.511327  1
  Si  Si440  1  0.635393  0.688778  0.511324  1
  Si  Si441  1  0.364497  0.688778  0.511323  1
  Si  Si442  1  0.635394  0.811173  0.511325  1
  Si  Si443  1  0.135242  0.938663  0.585397  1
  Si  Si444  1  0.864668  0.938660  0.585397  1
  Si  Si445  1  0.364792  0.939632  0.434271  1
  Si  Si446  1  0.635105  0.939628  0.434268  1
  Si  Si447  1  0.135318  0.749968  0.581948  1
  Si  Si448  1  0.864596  0.749969  0.581945  1
  Si  Si449  1  0.364645  0.749974  0.430919  1
  Si  Si450  1  0.635257  0.749966  0.430918  1
  Si  Si451  1  0.499958  0.811234  0.595543  1
  Si  Si452  1  0.499950  0.688700  0.595544  1
  Si  Si453  1  0.864794  0.439630  0.585361  1
  Si  Si454  1  0.364808  0.560310  0.434271  1
  Si  Si455  1  0.635122  0.560306  0.434270  1
  Si  Si456  1  0.217736  0.345801  0.454926  1
  Si  Si457  1  0.717734  0.654144  0.564705  1
  Si  Si458  1  0.282168  0.654142  0.564705  1
  Si  Si459  1  0.782161  0.345793  0.454925  1
  Si  Si460  1  0.249149  0.343018  0.559484  1
  Si  Si461  1  0.749151  0.656921  0.460150  1
  Si  Si462  1  0.250754  0.656924  0.460147  1
  Si  Si463  1  0.750755  0.343014  0.559484  1
  Si  Si464  1  0.364666  0.438662  0.434239  1
  Si  Si465  1  0.864659  0.561278  0.585387  1
  Si  Si466  1  0.135233  0.561281  0.585389  1
  Si  Si467  1  0.635240  0.438658  0.434239  1
  Si  Si468  1  0.135108  0.439632  0.585363  1
  Si  Si469  1  0.499958  0.188799  0.574932  1
  Si  Si470  1  0.499951  0.311140  0.574931  1
  Si  Si471  1  0.782167  0.154141  0.454925  1
  Si  Si472  1  0.217741  0.154144  0.454927  1
  Si  Si473  1  0.750755  0.156919  0.559482  1
  Si  Si474  1  0.249154  0.156923  0.559486  1
  Si  Si475  1  0.135397  0.311170  0.508308  1
  Si  Si476  1  0.864510  0.188769  0.508307  1
  Si  Si477  1  0.135406  0.188775  0.508309  1
  Si  Si478  1  0.864501  0.311164  0.508308  1
  Si  Si479  1  0.635245  0.061276  0.434240  1
  Si  Si480  1  0.364671  0.061281  0.434243  1
  Si  Si481  1  0.864794  0.060308  0.585364  1
  Si  Si482  1  0.135107  0.060311  0.585364  1
  Si  Si483  1  0.364584  0.249973  0.437687  1
  Si  Si484  1  0.635306  0.249966  0.437687  1
  Si  Si485  1  0.135260  0.249971  0.588715  1
  Si  Si486  1  0.864648  0.249965  0.588713  1
  Si  Si487  1  0.000000  0.311236  0.424089  1
  Si  Si488  1  -0.000000  0.188702  0.424090  1
  H  H489  1  0.326233  0.838590  0.100098  1
  H  H490  1  0.673667  0.838591  0.100095  1
  H  H491  1  0.673642  0.661360  0.100095  1
  H  H492  1  0.326247  0.661355  0.100094  1
  H  H493  1  0.206471  0.332035  0.095068  1
  H  H494  1  0.793429  0.167903  0.095066  1
  H  H495  1  0.206484  0.167914  0.095069  1
  H  H496  1  0.793424  0.332028  0.095067  1
  H  H497  1  0.793426  0.832032  0.714801  1
  H  H498  1  0.206476  0.667907  0.714802  1
  H  H499  1  0.793440  0.667910  0.714798  1
  H  H500  1  0.206482  0.832033  0.714800  1
  H  H501  1  0.673665  0.338592  0.709772  1
  H  H502  1  0.326244  0.338594  0.709772  1
  H  H503  1  0.326244  0.161363  0.709773  1
  H  H504  1  0.673659  0.161358  0.709775  1
