# generated using pymatgen
data_Si10H2O21
_symmetry_space_group_name_H-M   'P 1'
_cell_length_a   12.87085738
_cell_length_b   12.87068762
_cell_length_c   39.63204745
_cell_angle_alpha   90.00000000
_cell_angle_beta   90.00000000
_cell_angle_gamma   90.00000000
_symmetry_Int_Tables_number   1
_chemical_formula_structural   Si10H2O21
_chemical_formula_sum   'Si40 H8 O84'
_cell_volume   6565.31755351
_cell_formula_units_Z   4
loop_
 _symmetry_equiv_pos_site_id
 _symmetry_equiv_pos_as_xyz
  1  'x, y, z'
loop_
 _atom_site_type_symbol
 _atom_site_label
 _atom_site_symmetry_multiplicity
 _atom_site_fract_x
 _atom_site_fract_y
 _atom_site_fract_z
 _atom_site_occupancy
  O  O1  1  0.323752  0.306467  0.148869  1
  O  O2  1  0.676361  0.306466  0.148881  1
  O  O3  1  0.641461  0.499880  0.168324  1
  O  O4  1  0.359367  0.359237  0.213550  1
  O  O5  1  0.640661  0.359235  0.213561  1
  O  O6  1  0.500043  0.366949  0.169362  1
  O  O7  1  0.499987  0.358469  0.258794  1
  O  O8  1  0.358635  0.499888  0.168314  1
  O  O9  1  0.632915  0.499888  0.257753  1
  O  O10  1  0.367059  0.499886  0.257745  1
  O  O11  1  0.866979  0.135367  0.373839  1
  O  O12  1  0.133066  0.135323  0.373834  1
  O  O13  1  -0.000000  0.139122  0.419536  1
  O  O14  1  0.000000  0.139135  0.328137  1
  O  O15  1  0.808013  0.201919  0.430492  1
  O  O16  1  0.192060  0.201875  0.430488  1
  O  O17  1  0.807986  0.201939  0.317189  1
  O  O18  1  0.192034  0.201887  0.317181  1
  O  O19  1  0.831745  0.399336  0.319015  1
  O  O20  1  0.168220  0.399276  0.319017  1
  O  O21  1  0.831758  0.399315  0.428663  1
  O  O22  1  0.168240  0.399266  0.428668  1
  O  O23  1  0.669435  0.329674  0.341599  1
  O  O24  1  0.330559  0.329650  0.341591  1
  O  O25  1  0.669443  0.329643  0.406080  1
  O  O26  1  0.330559  0.329650  0.406076  1
  O  O27  1  0.693407  0.323603  0.278241  1
  O  O28  1  0.306559  0.323598  0.278230  1
  O  O29  1  0.693441  0.323587  0.469438  1
  O  O30  1  0.306614  0.323565  0.469438  1
  O  O31  1  -0.000000  0.499889  0.420098  1
  O  O32  1  -0.000000  0.499905  0.327590  1
  O  O33  1  0.499993  0.357751  0.373838  1
  O  O34  1  0.367423  0.499895  0.373833  1
  O  O35  1  0.868138  0.499921  0.373843  1
  O  O36  1  0.632553  0.499904  0.373849  1
  O  O37  1  0.131856  0.499868  0.373845  1
  O  O38  1  0.358648  0.499832  0.579363  1
  O  O39  1  0.323791  0.306405  0.598800  1
  O  O40  1  0.676366  0.306434  0.598802  1
  O  O41  1  0.641485  0.499849  0.579360  1
  O  O42  1  0.640704  0.359214  0.534119  1
  O  O43  1  0.359401  0.359196  0.534120  1
  O  O44  1  0.367088  0.499859  0.489931  1
  O  O45  1  0.500071  0.366912  0.578310  1
  O  O46  1  0.500032  0.358455  0.488881  1
  O  O47  1  0.632952  0.499881  0.489930  1
  O  O48  1  0.676377  0.693285  0.148884  1
  O  O49  1  0.323771  0.693308  0.148876  1
  O  O50  1  0.640671  0.640535  0.213564  1
  O  O51  1  0.359370  0.640538  0.213556  1
  O  O52  1  0.500052  0.632819  0.169369  1
  O  O53  1  0.499989  0.641305  0.258798  1
  O  O54  1  0.133029  0.864409  0.373836  1
  O  O55  1  0.866934  0.864462  0.373841  1
  O  O56  1  -0.000000  0.860647  0.419537  1
  O  O57  1  -0.000000  0.860660  0.328139  1
  O  O58  1  0.140638  0.000000  0.327920  1
  O  O59  1  0.192011  0.797852  0.430494  1
  O  O60  1  0.807967  0.797901  0.430496  1
  O  O61  1  0.191982  0.797858  0.317180  1
  O  O62  1  0.807930  0.797913  0.317190  1
  O  O63  1  0.168242  0.600466  0.319019  1
  O  O64  1  0.831756  0.600528  0.319022  1
  O  O65  1  0.168243  0.600459  0.428671  1
  O  O66  1  0.831763  0.600511  0.428667  1
  O  O67  1  0.330541  0.670155  0.341602  1
  O  O68  1  0.669417  0.670143  0.341603  1
  O  O69  1  0.330549  0.670116  0.406088  1
  O  O70  1  0.669430  0.670152  0.406087  1
  O  O71  1  0.306570  0.676176  0.278239  1
  O  O72  1  0.693398  0.676191  0.278244  1
  O  O73  1  0.306583  0.676162  0.469449  1
  O  O74  1  0.693419  0.676193  0.469445  1
  O  O75  1  0.499982  0.642049  0.373846  1
  O  O76  1  0.859365  0.000000  0.419755  1
  O  O77  1  0.140667  0.000000  0.419748  1
  O  O78  1  0.859334  0.000000  0.327925  1
  O  O79  1  0.676369  0.693259  0.598805  1
  O  O80  1  0.323789  0.693259  0.598810  1
  O  O81  1  0.359387  0.640492  0.534128  1
  O  O82  1  0.640684  0.640516  0.534125  1
  O  O83  1  0.500061  0.632767  0.578318  1
  O  O84  1  0.500009  0.641285  0.488887  1
  Si  Si85  1  0.379841  0.380319  0.174795  1
  Si  Si86  1  0.620242  0.380313  0.174803  1
  Si  Si87  1  0.619554  0.379687  0.252315  1
  Si  Si88  1  0.380423  0.379685  0.252308  1
  Si  Si89  1  0.380775  0.378462  0.373834  1
  Si  Si90  1  0.619209  0.378470  0.373842  1
  Si  Si91  1  0.119119  0.499876  0.334467  1
  Si  Si92  1  0.119126  0.499867  0.413222  1
  Si  Si93  1  0.880869  0.499924  0.334465  1
  Si  Si94  1  0.751167  0.309710  0.312999  1
  Si  Si95  1  0.248823  0.309676  0.312992  1
  Si  Si96  1  0.751185  0.309685  0.434679  1
  Si  Si97  1  0.248848  0.309662  0.434681  1
  Si  Si98  1  0.880396  0.119450  0.412801  1
  Si  Si99  1  0.119667  0.119412  0.412796  1
  Si  Si100  1  0.880371  0.119464  0.334877  1
  Si  Si101  1  0.119643  0.119422  0.334872  1
  Si  Si102  1  0.880876  0.499914  0.413220  1
  Si  Si103  1  0.620272  0.380283  0.572877  1
  Si  Si104  1  0.619596  0.379677  0.495365  1
  Si  Si105  1  0.380464  0.379657  0.495363  1
  Si  Si106  1  0.379868  0.380268  0.572876  1
  Si  Si107  1  0.380425  0.620089  0.252314  1
  Si  Si108  1  0.379849  0.619452  0.174802  1
  Si  Si109  1  0.619557  0.620091  0.252319  1
  Si  Si110  1  0.620252  0.619448  0.174806  1
  Si  Si111  1  0.619200  0.621338  0.373847  1
  Si  Si112  1  0.380766  0.621329  0.373842  1
  Si  Si113  1  0.248815  0.690091  0.312997  1
  Si  Si114  1  0.751143  0.690123  0.313003  1
  Si  Si115  1  0.248825  0.690079  0.434690  1
  Si  Si116  1  0.751165  0.690120  0.434687  1
  Si  Si117  1  0.119634  0.880318  0.412798  1
  Si  Si118  1  0.880361  0.880359  0.412802  1
  Si  Si119  1  0.119607  0.880329  0.334874  1
  Si  Si120  1  0.880334  0.880372  0.334879  1
  Si  Si121  1  0.379860  0.619401  0.572882  1
  Si  Si122  1  0.620263  0.619416  0.572881  1
  Si  Si123  1  0.380445  0.620061  0.495370  1
  Si  Si124  1  0.619578  0.620081  0.495369  1
  H  H125  1  0.323752  0.306467  0.126161  1
  H  H126  1  0.676361  0.306466  0.126172  1
  H  H127  1  0.323791  0.306405  0.621509  1
  H  H128  1  0.676366  0.306434  0.621511  1
  H  H129  1  0.676377  0.693285  0.126175  1
  H  H130  1  0.323771  0.693308  0.126167  1
  H  H131  1  0.676369  0.693259  0.621514  1
  H  H132  1  0.323789  0.693259  0.621518  1
