# generated using pymatgen
data_Si42H2O85
_symmetry_space_group_name_H-M   'P 1'
_cell_length_a   12.87085738
_cell_length_b   12.87068762
_cell_length_c   90.45065881
_cell_angle_alpha   90.00000000
_cell_angle_beta   90.00000000
_cell_angle_gamma   90.00000000
_symmetry_Int_Tables_number   1
_chemical_formula_structural   Si42H2O85
_chemical_formula_sum   'Si168 H8 O340'
_cell_volume   14983.7653163
_cell_formula_units_Z   4
loop_
 _symmetry_equiv_pos_site_id
 _symmetry_equiv_pos_as_xyz
  1  'x, y, z'
loop_
 _atom_site_type_symbol
 _atom_site_label
 _atom_site_symmetry_multiplicity
 _atom_site_fract_x
 _atom_site_fract_y
 _atom_site_fract_z
 _atom_site_occupancy
  O  O1  1  0.323752  0.306467  0.065229  1
  O  O2  1  0.676361  0.306466  0.065234  1
  O  O3  1  0.641461  0.499880  0.073753  1
  O  O4  1  0.359367  0.359237  0.093569  1
  O  O5  1  0.640661  0.359235  0.093574  1
  O  O6  1  0.500043  0.366949  0.074208  1
  O  O7  1  0.499987  0.358469  0.113394  1
  O  O8  1  0.358635  0.499888  0.073749  1
  O  O9  1  0.632915  0.499888  0.112938  1
  O  O10  1  0.367059  0.499886  0.112934  1
  O  O11  1  0.866979  0.135367  0.163802  1
  O  O12  1  0.133066  0.135323  0.163800  1
  O  O13  1  0.000000  0.139122  0.183825  1
  O  O14  1  0.000000  0.139135  0.143777  1
  O  O15  1  0.808013  0.201919  0.188625  1
  O  O16  1  0.192060  0.201875  0.188623  1
  O  O17  1  0.807986  0.201939  0.138980  1
  O  O18  1  0.192034  0.201887  0.138977  1
  O  O19  1  0.831745  0.399336  0.139780  1
  O  O20  1  0.168220  0.399276  0.139781  1
  O  O21  1  0.831758  0.399315  0.187824  1
  O  O22  1  0.168240  0.399266  0.187826  1
  O  O23  1  0.669435  0.329674  0.149676  1
  O  O24  1  0.330559  0.329650  0.149672  1
  O  O25  1  0.669443  0.329643  0.177929  1
  O  O26  1  0.330559  0.329650  0.177927  1
  O  O27  1  0.693407  0.323603  0.121915  1
  O  O28  1  0.306559  0.323598  0.121910  1
  O  O29  1  0.693441  0.323587  0.205690  1
  O  O30  1  0.306614  0.323565  0.205690  1
  O  O31  1  0.000000  0.499889  0.184071  1
  O  O32  1  0.000000  0.499905  0.143537  1
  O  O33  1  0.499993  0.357751  0.163802  1
  O  O34  1  0.367423  0.499895  0.163799  1
  O  O35  1  0.868138  0.499921  0.163804  1
  O  O36  1  0.632553  0.499904  0.163806  1
  O  O37  1  0.131856  0.499868  0.163805  1
  O  O38  1  0.358648  0.499832  0.253855  1
  O  O39  1  -0.000000  0.140502  0.284141  1
  O  O40  1  0.202055  0.191922  0.279438  1
  O  O41  1  0.798025  0.191824  0.279435  1
  O  O42  1  0.399440  0.168066  0.280245  1
  O  O43  1  0.600630  0.168115  0.280239  1
  O  O44  1  0.329847  0.330434  0.290132  1
  O  O45  1  0.670342  0.330402  0.290135  1
  O  O46  1  0.323791  0.306405  0.262371  1
  O  O47  1  0.676366  0.306434  0.262372  1
  O  O48  1  0.641485  0.499849  0.253853  1
  O  O49  1  0.640704  0.359214  0.234031  1
  O  O50  1  0.359401  0.359196  0.234031  1
  O  O51  1  0.367088  0.499859  0.214669  1
  O  O52  1  0.500071  0.366912  0.253394  1
  O  O53  1  0.500032  0.358455  0.214209  1
  O  O54  1  0.632952  0.499881  0.214669  1
  O  O55  1  0.676377  0.693285  0.065235  1
  O  O56  1  0.323771  0.693308  0.065232  1
  O  O57  1  0.640671  0.640535  0.093576  1
  O  O58  1  0.359370  0.640538  0.093572  1
  O  O59  1  0.500052  0.632819  0.074211  1
  O  O60  1  0.499989  0.641305  0.113396  1
  O  O61  1  0.133029  0.864409  0.163801  1
  O  O62  1  0.866934  0.864462  0.163803  1
  O  O63  1  0.000000  0.860647  0.183825  1
  O  O64  1  0.000000  0.860660  0.143778  1
  O  O65  1  0.140638  0.000000  0.143682  1
  O  O66  1  0.192011  0.797852  0.188626  1
  O  O67  1  0.807967  0.797901  0.188627  1
  O  O68  1  0.191982  0.797858  0.138976  1
  O  O69  1  0.807930  0.797913  0.138981  1
  O  O70  1  0.168242  0.600466  0.139782  1
  O  O71  1  0.831756  0.600528  0.139783  1
  O  O72  1  0.168243  0.600459  0.187828  1
  O  O73  1  0.831763  0.600511  0.187826  1
  O  O74  1  0.330541  0.670155  0.149677  1
  O  O75  1  0.669417  0.670143  0.149678  1
  O  O76  1  0.330549  0.670116  0.177932  1
  O  O77  1  0.669430  0.670152  0.177932  1
  O  O78  1  0.306570  0.676176  0.121914  1
  O  O79  1  0.693398  0.676191  0.121916  1
  O  O80  1  0.306583  0.676162  0.205695  1
  O  O81  1  0.693419  0.676193  0.205693  1
  O  O82  1  0.499982  0.642049  0.163805  1
  O  O83  1  0.859365  0.000000  0.183921  1
  O  O84  1  0.140667  0.000000  0.183918  1
  O  O85  1  0.859334  0.000000  0.143684  1
  O  O86  1  0.860846  0.000000  0.284237  1
  O  O87  1  0.139318  0.000000  0.284235  1
  O  O88  1  0.000000  0.859195  0.284142  1
  O  O89  1  0.798119  0.807774  0.279438  1
  O  O90  1  0.202150  0.807873  0.279438  1
  O  O91  1  0.600739  0.831620  0.280243  1
  O  O92  1  0.399550  0.831603  0.280239  1
  O  O93  1  0.670347  0.669275  0.290137  1
  O  O94  1  0.329865  0.669312  0.290137  1
  O  O95  1  0.676369  0.693259  0.262374  1
  O  O96  1  0.323789  0.693259  0.262376  1
  O  O97  1  0.359387  0.640492  0.234035  1
  O  O98  1  0.640684  0.640516  0.234033  1
  O  O99  1  0.500061  0.632767  0.253397  1
  O  O100  1  0.500009  0.641285  0.214212  1
  O  O101  1  0.500106  0.000000  0.283998  1
  O  O102  1  0.500081  0.131718  0.304265  1
  O  O103  1  -0.000000  0.140520  0.324377  1
  O  O104  1  0.202048  0.191936  0.329081  1
  O  O105  1  0.798028  0.191845  0.329087  1
  O  O106  1  0.399439  0.168088  0.328283  1
  O  O107  1  0.600632  0.168126  0.328290  1
  O  O108  1  0.329844  0.330426  0.318386  1
  O  O109  1  0.670324  0.330407  0.318390  1
  O  O110  1  0.323752  0.306467  0.346148  1
  O  O111  1  0.676361  0.306466  0.346153  1
  O  O112  1  0.641461  0.499880  0.354672  1
  O  O113  1  0.500092  0.367290  0.304260  1
  O  O114  1  0.359367  0.359237  0.374488  1
  O  O115  1  0.640661  0.359235  0.374493  1
  O  O116  1  0.500043  0.366949  0.355127  1
  O  O117  1  0.499987  0.358469  0.394313  1
  O  O118  1  0.642249  0.499844  0.304264  1
  O  O119  1  0.358635  0.499888  0.354668  1
  O  O120  1  0.357951  0.499868  0.304263  1
  O  O121  1  0.632915  0.499888  0.393857  1
  O  O122  1  0.367059  0.499886  0.393853  1
  O  O123  1  0.135485  0.132941  0.304259  1
  O  O124  1  0.864576  0.132870  0.304260  1
  O  O125  1  0.866979  0.135367  0.444721  1
  O  O126  1  0.133066  0.135323  0.444719  1
  O  O127  1  0.000000  0.139122  0.464744  1
  O  O128  1  0.000000  0.139135  0.424696  1
  O  O129  1  0.808013  0.201919  0.469544  1
  O  O130  1  0.192060  0.201875  0.469542  1
  O  O131  1  0.807986  0.201939  0.419899  1
  O  O132  1  0.192034  0.201887  0.419896  1
  O  O133  1  0.831745  0.399336  0.420699  1
  O  O134  1  0.168220  0.399276  0.420700  1
  O  O135  1  0.831758  0.399315  0.468743  1
  O  O136  1  0.168240  0.399266  0.468745  1
  O  O137  1  0.669435  0.329674  0.430595  1
  O  O138  1  0.330559  0.329650  0.430591  1
  O  O139  1  0.669443  0.329643  0.458848  1
  O  O140  1  0.330559  0.329650  0.458846  1
  O  O141  1  0.693407  0.323603  0.402834  1
  O  O142  1  0.306559  0.323598  0.402829  1
  O  O143  1  0.693441  0.323587  0.486609  1
  O  O144  1  0.306614  0.323565  0.486609  1
  O  O145  1  0.000000  0.499889  0.464990  1
  O  O146  1  -0.000000  0.499905  0.424456  1
  O  O147  1  0.499993  0.357751  0.444721  1
  O  O148  1  0.367423  0.499895  0.444718  1
  O  O149  1  0.868138  0.499921  0.444723  1
  O  O150  1  0.632553  0.499904  0.444725  1
  O  O151  1  0.131856  0.499868  0.444723  1
  O  O152  1  0.358648  0.499832  0.534774  1
  O  O153  1  -0.000000  0.140502  0.565060  1
  O  O154  1  0.202055  0.191922  0.560356  1
  O  O155  1  0.798025  0.191824  0.560354  1
  O  O156  1  0.399440  0.168066  0.561164  1
  O  O157  1  0.600630  0.168115  0.561158  1
  O  O158  1  0.329847  0.330434  0.571051  1
  O  O159  1  0.670342  0.330402  0.571054  1
  O  O160  1  0.323791  0.306405  0.543290  1
  O  O161  1  0.676366  0.306434  0.543291  1
  O  O162  1  0.641485  0.499849  0.534772  1
  O  O163  1  0.640704  0.359214  0.514950  1
  O  O164  1  0.359401  0.359196  0.514950  1
  O  O165  1  0.367088  0.499859  0.495588  1
  O  O166  1  0.500071  0.366912  0.534312  1
  O  O167  1  0.500032  0.358455  0.495128  1
  O  O168  1  0.632952  0.499881  0.495588  1
  O  O169  1  0.860840  0.000000  0.324284  1
  O  O170  1  0.000000  0.859218  0.324378  1
  O  O171  1  0.798122  0.807794  0.329086  1
  O  O172  1  0.202140  0.807899  0.329083  1
  O  O173  1  0.600741  0.831630  0.328284  1
  O  O174  1  0.399544  0.831621  0.328286  1
  O  O175  1  0.670349  0.669279  0.318392  1
  O  O176  1  0.329859  0.669319  0.318390  1
  O  O177  1  0.676377  0.693285  0.346154  1
  O  O178  1  0.323771  0.693308  0.346151  1
  O  O179  1  0.139315  0.000000  0.324283  1
  O  O180  1  0.500107  0.632421  0.304265  1
  O  O181  1  0.640671  0.640535  0.374495  1
  O  O182  1  0.359370  0.640538  0.374491  1
  O  O183  1  0.500052  0.632819  0.355130  1
  O  O184  1  0.500126  0.868000  0.304264  1
  O  O185  1  0.499989  0.641305  0.394315  1
  O  O186  1  0.500106  0.000000  0.324531  1
  O  O187  1  0.135579  0.866856  0.304260  1
  O  O188  1  0.864672  0.866769  0.304261  1
  O  O189  1  0.133029  0.864409  0.444720  1
  O  O190  1  0.866934  0.864462  0.444722  1
  O  O191  1  0.000000  0.860647  0.464744  1
  O  O192  1  -0.000000  0.860660  0.424697  1
  O  O193  1  0.140638  0.000000  0.424601  1
  O  O194  1  0.192011  0.797852  0.469545  1
  O  O195  1  0.807967  0.797901  0.469546  1
  O  O196  1  0.191982  0.797858  0.419895  1
  O  O197  1  0.807930  0.797913  0.419900  1
  O  O198  1  0.168242  0.600466  0.420701  1
  O  O199  1  0.831756  0.600528  0.420702  1
  O  O200  1  0.168243  0.600459  0.468747  1
  O  O201  1  0.831763  0.600511  0.468745  1
  O  O202  1  0.330541  0.670155  0.430596  1
  O  O203  1  0.669417  0.670143  0.430597  1
  O  O204  1  0.330549  0.670116  0.458851  1
  O  O205  1  0.669430  0.670152  0.458851  1
  O  O206  1  0.306570  0.676176  0.402833  1
  O  O207  1  0.693398  0.676191  0.402835  1
  O  O208  1  0.306583  0.676162  0.486614  1
  O  O209  1  0.693419  0.676193  0.486612  1
  O  O210  1  0.499982  0.642049  0.444724  1
  O  O211  1  0.859365  0.000000  0.464840  1
  O  O212  1  0.140667  0.000000  0.464837  1
  O  O213  1  0.859334  0.000000  0.424603  1
  O  O214  1  0.860846  0.000000  0.565156  1
  O  O215  1  0.139318  0.000000  0.565154  1
  O  O216  1  -0.000000  0.859195  0.565061  1
  O  O217  1  0.798119  0.807774  0.560357  1
  O  O218  1  0.202150  0.807873  0.560357  1
  O  O219  1  0.600739  0.831620  0.561162  1
  O  O220  1  0.399550  0.831603  0.561158  1
  O  O221  1  0.670347  0.669275  0.571056  1
  O  O222  1  0.329865  0.669312  0.571056  1
  O  O223  1  0.676369  0.693259  0.543293  1
  O  O224  1  0.323789  0.693259  0.543295  1
  O  O225  1  0.359387  0.640492  0.514954  1
  O  O226  1  0.640684  0.640516  0.514952  1
  O  O227  1  0.500061  0.632767  0.534316  1
  O  O228  1  0.500009  0.641285  0.495131  1
  O  O229  1  0.500106  0.000000  0.564917  1
  O  O230  1  0.500081  0.131718  0.585184  1
  O  O231  1  0.000000  0.140520  0.605296  1
  O  O232  1  0.202048  0.191936  0.610000  1
  O  O233  1  0.798028  0.191845  0.610006  1
  O  O234  1  0.399439  0.168088  0.609202  1
  O  O235  1  0.600632  0.168126  0.609209  1
  O  O236  1  0.329844  0.330426  0.599305  1
  O  O237  1  0.670324  0.330407  0.599309  1
  O  O238  1  0.323752  0.306467  0.627067  1
  O  O239  1  0.676361  0.306466  0.627072  1
  O  O240  1  0.641461  0.499880  0.635591  1
  O  O241  1  0.500092  0.367290  0.585179  1
  O  O242  1  0.359367  0.359237  0.655407  1
  O  O243  1  0.640661  0.359235  0.655412  1
  O  O244  1  0.500043  0.366949  0.636046  1
  O  O245  1  0.499987  0.358469  0.675232  1
  O  O246  1  0.642249  0.499844  0.585183  1
  O  O247  1  0.358635  0.499888  0.635587  1
  O  O248  1  0.357951  0.499868  0.585182  1
  O  O249  1  0.632915  0.499888  0.674776  1
  O  O250  1  0.367059  0.499886  0.674772  1
  O  O251  1  0.135485  0.132941  0.585178  1
  O  O252  1  0.864576  0.132870  0.585179  1
  O  O253  1  0.866979  0.135367  0.725640  1
  O  O254  1  0.133066  0.135323  0.725638  1
  O  O255  1  0.000000  0.139122  0.745663  1
  O  O256  1  0.000000  0.139135  0.705615  1
  O  O257  1  0.808013  0.201919  0.750463  1
  O  O258  1  0.192060  0.201875  0.750461  1
  O  O259  1  0.807986  0.201939  0.700818  1
  O  O260  1  0.192034  0.201887  0.700815  1
  O  O261  1  0.831745  0.399336  0.701618  1
  O  O262  1  0.168220  0.399276  0.701619  1
  O  O263  1  0.831758  0.399315  0.749662  1
  O  O264  1  0.168240  0.399266  0.749664  1
  O  O265  1  0.669435  0.329674  0.711514  1
  O  O266  1  0.330559  0.329650  0.711510  1
  O  O267  1  0.669443  0.329643  0.739767  1
  O  O268  1  0.330559  0.329650  0.739765  1
  O  O269  1  0.693407  0.323603  0.683753  1
  O  O270  1  0.306559  0.323598  0.683748  1
  O  O271  1  0.693441  0.323587  0.767528  1
  O  O272  1  0.306614  0.323565  0.767528  1
  O  O273  1  0.000000  0.499889  0.745909  1
  O  O274  1  0.000000  0.499905  0.705375  1
  O  O275  1  0.499993  0.357751  0.725640  1
  O  O276  1  0.367423  0.499895  0.725637  1
  O  O277  1  0.868138  0.499921  0.725642  1
  O  O278  1  0.632553  0.499904  0.725644  1
  O  O279  1  0.131856  0.499868  0.725642  1
  O  O280  1  0.358648  0.499832  0.815693  1
  O  O281  1  0.323791  0.306405  0.824209  1
  O  O282  1  0.676366  0.306434  0.824210  1
  O  O283  1  0.641485  0.499849  0.815691  1
  O  O284  1  0.640704  0.359214  0.795869  1
  O  O285  1  0.359401  0.359196  0.795869  1
  O  O286  1  0.367088  0.499859  0.776507  1
  O  O287  1  0.500071  0.366912  0.815231  1
  O  O288  1  0.500032  0.358455  0.776047  1
  O  O289  1  0.632952  0.499881  0.776507  1
  O  O290  1  0.860840  0.000000  0.605203  1
  O  O291  1  0.000000  0.859218  0.605297  1
  O  O292  1  0.798122  0.807794  0.610005  1
  O  O293  1  0.202140  0.807899  0.610002  1
  O  O294  1  0.600741  0.831630  0.609203  1
  O  O295  1  0.399544  0.831621  0.609205  1
  O  O296  1  0.670349  0.669279  0.599311  1
  O  O297  1  0.329859  0.669319  0.599309  1
  O  O298  1  0.676377  0.693285  0.627073  1
  O  O299  1  0.323771  0.693308  0.627070  1
  O  O300  1  0.139315  0.000000  0.605202  1
  O  O301  1  0.500107  0.632421  0.585184  1
  O  O302  1  0.640671  0.640535  0.655414  1
  O  O303  1  0.359370  0.640538  0.655410  1
  O  O304  1  0.500052  0.632819  0.636049  1
  O  O305  1  0.500126  0.868000  0.585183  1
  O  O306  1  0.499989  0.641305  0.675234  1
  O  O307  1  0.500106  0.000000  0.605450  1
  O  O308  1  0.135579  0.866856  0.585179  1
  O  O309  1  0.864672  0.866769  0.585180  1
  O  O310  1  0.133029  0.864409  0.725639  1
  O  O311  1  0.866934  0.864462  0.725641  1
  O  O312  1  -0.000000  0.860647  0.745663  1
  O  O313  1  -0.000000  0.860660  0.705616  1
  O  O314  1  0.140638  0.000000  0.705520  1
  O  O315  1  0.192011  0.797852  0.750464  1
  O  O316  1  0.807967  0.797901  0.750465  1
  O  O317  1  0.191982  0.797858  0.700814  1
  O  O318  1  0.807930  0.797913  0.700818  1
  O  O319  1  0.168242  0.600466  0.701620  1
  O  O320  1  0.831756  0.600528  0.701621  1
  O  O321  1  0.168243  0.600459  0.749666  1
  O  O322  1  0.831763  0.600511  0.749664  1
  O  O323  1  0.330541  0.670155  0.711515  1
  O  O324  1  0.669417  0.670143  0.711516  1
  O  O325  1  0.330549  0.670116  0.739770  1
  O  O326  1  0.669430  0.670152  0.739770  1
  O  O327  1  0.306570  0.676176  0.683752  1
  O  O328  1  0.693398  0.676191  0.683754  1
  O  O329  1  0.306583  0.676162  0.767533  1
  O  O330  1  0.693419  0.676193  0.767531  1
  O  O331  1  0.499982  0.642049  0.725643  1
  O  O332  1  0.859365  0.000000  0.745759  1
  O  O333  1  0.140667  -0.000000  0.745756  1
  O  O334  1  0.859334  0.000000  0.705522  1
  O  O335  1  0.676369  0.693259  0.824212  1
  O  O336  1  0.323789  0.693259  0.824214  1
  O  O337  1  0.359387  0.640492  0.795872  1
  O  O338  1  0.640684  0.640516  0.795871  1
  O  O339  1  0.500061  0.632767  0.815235  1
  O  O340  1  0.500009  0.641285  0.776050  1
  Si  Si341  1  0.379841  0.380319  0.076588  1
  Si  Si342  1  0.620242  0.380313  0.076592  1
  Si  Si343  1  0.619554  0.379687  0.110555  1
  Si  Si344  1  0.380423  0.379685  0.110552  1
  Si  Si345  1  0.380775  0.378462  0.163800  1
  Si  Si346  1  0.619209  0.378470  0.163803  1
  Si  Si347  1  0.119119  0.499876  0.146551  1
  Si  Si348  1  0.119126  0.499867  0.181058  1
  Si  Si349  1  0.880869  0.499924  0.146550  1
  Si  Si350  1  0.751167  0.309710  0.137144  1
  Si  Si351  1  0.248823  0.309676  0.137141  1
  Si  Si352  1  0.751185  0.309685  0.190460  1
  Si  Si353  1  0.248848  0.309662  0.190461  1
  Si  Si354  1  0.880396  0.119450  0.180874  1
  Si  Si355  1  0.119667  0.119412  0.180871  1
  Si  Si356  1  0.880371  0.119464  0.146730  1
  Si  Si357  1  0.119643  0.119422  0.146728  1
  Si  Si358  1  0.880876  0.499914  0.181057  1
  Si  Si359  1  0.620272  0.380283  0.251013  1
  Si  Si360  1  0.500060  0.118979  0.287011  1
  Si  Si361  1  0.309857  0.248686  0.277603  1
  Si  Si362  1  0.690270  0.248674  0.277602  1
  Si  Si363  1  0.119588  0.119522  0.287187  1
  Si  Si364  1  0.880498  0.119453  0.287189  1
  Si  Si365  1  0.619596  0.379677  0.217050  1
  Si  Si366  1  0.380464  0.379657  0.217049  1
  Si  Si367  1  0.379868  0.380268  0.251012  1
  Si  Si368  1  0.380425  0.620089  0.110554  1
  Si  Si369  1  0.379849  0.619452  0.076592  1
  Si  Si370  1  0.619557  0.620091  0.110557  1
  Si  Si371  1  0.620252  0.619448  0.076594  1
  Si  Si372  1  0.619200  0.621338  0.163806  1
  Si  Si373  1  0.380766  0.621329  0.163803  1
  Si  Si374  1  0.248815  0.690091  0.137144  1
  Si  Si375  1  0.751143  0.690123  0.137146  1
  Si  Si376  1  0.248825  0.690079  0.190465  1
  Si  Si377  1  0.751165  0.690120  0.190463  1
  Si  Si378  1  0.119634  0.880318  0.180872  1
  Si  Si379  1  0.880361  0.880359  0.180874  1
  Si  Si380  1  0.119607  0.880329  0.146729  1
  Si  Si381  1  0.880334  0.880372  0.146731  1
  Si  Si382  1  0.379860  0.619401  0.251015  1
  Si  Si383  1  0.620263  0.619416  0.251015  1
  Si  Si384  1  0.500133  0.880727  0.287010  1
  Si  Si385  1  0.690322  0.750997  0.277604  1
  Si  Si386  1  0.309912  0.751037  0.277604  1
  Si  Si387  1  0.880576  0.880178  0.287189  1
  Si  Si388  1  0.119667  0.880248  0.287188  1
  Si  Si389  1  0.380445  0.620061  0.217052  1
  Si  Si390  1  0.619578  0.620081  0.217052  1
  Si  Si391  1  0.621527  0.380627  0.304262  1
  Si  Si392  1  0.500059  0.118991  0.321519  1
  Si  Si393  1  0.378660  0.380649  0.304260  1
  Si  Si394  1  0.309844  0.248707  0.330918  1
  Si  Si395  1  0.690272  0.248690  0.330925  1
  Si  Si396  1  0.119584  0.119539  0.321330  1
  Si  Si397  1  0.880493  0.119471  0.321332  1
  Si  Si398  1  0.379841  0.380319  0.357507  1
  Si  Si399  1  0.620242  0.380313  0.357511  1
  Si  Si400  1  0.619554  0.379687  0.391474  1
  Si  Si401  1  0.380423  0.379685  0.391471  1
  Si  Si402  1  0.380775  0.378462  0.444719  1
  Si  Si403  1  0.619209  0.378470  0.444722  1
  Si  Si404  1  0.119119  0.499876  0.427470  1
  Si  Si405  1  0.119126  0.499867  0.461977  1
  Si  Si406  1  0.880869  0.499924  0.427469  1
  Si  Si407  1  0.751167  0.309710  0.418063  1
  Si  Si408  1  0.248823  0.309676  0.418060  1
  Si  Si409  1  0.751185  0.309685  0.471379  1
  Si  Si410  1  0.248848  0.309662  0.471380  1
  Si  Si411  1  0.880396  0.119450  0.461793  1
  Si  Si412  1  0.119667  0.119412  0.461790  1
  Si  Si413  1  0.880371  0.119464  0.427649  1
  Si  Si414  1  0.119643  0.119422  0.427647  1
  Si  Si415  1  0.880876  0.499914  0.461976  1
  Si  Si416  1  0.620272  0.380283  0.531932  1
  Si  Si417  1  0.500060  0.118979  0.567930  1
  Si  Si418  1  0.309857  0.248686  0.558522  1
  Si  Si419  1  0.690270  0.248674  0.558521  1
  Si  Si420  1  0.119588  0.119522  0.568106  1
  Si  Si421  1  0.880498  0.119453  0.568108  1
  Si  Si422  1  0.619596  0.379677  0.497969  1
  Si  Si423  1  0.380464  0.379657  0.497968  1
  Si  Si424  1  0.379868  0.380268  0.531931  1
  Si  Si425  1  0.380425  0.620089  0.391473  1
  Si  Si426  1  0.379849  0.619452  0.357511  1
  Si  Si427  1  0.500136  0.880739  0.321517  1
  Si  Si428  1  0.619557  0.620091  0.391476  1
  Si  Si429  1  0.690330  0.751014  0.330923  1
  Si  Si430  1  0.309899  0.751063  0.330920  1
  Si  Si431  1  0.880572  0.880195  0.321333  1
  Si  Si432  1  0.119662  0.880266  0.321331  1
  Si  Si433  1  0.620252  0.619448  0.357512  1
  Si  Si434  1  0.378673  0.619084  0.304264  1
  Si  Si435  1  0.621539  0.619063  0.304265  1
  Si  Si436  1  0.619200  0.621338  0.444725  1
  Si  Si437  1  0.380766  0.621329  0.444722  1
  Si  Si438  1  0.248815  0.690091  0.418063  1
  Si  Si439  1  0.751143  0.690123  0.418065  1
  Si  Si440  1  0.248825  0.690079  0.471384  1
  Si  Si441  1  0.751165  0.690120  0.471382  1
  Si  Si442  1  0.119634  0.880318  0.461791  1
  Si  Si443  1  0.880361  0.880359  0.461793  1
  Si  Si444  1  0.119607  0.880329  0.427648  1
  Si  Si445  1  0.880334  0.880372  0.427650  1
  Si  Si446  1  0.379860  0.619401  0.531934  1
  Si  Si447  1  0.620263  0.619416  0.531934  1
  Si  Si448  1  0.500133  0.880727  0.567929  1
  Si  Si449  1  0.690322  0.750997  0.558523  1
  Si  Si450  1  0.309912  0.751037  0.558523  1
  Si  Si451  1  0.880576  0.880178  0.568108  1
  Si  Si452  1  0.119667  0.880248  0.568107  1
  Si  Si453  1  0.380445  0.620061  0.497971  1
  Si  Si454  1  0.619578  0.620081  0.497971  1
  Si  Si455  1  0.621527  0.380627  0.585181  1
  Si  Si456  1  0.500059  0.118991  0.602438  1
  Si  Si457  1  0.378660  0.380649  0.585179  1
  Si  Si458  1  0.309844  0.248707  0.611837  1
  Si  Si459  1  0.690272  0.248690  0.611844  1
  Si  Si460  1  0.119584  0.119539  0.602249  1
  Si  Si461  1  0.880493  0.119471  0.602251  1
  Si  Si462  1  0.379841  0.380319  0.638426  1
  Si  Si463  1  0.620242  0.380313  0.638430  1
  Si  Si464  1  0.619554  0.379687  0.672393  1
  Si  Si465  1  0.380423  0.379685  0.672390  1
  Si  Si466  1  0.380775  0.378462  0.725638  1
  Si  Si467  1  0.619209  0.378470  0.725641  1
  Si  Si468  1  0.119119  0.499876  0.708389  1
  Si  Si469  1  0.119126  0.499867  0.742896  1
  Si  Si470  1  0.880869  0.499924  0.708388  1
  Si  Si471  1  0.751167  0.309710  0.698982  1
  Si  Si472  1  0.248823  0.309676  0.698979  1
  Si  Si473  1  0.751185  0.309685  0.752298  1
  Si  Si474  1  0.248848  0.309662  0.752299  1
  Si  Si475  1  0.880396  0.119450  0.742712  1
  Si  Si476  1  0.119667  0.119412  0.742709  1
  Si  Si477  1  0.880371  0.119464  0.708568  1
  Si  Si478  1  0.119643  0.119422  0.708566  1
  Si  Si479  1  0.880876  0.499914  0.742895  1
  Si  Si480  1  0.620272  0.380283  0.812851  1
  Si  Si481  1  0.619596  0.379677  0.778888  1
  Si  Si482  1  0.380464  0.379657  0.778887  1
  Si  Si483  1  0.379868  0.380268  0.812850  1
  Si  Si484  1  0.380425  0.620089  0.672392  1
  Si  Si485  1  0.379849  0.619452  0.638429  1
  Si  Si486  1  0.500136  0.880739  0.602436  1
  Si  Si487  1  0.619557  0.620091  0.672395  1
  Si  Si488  1  0.690330  0.751014  0.611842  1
  Si  Si489  1  0.309899  0.751063  0.611839  1
  Si  Si490  1  0.880572  0.880195  0.602252  1
  Si  Si491  1  0.119662  0.880266  0.602250  1
  Si  Si492  1  0.620252  0.619448  0.638431  1
  Si  Si493  1  0.378673  0.619084  0.585183  1
  Si  Si494  1  0.621539  0.619063  0.585184  1
  Si  Si495  1  0.619200  0.621338  0.725644  1
  Si  Si496  1  0.380766  0.621329  0.725641  1
  Si  Si497  1  0.248815  0.690091  0.698982  1
  Si  Si498  1  0.751143  0.690123  0.698984  1
  Si  Si499  1  0.248825  0.690079  0.752303  1
  Si  Si500  1  0.751165  0.690120  0.752301  1
  Si  Si501  1  0.119634  0.880318  0.742710  1
  Si  Si502  1  0.880361  0.880359  0.742712  1
  Si  Si503  1  0.119607  0.880329  0.708567  1
  Si  Si504  1  0.880334  0.880372  0.708569  1
  Si  Si505  1  0.379860  0.619401  0.812853  1
  Si  Si506  1  0.620263  0.619416  0.812853  1
  Si  Si507  1  0.380445  0.620061  0.778890  1
  Si  Si508  1  0.619578  0.620081  0.778890  1
  H  H509  1  0.323752  0.306467  0.055279  1
  H  H510  1  0.676361  0.306466  0.055284  1
  H  H511  1  0.676377  0.693285  0.055285  1
  H  H512  1  0.323771  0.693308  0.055282  1
  H  H513  1  0.323791  0.306405  0.834160  1
  H  H514  1  0.676366  0.306434  0.834160  1
  H  H515  1  0.676369  0.693259  0.834162  1
  H  H516  1  0.323789  0.693259  0.834164  1
