# generated using pymatgen
data_Si25(H3O14)4
_symmetry_space_group_name_H-M   'P 1'
_cell_length_a   21.11999289
_cell_length_b   21.12704298
_cell_length_c   57.09513767
_cell_angle_alpha   134.96125367
_cell_angle_beta   134.98035700
_cell_angle_gamma   60.03370721
_symmetry_Int_Tables_number   1
_chemical_formula_structural   Si25(H3O14)4
_chemical_formula_sum   'Si50 H24 O112'
_cell_volume   12750.9912059
_cell_formula_units_Z   2
loop_
 _symmetry_equiv_pos_site_id
 _symmetry_equiv_pos_as_xyz
  1  'x, y, z'
loop_
 _atom_site_type_symbol
 _atom_site_label
 _atom_site_symmetry_multiplicity
 _atom_site_fract_x
 _atom_site_fract_y
 _atom_site_fract_z
 _atom_site_occupancy
  O  O1  1  0.407687  0.028135  0.299000  1
  O  O2  1  0.752899  0.017636  0.309209  1
  O  O3  1  0.254576  0.017976  0.268293  1
  O  O4  1  0.921333  0.253271  0.258895  1
  O  O5  1  0.421287  0.253661  0.268027  1
  O  O6  1  0.329123  0.180040  0.324423  1
  O  O7  1  0.399642  0.329382  0.324340  1
  O  O8  1  0.932832  0.302261  0.188279  1
  O  O9  1  0.900617  0.331195  0.231512  1
  O  O10  1  0.090541  0.529430  0.346867  1
  O  O11  1  0.873301  0.408860  0.283817  1
  O  O12  1  0.376146  0.408860  0.299229  1
  O  O13  1  0.027154  0.377164  0.299758  1
  O  O14  1  0.528229  0.376388  0.347640  1
  O  O15  1  0.018248  0.421100  0.268158  1
  O  O16  1  0.179815  0.399730  0.324606  1
  O  O17  1  0.850112  0.435578  0.213321  1
  O  O18  1  0.972704  0.877073  0.333185  1
  O  O19  1  0.471950  0.875254  0.284353  1
  O  O20  1  0.078447  0.754150  0.309087  1
  O  O21  1  0.578296  0.753655  0.299899  1
  O  O22  1  0.482966  0.921981  0.259061  1
  O  O23  1  0.600057  0.832058  0.283897  1
  O  O24  1  0.820263  0.901124  0.320095  1
  O  O25  1  0.320884  0.899754  0.230486  1
  O  O26  1  0.669123  0.679183  0.204042  1
  O  O27  1  0.152035  0.932655  0.188534  1
  O  O28  1  0.651678  0.936013  0.292396  1
  O  O29  1  0.695935  0.848168  0.246915  1
  O  O30  1  0.197033  0.848369  0.211769  1
  O  O31  1  0.567597  0.804050  0.223779  1
  O  O32  1  0.874990  0.092270  0.332841  1
  O  O33  1  0.375850  0.093567  0.347657  1
  O  O34  1  0.019013  0.076049  0.308264  1
  O  O35  1  0.831443  0.318998  0.282854  1
  O  O36  1  0.331042  0.320630  0.231194  1
  O  O37  1  0.901657  0.167747  0.319577  1
  O  O38  1  0.302754  0.151708  0.188688  1
  O  O39  1  0.934386  0.194734  0.291014  1
  O  O40  1  0.803292  0.150512  0.223184  1
  O  O41  1  0.434626  0.196430  0.212568  1
  O  O42  1  0.849282  0.064829  0.246553  1
  O  O43  1  0.409738  0.471311  0.284311  1
  O  O44  1  0.753411  0.481669  0.299728  1
  O  O45  1  0.253644  0.483121  0.258851  1
  O  O46  1  0.481952  0.579427  0.299959  1
  O  O47  1  0.320227  0.599678  0.283580  1
  O  O48  1  0.151482  0.568008  0.223446  1
  O  O49  1  0.651340  0.567745  0.326249  1
  O  O50  1  0.696256  0.651658  0.326316  1
  O  O51  1  0.196631  0.651165  0.291873  1
  O  O52  1  0.091680  0.972260  0.332729  1
  O  O53  1  0.578690  0.746252  0.167341  1
  O  O54  1  0.169902  0.819854  0.320144  1
  O  O55  1  0.067170  0.696333  0.246646  1
  O  O56  1  0.563813  0.697804  0.325657  1
  O  O57  1  0.907502  0.028177  0.364531  1
  O  O58  1  0.421287  0.253661  0.529502  1
  O  O59  1  0.828399  0.179130  0.376935  1
  O  O60  1  0.932832  0.302261  0.449755  1
  O  O61  1  0.433053  0.302721  0.370139  1
  O  O62  1  0.590628  0.529233  0.412672  1
  O  O63  1  0.517531  0.421534  0.396784  1
  O  O64  1  0.244749  0.516816  0.396106  1
  O  O65  1  0.746943  0.517063  0.438210  1
  O  O66  1  0.681179  0.402446  0.414926  1
  O  O67  1  0.303014  0.347469  0.370167  1
  O  O68  1  0.804422  0.347261  0.405931  1
  O  O69  1  0.850112  0.435578  0.474797  1
  O  O70  1  0.347529  0.432558  0.370005  1
  O  O71  1  0.125779  0.909898  0.365411  1
  O  O72  1  0.623160  0.908661  0.349932  1
  O  O73  1  0.982012  0.921468  0.387821  1
  O  O74  1  0.098596  0.830477  0.376905  1
  O  O75  1  0.167865  0.679739  0.413159  1
  O  O76  1  0.669123  0.679183  0.465517  1
  O  O77  1  0.152035  0.932655  0.450009  1
  O  O78  1  0.695935  0.848168  0.508391  1
  O  O79  1  0.063912  0.802992  0.404794  1
  O  O80  1  0.197033  0.848369  0.473244  1
  O  O81  1  0.567597  0.804050  0.485255  1
  O  O82  1  0.026963  0.124230  0.363696  1
  O  O83  1  0.528243  0.124528  0.412529  1
  O  O84  1  0.517953  0.078801  0.438442  1
  O  O85  1  0.921178  0.245022  0.387401  1
  O  O86  1  0.421749  0.246229  0.396883  1
  O  O87  1  0.179582  0.099056  0.376860  1
  O  O88  1  0.680524  0.098837  0.466385  1
  O  O89  1  0.331042  0.320630  0.492669  1
  O  O90  1  0.400964  0.169635  0.414005  1
  O  O91  1  0.302754  0.151708  0.450163  1
  O  O92  1  0.803292  0.150512  0.484659  1
  O  O93  1  0.434626  0.196430  0.474044  1
  O  O94  1  0.849282  0.064829  0.508028  1
  O  O95  1  0.348850  0.065372  0.405447  1
  O  O96  1  0.970885  0.626053  0.397920  1
  O  O97  1  0.473186  0.623603  0.349876  1
  O  O98  1  0.907217  0.472607  0.349097  1
  O  O99  1  0.122882  0.592388  0.411821  1
  O  O100  1  0.624715  0.591670  0.397911  1
  O  O101  1  0.982032  0.578627  0.428344  1
  O  O102  1  0.819518  0.600015  0.372138  1
  O  O103  1  0.151482  0.568008  0.484922  1
  O  O104  1  0.591208  0.971710  0.398095  1
  O  O105  1  0.078068  0.747605  0.438114  1
  O  O106  1  0.578690  0.746252  0.428817  1
  O  O107  1  0.246652  0.982825  0.388027  1
  O  O108  1  0.747125  0.981483  0.428634  1
  O  O109  1  0.100041  0.671615  0.466193  1
  O  O110  1  0.598718  0.670348  0.371802  1
  O  O111  1  0.668184  0.820713  0.371769  1
  O  O112  1  0.067170  0.696333  0.508121  1
  Si  Si113  1  0.836075  0.081200  0.345037  1
  Si  Si114  1  0.336877  0.082247  0.309274  1
  Si  Si115  1  0.082015  0.432879  0.309845  1
  Si  Si116  1  0.930262  0.337573  0.267192  1
  Si  Si117  1  0.431600  0.337351  0.309129  1
  Si  Si118  1  0.927371  0.374023  0.225553  1
  Si  Si119  1  0.069462  0.838279  0.344982  1
  Si  Si120  1  0.568283  0.837052  0.302848  1
  Si  Si121  1  0.418971  0.931418  0.266491  1
  Si  Si122  1  0.573917  0.875016  0.264097  1
  Si  Si123  1  0.727528  0.927802  0.291800  1
  Si  Si124  1  0.231316  0.927862  0.225993  1
  Si  Si125  1  0.626350  0.770630  0.209605  1
  Si  Si126  1  0.079080  0.068299  0.343896  1
  Si  Si127  1  0.874143  0.227377  0.263163  1
  Si  Si128  1  0.373183  0.227003  0.224756  1
  Si  Si129  1  0.930113  0.124217  0.291775  1
  Si  Si130  1  0.836368  0.418400  0.301795  1
  Si  Si131  1  0.337938  0.421365  0.267099  1
  Si  Si132  1  0.419793  0.567607  0.302617  1
  Si  Si133  1  0.571627  0.628299  0.329485  1
  Si  Si134  1  0.730050  0.571916  0.329802  1
  Si  Si135  1  0.227521  0.573774  0.263671  1
  Si  Si136  1  0.127076  0.727275  0.291434  1
  Si  Si137  1  0.624848  0.728235  0.329187  1
  Si  Si138  1  0.373298  0.269504  0.366735  1
  Si  Si139  1  0.873169  0.268149  0.404483  1
  Si  Si140  1  0.581375  0.433391  0.394974  1
  Si  Si141  1  0.161506  0.579639  0.393261  1
  Si  Si142  1  0.662577  0.578811  0.429844  1
  Si  Si143  1  0.269684  0.427087  0.366621  1
  Si  Si144  1  0.773897  0.427904  0.434652  1
  Si  Si145  1  0.427413  0.372838  0.366548  1
  Si  Si146  1  0.919763  0.931804  0.352471  1
  Si  Si147  1  0.071629  0.872788  0.405186  1
  Si  Si148  1  0.125054  0.772268  0.433073  1
  Si  Si149  1  0.626350  0.770630  0.471080  1
  Si  Si150  1  0.582332  0.067803  0.430498  1
  Si  Si151  1  0.931013  0.162642  0.351995  1
  Si  Si152  1  0.432077  0.163974  0.394599  1
  Si  Si153  1  0.272984  0.073538  0.406022  1
  Si  Si154  1  0.769363  0.069938  0.470292  1
  Si  Si155  1  0.373183  0.227003  0.486231  1
  Si  Si156  1  0.426656  0.126474  0.433860  1
  Si  Si157  1  0.067754  0.664450  0.430253  1
  Si  Si158  1  0.569134  0.663181  0.388315  1
  Si  Si159  1  0.917638  0.568837  0.387437  1
  Si  Si160  1  0.071966  0.627317  0.470684  1
  Si  Si161  1  0.162993  0.919611  0.352537  1
  Si  Si162  1  0.662887  0.922081  0.389216  1
  H  H163  1  0.932832  0.302261  0.172516  1
  H  H164  1  0.850112  0.435578  0.197558  1
  H  H165  1  0.669123  0.679183  0.188279  1
  H  H166  1  0.152035  0.932655  0.172771  1
  H  H167  1  0.197033  0.848369  0.196006  1
  H  H168  1  0.302754  0.151708  0.172925  1
  H  H169  1  0.803292  0.150512  0.207421  1
  H  H170  1  0.434626  0.196430  0.196805  1
  H  H171  1  0.849282  0.064829  0.230790  1
  H  H172  1  0.151482  0.568008  0.207683  1
  H  H173  1  0.578690  0.746252  0.151578  1
  H  H174  1  0.067170  0.696333  0.230883  1
  H  H175  1  0.421287  0.253661  0.545266  1
  H  H176  1  0.932832  0.302261  0.465518  1
  H  H177  1  0.850112  0.435578  0.490560  1
  H  H178  1  0.152035  0.932655  0.465773  1
  H  H179  1  0.695935  0.848168  0.524154  1
  H  H180  1  0.197033  0.848369  0.489008  1
  H  H181  1  0.567597  0.804050  0.501018  1
  H  H182  1  0.331042  0.320630  0.508432  1
  H  H183  1  0.803292  0.150512  0.500423  1
  H  H184  1  0.849282  0.064829  0.523792  1
  H  H185  1  0.151482  0.568008  0.500685  1
  H  H186  1  0.067170  0.696333  0.523884  1
