# generated using pymatgen
data_Si23(H4O25)2
_symmetry_space_group_name_H-M   'P 1'
_cell_length_a   19.80640796
_cell_length_b   19.84885801
_cell_length_c   33.24859667
_cell_angle_alpha   90.00000000
_cell_angle_beta   90.00000000
_cell_angle_gamma   90.00000000
_symmetry_Int_Tables_number   1
_chemical_formula_structural   Si23(H4O25)2
_chemical_formula_sum   'Si46 H16 O100'
_cell_volume   13071.1730642
_cell_formula_units_Z   2
loop_
 _symmetry_equiv_pos_site_id
 _symmetry_equiv_pos_as_xyz
  1  'x, y, z'
loop_
 _atom_site_type_symbol
 _atom_site_label
 _atom_site_symmetry_multiplicity
 _atom_site_fract_x
 _atom_site_fract_y
 _atom_site_fract_z
 _atom_site_occupancy
  O  O1  1  0.488365  0.019083  0.276837  1
  O  O2  1  0.376780  0.012727  0.360318  1
  O  O3  1  0.441599  0.131633  0.297063  1
  O  O4  1  0.410663  0.056350  0.428993  1
  O  O5  1  0.366582  0.027576  0.287862  1
  O  O6  1  0.395373  0.134140  0.368481  1
  O  O7  1  0.071415  0.288580  0.308005  1
  O  O8  1  0.428982  0.071286  0.223335  1
  O  O9  1  0.288023  0.071751  0.394124  1
  O  O10  1  0.000000  0.177987  0.297171  1
  O  O11  1  0.079260  0.061477  0.388367  1
  O  O12  1  0.179063  0.090521  0.351210  1
  O  O13  1  0.080227  0.181681  0.353931  1
  O  O14  1  0.003474  0.078563  0.241596  1
  O  O15  1  0.475856  0.233096  0.347420  1
  O  O16  1  0.493117  0.023376  0.490208  1
  O  O17  1  0.063301  0.079971  0.313911  1
  O  O18  1  0.123097  0.513833  0.360076  1
  O  O19  1  0.019473  0.379093  0.342678  1
  O  O20  1  0.011373  0.520210  0.276437  1
  O  O21  1  0.089108  0.557764  0.428672  1
  O  O22  1  0.134988  0.408874  0.316283  1
  O  O23  1  0.058334  0.632953  0.296833  1
  O  O24  1  0.104490  0.635411  0.368173  1
  O  O25  1  0.031635  0.399523  0.269958  1
  O  O26  1  0.133124  0.528343  0.287716  1
  O  O27  1  0.211998  0.572470  0.393902  1
  O  O28  1  0.070920  0.571439  0.223037  1
  O  O29  1  0.428069  0.428750  0.521784  1
  O  O30  1  0.320960  0.590498  0.351197  1
  O  O31  1  0.408730  0.499569  0.457099  1
  O  O32  1  0.319144  0.496103  0.397457  1
  O  O33  1  0.496081  0.579419  0.242295  1
  O  O34  1  0.233235  0.496709  0.336352  1
  O  O35  1  0.003355  0.522728  0.489734  1
  O  O36  1  0.420492  0.561416  0.388788  1
  O  O37  1  0.436492  0.579707  0.314493  1
  O  O38  1  0.440131  0.436356  0.397415  1
  O  O39  1  0.481931  0.877296  0.341389  1
  O  O40  1  0.364985  0.908261  0.316374  1
  O  O41  1  0.466993  0.898904  0.269333  1
  O  O42  1  0.428061  0.788809  0.307152  1
  O  O43  1  0.180556  0.996503  0.397830  1
  O  O44  1  0.420639  0.681258  0.352845  1
  O  O45  1  0.266421  0.996167  0.336610  1
  O  O46  1  0.024907  0.735021  0.347094  1
  O  O47  1  0.003956  0.976145  0.189955  1
  O  O48  1  0.060769  0.936754  0.397654  1
  O  O49  1  0.499435  0.679226  0.297017  1
  O  O50  1  0.089051  0.000000  0.457072  1
  O  O51  1  0.516521  0.122695  0.358950  1
  O  O52  1  0.631771  0.088345  0.384468  1
  O  O53  1  0.530252  0.103045  0.431205  1
  O  O54  1  0.573179  0.210522  0.393392  1
  O  O55  1  0.927801  0.072409  0.177451  1
  O  O56  1  0.501763  0.319961  0.403318  1
  O  O57  1  0.910149  0.001235  0.242593  1
  O  O58  1  0.818626  0.003561  0.302391  1
  O  O59  1  0.578981  0.318248  0.347554  1
  O  O60  1  0.734129  0.004162  0.364061  1
  O  O61  1  0.977450  0.265493  0.353509  1
  O  O62  1  0.937918  0.064356  0.302847  1
  O  O63  1  0.987173  0.482421  0.422683  1
  O  O64  1  0.876481  0.485814  0.339408  1
  O  O65  1  0.983123  0.623694  0.358386  1
  O  O66  1  0.942704  0.368546  0.402861  1
  O  O67  1  0.910436  0.443372  0.270509  1
  O  O68  1  0.867729  0.589780  0.383494  1
  O  O69  1  0.865327  0.470786  0.411795  1
  O  O70  1  0.898322  0.365097  0.330871  1
  O  O71  1  0.968480  0.603131  0.430227  1
  O  O72  1  0.928605  0.428248  0.476673  1
  O  O73  1  0.788519  0.427001  0.306269  1
  O  O74  1  0.589058  0.501814  0.243122  1
  O  O75  1  0.679283  0.409728  0.349085  1
  O  O76  1  0.681063  0.503953  0.302552  1
  O  O77  1  0.504003  0.420732  0.457483  1
  O  O78  1  0.765892  0.504545  0.363916  1
  O  O79  1  0.994921  0.476422  0.209107  1
  O  O80  1  0.503179  0.522879  0.508686  1
  O  O81  1  0.565532  0.420773  0.386753  1
  O  O82  1  0.561859  0.565226  0.303483  1
  O  O83  1  0.578680  0.439955  0.312298  1
  O  O84  1  0.623532  0.985033  0.339704  1
  O  O85  1  0.514447  0.982272  0.423517  1
  O  O86  1  0.589137  0.941876  0.271001  1
  O  O87  1  0.557176  0.867624  0.403057  1
  O  O88  1  0.603259  0.864195  0.331640  1
  O  O89  1  0.635488  0.968558  0.411836  1
  O  O90  1  0.711558  0.926564  0.306395  1
  O  O91  1  0.928754  0.711922  0.392488  1
  O  O92  1  0.570489  0.927926  0.476277  1
  O  O93  1  0.821149  0.909728  0.349142  1
  O  O94  1  0.000000  0.821395  0.403337  1
  O  O95  1  0.995727  0.920859  0.457923  1
  O  O96  1  0.921978  0.819446  0.347233  1
  O  O97  1  0.505170  0.977070  0.209514  1
  O  O98  1  0.523093  0.765829  0.353135  1
  O  O99  1  0.920917  0.939483  0.311840  1
  O  O100  1  0.936079  0.920489  0.386335  1
  Si  Si101  1  0.428049  0.068203  0.270493  1
  Si  Si102  1  0.366142  0.071745  0.391452  1
  Si  Si103  1  0.032711  0.227799  0.329069  1
  Si  Si104  1  0.229567  0.038199  0.370242  1
  Si  Si105  1  0.453421  0.159340  0.340349  1
  Si  Si106  1  0.483075  0.044645  0.445935  1
  Si  Si107  1  0.101497  0.106991  0.352097  1
  Si  Si108  1  0.001774  0.100712  0.286822  1
  Si  Si109  1  0.133893  0.573013  0.391112  1
  Si  Si110  1  0.070276  0.368778  0.307477  1
  Si  Si111  1  0.071830  0.569295  0.270404  1
  Si  Si112  1  0.270254  0.538496  0.370040  1
  Si  Si113  1  0.461437  0.467690  0.485668  1
  Si  Si114  1  0.016151  0.544987  0.445031  1
  Si  Si115  1  0.158958  0.481399  0.322359  1
  Si  Si116  1  0.046264  0.660886  0.340124  1
  Si  Si117  1  0.394856  0.496792  0.411418  1
  Si  Si118  1  0.497856  0.601726  0.287703  1
  Si  Si119  1  0.398106  0.605994  0.352494  1
  Si  Si120  1  0.428802  0.868089  0.306442  1
  Si  Si121  1  0.467691  0.729679  0.328142  1
  Si  Si122  1  0.340673  0.980686  0.322556  1
  Si  Si123  1  0.105082  0.997521  0.411183  1
  Si  Si124  1  0.568816  0.132660  0.394043  1
  Si  Si125  1  0.532707  0.267820  0.372287  1
  Si  Si126  1  0.962038  0.032478  0.212111  1
  Si  Si127  1  0.660202  0.016138  0.377328  1
  Si  Si128  1  0.894826  0.003626  0.288820  1
  Si  Si129  1  0.927866  0.432203  0.429483  1
  Si  Si130  1  0.866616  0.426963  0.308291  1
  Si  Si131  1  0.930661  0.633314  0.393239  1
  Si  Si132  1  0.730901  0.462169  0.330395  1
  Si  Si133  1  0.957218  0.340383  0.359383  1
  Si  Si134  1  0.983331  0.457236  0.253809  1
  Si  Si135  1  0.839825  0.517313  0.376903  1
  Si  Si136  1  0.601406  0.394246  0.348400  1
  Si  Si137  1  0.604701  0.504338  0.289450  1
  Si  Si138  1  0.504606  0.397599  0.412462  1
  Si  Si139  1  0.633506  0.926038  0.308671  1
  Si  Si140  1  0.573319  0.930253  0.429177  1
  Si  Si141  1  0.769065  0.961819  0.330517  1
  Si  Si142  1  0.969080  0.770799  0.371905  1
  Si  Si143  1  0.516383  0.956164  0.254118  1
  Si  Si144  1  0.544901  0.839913  0.359897  1
  Si  Si145  1  0.996920  0.898342  0.412927  1
  Si  Si146  1  0.898670  0.894561  0.348048  1
  H  H147  1  0.428982  0.071286  0.196266  1
  H  H148  1  0.493117  0.023376  0.517277  1
  H  H149  1  0.070920  0.571439  0.195968  1
  H  H150  1  0.428069  0.428750  0.548853  1
  H  H151  1  0.496081  0.579419  0.215227  1
  H  H152  1  0.003355  0.522728  0.516803  1
  H  H153  1  0.003956  0.976145  0.162887  1
  H  H154  1  0.089051  0.000000  0.484140  1
  H  H155  1  0.927801  0.072409  0.150382  1
  H  H156  1  0.928605  0.428248  0.503742  1
  H  H157  1  0.589058  0.501814  0.216053  1
  H  H158  1  0.994921  0.476422  0.182038  1
  H  H159  1  0.503179  0.522879  0.535754  1
  H  H160  1  0.570489  0.927926  0.503345  1
  H  H161  1  0.995727  0.920859  0.484992  1
  H  H162  1  0.505170  0.977070  0.182445  1
