# generated using pymatgen
data_Si119(H4O121)2
_symmetry_space_group_name_H-M   'P 1'
_cell_length_a   19.80640796
_cell_length_b   19.84885801
_cell_length_c   72.97625249
_cell_angle_alpha   90.00000000
_cell_angle_beta   90.00000000
_cell_angle_gamma   90.00000000
_symmetry_Int_Tables_number   1
_chemical_formula_structural   Si119(H4O121)2
_chemical_formula_sum   'Si238 H16 O484'
_cell_volume   28689.488321
_cell_formula_units_Z   2
loop_
 _symmetry_equiv_pos_site_id
 _symmetry_equiv_pos_as_xyz
  1  'x, y, z'
loop_
 _atom_site_type_symbol
 _atom_site_label
 _atom_site_symmetry_multiplicity
 _atom_site_fract_x
 _atom_site_fract_y
 _atom_site_fract_z
 _atom_site_occupancy
  O  O1  1  0.488365  0.019083  0.126129  1
  O  O2  1  0.376780  0.012727  0.164164  1
  O  O3  1  0.017550  0.121031  0.292092  1
  O  O4  1  0.441599  0.131633  0.135344  1
  O  O5  1  0.410663  0.056350  0.195453  1
  O  O6  1  0.131733  0.089078  0.279758  1
  O  O7  1  0.366582  0.027576  0.131152  1
  O  O8  1  0.395373  0.134140  0.167883  1
  O  O9  1  0.028745  0.103311  0.258900  1
  O  O10  1  0.071415  0.288580  0.140330  1
  O  O11  1  0.428982  0.071286  0.101753  1
  O  O12  1  0.288023  0.071751  0.179566  1
  O  O13  1  0.073358  0.211676  0.275920  1
  O  O14  1  0.000000  0.177987  0.135394  1
  O  O15  1  0.079260  0.061477  0.176943  1
  O  O16  1  0.179063  0.090521  0.160014  1
  O  O17  1  0.002899  0.320810  0.271189  1
  O  O18  1  0.080227  0.181681  0.161254  1
  O  O19  1  0.003474  0.078563  0.110073  1
  O  O20  1  0.475856  0.233096  0.158287  1
  O  O21  1  0.234460  0.004667  0.289421  1
  O  O22  1  0.475962  0.266302  0.294049  1
  O  O23  1  0.493117  0.023376  0.223343  1
  O  O24  1  0.063301  0.079971  0.143020  1
  O  O25  1  0.123097  0.513833  0.164054  1
  O  O26  1  0.019473  0.379093  0.156127  1
  O  O27  1  0.482526  0.624425  0.291684  1
  O  O28  1  0.011373  0.520210  0.125947  1
  O  O29  1  0.486732  0.482665  0.262339  1
  O  O30  1  0.089108  0.557764  0.195307  1
  O  O31  1  0.134988  0.408874  0.144101  1
  O  O32  1  0.367243  0.590113  0.280188  1
  O  O33  1  0.058334  0.632953  0.135239  1
  O  O34  1  0.441855  0.368640  0.271201  1
  O  O35  1  0.104490  0.635411  0.167743  1
  O  O36  1  0.031635  0.399523  0.122995  1
  O  O37  1  0.468287  0.603481  0.258851  1
  O  O38  1  0.133124  0.528343  0.131086  1
  O  O39  1  0.364837  0.471134  0.267269  1
  O  O40  1  0.211998  0.572470  0.179465  1
  O  O41  1  0.070920  0.571439  0.101618  1
  O  O42  1  0.428069  0.428750  0.237729  1
  O  O43  1  0.320960  0.590498  0.160008  1
  O  O44  1  0.408730  0.499569  0.208258  1
  O  O45  1  0.319144  0.496103  0.181085  1
  O  O46  1  0.004720  0.421025  0.246498  1
  O  O47  1  0.496081  0.579419  0.110392  1
  O  O48  1  0.265506  0.505486  0.289214  1
  O  O49  1  0.233235  0.496709  0.153245  1
  O  O50  1  0.003355  0.522728  0.223127  1
  O  O51  1  0.420492  0.561416  0.177135  1
  O  O52  1  0.436492  0.579707  0.143286  1
  O  O53  1  0.065872  0.421971  0.278829  1
  O  O54  1  0.440131  0.436356  0.181066  1
  O  O55  1  0.014024  0.981733  0.262063  1
  O  O56  1  0.481931  0.877296  0.155540  1
  O  O57  1  0.057995  0.865587  0.270535  1
  O  O58  1  0.364985  0.908261  0.144143  1
  O  O59  1  0.135096  0.968640  0.267815  1
  O  O60  1  0.466993  0.898904  0.122710  1
  O  O61  1  0.426779  0.712009  0.275642  1
  O  O62  1  0.071882  0.928572  0.238020  1
  O  O63  1  0.428061  0.788809  0.139941  1
  O  O64  1  0.498379  0.821053  0.270582  1
  O  O65  1  0.180556  0.996503  0.181255  1
  O  O66  1  0.420639  0.681258  0.160759  1
  O  O67  1  0.492397  0.919875  0.245755  1
  O  O68  1  0.022996  0.767063  0.294202  1
  O  O69  1  0.266421  0.996167  0.153362  1
  O  O70  1  0.024907  0.735021  0.158139  1
  O  O71  1  0.003956  0.976145  0.086545  1
  O  O72  1  0.435189  0.920436  0.278515  1
  O  O73  1  0.060769  0.936754  0.181175  1
  O  O74  1  0.499435  0.679226  0.135323  1
  O  O75  1  0.089051  0.000000  0.208246  1
  O  O76  1  0.876143  0.013489  0.290874  1
  O  O77  1  0.516521  0.122695  0.163541  1
  O  O78  1  0.909933  0.055621  0.259485  1
  O  O79  1  0.631771  0.088345  0.175167  1
  O  O80  1  0.896637  0.133947  0.286997  1
  O  O81  1  0.530252  0.103045  0.196461  1
  O  O82  1  0.788133  0.071754  0.275608  1
  O  O83  1  0.573179  0.210522  0.179233  1
  O  O84  1  0.927801  0.072409  0.080848  1
  O  O85  1  0.679507  0.089458  0.295202  1
  O  O86  1  0.501763  0.319961  0.183755  1
  O  O87  1  0.910149  0.001235  0.110527  1
  O  O88  1  0.818626  0.003561  0.137772  1
  O  O89  1  0.578981  0.318248  0.158349  1
  O  O90  1  0.579200  0.181291  0.294438  1
  O  O91  1  0.734129  0.004162  0.165869  1
  O  O92  1  0.977450  0.265493  0.161062  1
  O  O93  1  0.994516  0.023198  0.231747  1
  O  O94  1  0.578933  0.060487  0.278362  1
  O  O95  1  0.937918  0.064356  0.137980  1
  O  O96  1  0.987173  0.482421  0.192578  1
  O  O97  1  0.621466  0.513056  0.290630  1
  O  O98  1  0.876481  0.485814  0.154637  1
  O  O99  1  0.983123  0.623694  0.163284  1
  O  O100  1  0.942704  0.368546  0.183547  1
  O  O101  1  0.588664  0.558089  0.259672  1
  O  O102  1  0.910436  0.443372  0.123246  1
  O  O103  1  0.867729  0.589780  0.174723  1
  O  O104  1  0.865327  0.470786  0.187617  1
  O  O105  1  0.604039  0.634929  0.287505  1
  O  O106  1  0.898322  0.365097  0.150748  1
  O  O107  1  0.968480  0.603131  0.196015  1
  O  O108  1  0.928605  0.428248  0.217176  1
  O  O109  1  0.712291  0.571072  0.275913  1
  O  O110  1  0.788519  0.427001  0.139539  1
  O  O111  1  0.908922  0.499262  0.246576  1
  O  O112  1  0.589058  0.501814  0.110769  1
  O  O113  1  0.821542  0.590044  0.294933  1
  O  O114  1  0.679283  0.409728  0.159046  1
  O  O115  1  0.819991  0.495569  0.273883  1
  O  O116  1  0.681063  0.503953  0.137845  1
  O  O117  1  0.504003  0.420732  0.208433  1
  O  O118  1  0.765892  0.504545  0.165803  1
  O  O119  1  0.994921  0.476422  0.095271  1
  O  O120  1  0.503179  0.522879  0.231761  1
  O  O121  1  0.565532  0.420773  0.176208  1
  O  O122  1  0.940763  0.436532  0.273818  1
  O  O123  1  0.561859  0.565226  0.138269  1
  O  O124  1  0.920873  0.561424  0.277694  1
  O  O125  1  0.578680  0.439955  0.142286  1
  O  O126  1  0.623532  0.985033  0.154772  1
  O  O127  1  0.514447  0.982272  0.192958  1
  O  O128  1  0.589137  0.941876  0.123471  1
  O  O129  1  0.557176  0.867624  0.183636  1
  O  O130  1  0.603259  0.864195  0.151098  1
  O  O131  1  0.635488  0.968558  0.187636  1
  O  O132  1  0.711558  0.926564  0.139596  1
  O  O133  1  0.928754  0.711922  0.178821  1
  O  O134  1  0.570489  0.927926  0.216996  1
  O  O135  1  0.821149  0.909728  0.159072  1
  O  O136  1  -0.000000  0.821395  0.183764  1
  O  O137  1  0.560146  0.936104  0.273387  1
  O  O138  1  0.587515  0.000000  0.246903  1
  O  O139  1  0.680663  0.995750  0.273853  1
  O  O140  1  0.920567  0.681292  0.294020  1
  O  O141  1  0.995727  0.920859  0.208634  1
  O  O142  1  0.921978  0.819446  0.158202  1
  O  O143  1  0.505170  0.977070  0.095456  1
  O  O144  1  0.523093  0.765829  0.160891  1
  O  O145  1  0.920917  0.939483  0.142077  1
  O  O146  1  0.936079  0.920489  0.176017  1
  O  O147  1  0.488365  0.019083  0.398325  1
  O  O148  1  0.376780  0.012727  0.436360  1
  O  O149  1  0.017550  0.121031  0.564288  1
  O  O150  1  0.441599  0.131633  0.407540  1
  O  O151  1  0.410663  0.056350  0.467648  1
  O  O152  1  0.131733  0.089078  0.551954  1
  O  O153  1  0.366582  0.027576  0.403348  1
  O  O154  1  0.395373  0.134140  0.440079  1
  O  O155  1  0.028745  0.103311  0.531096  1
  O  O156  1  0.071415  0.288580  0.412526  1
  O  O157  1  0.428982  0.071286  0.373949  1
  O  O158  1  0.288023  0.071751  0.451762  1
  O  O159  1  0.073358  0.211676  0.548115  1
  O  O160  1  -0.000000  0.177987  0.407590  1
  O  O161  1  0.410859  0.000000  0.344050  1
  O  O162  1  0.079260  0.061477  0.449139  1
  O  O163  1  0.179063  0.090521  0.432210  1
  O  O164  1  0.002899  0.320810  0.543385  1
  O  O165  1  0.080227  0.181681  0.433450  1
  O  O166  1  0.319438  0.005705  0.317219  1
  O  O167  1  0.079806  0.319337  0.296592  1
  O  O168  1  0.003474  0.078563  0.382269  1
  O  O169  1  0.475856  0.233096  0.430483  1
  O  O170  1  0.234460  0.004667  0.561617  1
  O  O171  1  0.475962  0.266302  0.566244  1
  O  O172  1  0.493117  0.023376  0.495539  1
  O  O173  1  0.063301  0.079971  0.415216  1
  O  O174  1  0.440007  0.063623  0.316948  1
  O  O175  1  0.376151  0.485809  0.300205  1
  O  O176  1  0.123097  0.513833  0.436249  1
  O  O177  1  0.019473  0.379093  0.428323  1
  O  O178  1  0.482526  0.624425  0.563880  1
  O  O179  1  0.011373  0.520210  0.398143  1
  O  O180  1  0.486732  0.482665  0.534535  1
  O  O181  1  0.410616  0.442151  0.331424  1
  O  O182  1  0.089108  0.557764  0.467502  1
  O  O183  1  0.134988  0.408874  0.416297  1
  O  O184  1  0.367243  0.590113  0.552384  1
  O  O185  1  0.058334  0.632953  0.407435  1
  O  O186  1  0.441855  0.368640  0.543397  1
  O  O187  1  0.395408  0.364619  0.303732  1
  O  O188  1  0.104490  0.635411  0.439939  1
  O  O189  1  0.031635  0.399523  0.395191  1
  O  O190  1  0.468287  0.603481  0.531047  1
  O  O191  1  0.133124  0.528343  0.403282  1
  O  O192  1  0.364837  0.471134  0.539465  1
  O  O193  1  0.288032  0.427907  0.315481  1
  O  O194  1  0.211998  0.572470  0.451661  1
  O  O195  1  0.070920  0.571439  0.373813  1
  O  O196  1  0.428069  0.428750  0.509925  1
  O  O197  1  0.179282  0.410940  0.295942  1
  O  O198  1  0.320960  0.590498  0.432204  1
  O  O199  1  0.090464  0.499677  0.344371  1
  O  O200  1  0.408730  0.499569  0.480454  1
  O  O201  1  0.180708  0.504674  0.317320  1
  O  O202  1  0.319144  0.496103  0.453280  1
  O  O203  1  0.004720  0.421025  0.518694  1
  O  O204  1  0.496081  0.579419  0.382588  1
  O  O205  1  0.265506  0.505486  0.561410  1
  O  O206  1  0.233235  0.496709  0.425441  1
  O  O207  1  0.003355  0.522728  0.495323  1
  O  O208  1  0.495089  0.477184  0.359232  1
  O  O209  1  0.078884  0.440210  0.312878  1
  O  O210  1  0.420492  0.561416  0.449331  1
  O  O211  1  0.436492  0.579707  0.415482  1
  O  O212  1  0.065872  0.421971  0.551025  1
  O  O213  1  0.060593  0.565142  0.317307  1
  O  O214  1  0.440131  0.436356  0.453262  1
  O  O215  1  0.014024  0.981733  0.534258  1
  O  O216  1  0.123196  0.987317  0.300528  1
  O  O217  1  0.481931  0.877296  0.427736  1
  O  O218  1  0.057995  0.865587  0.542731  1
  O  O219  1  0.091579  0.942269  0.331962  1
  O  O220  1  0.364985  0.908261  0.416338  1
  O  O221  1  0.135096  0.968640  0.540010  1
  O  O222  1  0.103263  0.866736  0.303529  1
  O  O223  1  0.466993  0.898904  0.394906  1
  O  O224  1  0.426779  0.712009  0.547838  1
  O  O225  1  0.071882  0.928572  0.510216  1
  O  O226  1  0.212423  0.928824  0.315230  1
  O  O227  1  0.428061  0.788809  0.412137  1
  O  O228  1  0.498379  0.821053  0.542778  1
  O  O229  1  0.320470  0.909510  0.295528  1
  O  O230  1  0.420540  0.819054  0.296316  1
  O  O231  1  0.180556  0.996503  0.453450  1
  O  O232  1  0.420639  0.681258  0.432955  1
  O  O233  1  0.492397  0.919875  0.517951  1
  O  O234  1  0.022996  0.767063  0.566398  1
  O  O235  1  0.266421  0.996167  0.425558  1
  O  O236  1  0.024907  0.735021  0.430335  1
  O  O237  1  0.003956  0.976145  0.358741  1
  O  O238  1  0.435189  0.920436  0.550711  1
  O  O239  1  0.060769  0.936754  0.453370  1
  O  O240  1  0.419553  0.939160  0.312589  1
  O  O241  1  0.499435  0.679226  0.407519  1
  O  O242  1  0.089051  0.000000  0.480441  1
  O  O243  1  0.876143  0.013489  0.563069  1
  O  O244  1  0.516521  0.122695  0.435737  1
  O  O245  1  0.986580  0.015965  0.328863  1
  O  O246  1  0.909933  0.055621  0.531681  1
  O  O247  1  0.631771  0.088345  0.447363  1
  O  O248  1  0.942219  0.130916  0.319726  1
  O  O249  1  0.896637  0.133947  0.559193  1
  O  O250  1  0.530252  0.103045  0.468656  1
  O  O251  1  0.864819  0.029410  0.323842  1
  O  O252  1  0.788133  0.071754  0.547804  1
  O  O253  1  0.573179  0.210522  0.451429  1
  O  O254  1  0.572920  0.288811  0.315161  1
  O  O255  1  0.927801  0.072409  0.353044  1
  O  O256  1  0.679507  0.089458  0.567398  1
  O  O257  1  0.501763  0.319961  0.455951  1
  O  O258  1  0.501429  0.179618  0.319727  1
  O  O259  1  0.910149  0.001235  0.382723  1
  O  O260  1  0.818626  0.003561  0.409967  1
  O  O261  1  0.578981  0.318248  0.430544  1
  O  O262  1  0.504618  0.079483  0.344609  1
  O  O263  1  0.579200  0.181291  0.566633  1
  O  O264  1  0.734129  0.004162  0.438065  1
  O  O265  1  0.977450  0.265493  0.433257  1
  O  O266  1  0.994516  0.023198  0.503943  1
  O  O267  1  0.978131  0.232610  0.296471  1
  O  O268  1  0.578933  0.060487  0.550557  1
  O  O269  1  0.565391  0.078799  0.312302  1
  O  O270  1  0.937918  0.064356  0.410175  1
  O  O271  1  0.987173  0.482421  0.464774  1
  O  O272  1  0.511619  0.518715  0.328792  1
  O  O273  1  0.621466  0.513056  0.562826  1
  O  O274  1  0.876481  0.485814  0.426833  1
  O  O275  1  0.983123  0.623694  0.435480  1
  O  O276  1  0.516644  0.376654  0.299357  1
  O  O277  1  0.942704  0.368546  0.455743  1
  O  O278  1  0.556634  0.632769  0.319893  1
  O  O279  1  0.588664  0.558089  0.531867  1
  O  O280  1  0.910436  0.443372  0.395442  1
  O  O281  1  0.867729  0.589780  0.446919  1
  O  O282  1  0.632253  0.410766  0.310845  1
  O  O283  1  0.865327  0.470786  0.459813  1
  O  O284  1  0.633561  0.530166  0.323568  1
  O  O285  1  0.604039  0.634929  0.559701  1
  O  O286  1  0.898322  0.365097  0.422944  1
  O  O287  1  0.968480  0.603131  0.468211  1
  O  O288  1  0.531433  0.397566  0.332178  1
  O  O289  1  0.928605  0.428248  0.489372  1
  O  O290  1  0.571664  0.572973  0.353178  1
  O  O291  1  0.712291  0.571072  0.548109  1
  O  O292  1  0.788519  0.427001  0.411735  1
  O  O293  1  0.908922  0.499262  0.518771  1
  O  O294  1  0.589058  0.501814  0.382964  1
  O  O295  1  0.821542  0.590044  0.567129  1
  O  O296  1  0.679283  0.409728  0.431242  1
  O  O297  1  0.819991  0.495569  0.546079  1
  O  O298  1  0.681063  0.503953  0.410041  1
  O  O299  1  0.995211  0.578809  0.344277  1
  O  O300  1  0.504003  0.420732  0.480629  1
  O  O301  1  0.734178  0.496610  0.301534  1
  O  O302  1  0.765892  0.504545  0.437999  1
  O  O303  1  0.994921  0.476422  0.367467  1
  O  O304  1  0.503179  0.522879  0.503957  1
  O  O305  1  0.565532  0.420773  0.448404  1
  O  O306  1  0.936154  0.580000  0.311560  1
  O  O307  1  0.940763  0.436532  0.546014  1
  O  O308  1  0.561859  0.565226  0.410465  1
  O  O309  1  0.920873  0.561424  0.549890  1
  O  O310  1  0.578680  0.439955  0.414482  1
  O  O311  1  0.623532  0.985033  0.426968  1
  O  O312  1  0.982407  0.876915  0.298569  1
  O  O313  1  0.514447  0.982272  0.465154  1
  O  O314  1  0.589137  0.941876  0.395666  1
  O  O315  1  0.867686  0.910299  0.311050  1
  O  O316  1  0.557176  0.867624  0.455832  1
  O  O317  1  0.603259  0.864195  0.423294  1
  O  O318  1  0.971631  0.894671  0.331532  1
  O  O319  1  0.635488  0.968558  0.459832  1
  O  O320  1  0.711558  0.926564  0.411792  1
  O  O321  1  0.926139  0.788124  0.314712  1
  O  O322  1  0.928754  0.711922  0.451017  1
  O  O323  1  0.570489  0.927926  0.489191  1
  O  O324  1  0.821149  0.909728  0.431268  1
  O  O325  1  0.997821  0.679975  0.319788  1
  O  O326  1  -0.000000  0.821395  0.455960  1
  O  O327  1  0.560146  0.936104  0.545583  1
  O  O328  1  0.587515  0.000000  0.519099  1
  O  O329  1  0.680663  0.995750  0.546048  1
  O  O330  1  0.920567  0.681292  0.566216  1
  O  O331  1  0.995727  0.920859  0.480829  1
  O  O332  1  0.921978  0.819446  0.430398  1
  O  O333  1  0.765544  0.994603  0.301988  1
  O  O334  1  0.524014  0.734788  0.296557  1
  O  O335  1  0.505170  0.977070  0.367652  1
  O  O336  1  0.523093  0.765829  0.433087  1
  O  O337  1  0.920917  0.939483  0.414273  1
  O  O338  1  0.936079  0.920489  0.448213  1
  O  O339  1  0.488365  0.019083  0.670521  1
  O  O340  1  0.376780  0.012727  0.708556  1
  O  O341  1  0.441599  0.131633  0.679736  1
  O  O342  1  0.410663  0.056350  0.739844  1
  O  O343  1  0.366582  0.027576  0.675544  1
  O  O344  1  0.395373  0.134140  0.712275  1
  O  O345  1  0.071415  0.288580  0.684721  1
  O  O346  1  0.428982  0.071286  0.646145  1
  O  O347  1  0.288023  0.071751  0.723958  1
  O  O348  1  -0.000000  0.177987  0.679785  1
  O  O349  1  0.410859  0.000000  0.616246  1
  O  O350  1  0.079260  0.061477  0.721335  1
  O  O351  1  0.179063  0.090521  0.704406  1
  O  O352  1  0.080227  0.181681  0.705645  1
  O  O353  1  0.319438  0.005705  0.589414  1
  O  O354  1  0.079806  0.319337  0.568787  1
  O  O355  1  0.003474  0.078563  0.654465  1
  O  O356  1  0.475856  0.233096  0.702679  1
  O  O357  1  0.493117  0.023376  0.767735  1
  O  O358  1  0.063301  0.079971  0.687412  1
  O  O359  1  0.440007  0.063623  0.589144  1
  O  O360  1  0.376151  0.485809  0.572401  1
  O  O361  1  0.123097  0.513833  0.708445  1
  O  O362  1  0.019473  0.379093  0.700519  1
  O  O363  1  0.011373  0.520210  0.670339  1
  O  O364  1  0.410616  0.442151  0.603620  1
  O  O365  1  0.089108  0.557764  0.739698  1
  O  O366  1  0.134988  0.408874  0.688493  1
  O  O367  1  0.058334  0.632953  0.679631  1
  O  O368  1  0.395408  0.364619  0.575928  1
  O  O369  1  0.104490  0.635411  0.712134  1
  O  O370  1  0.031635  0.399523  0.667387  1
  O  O371  1  0.133124  0.528343  0.675478  1
  O  O372  1  0.288032  0.427907  0.587676  1
  O  O373  1  0.211998  0.572470  0.723857  1
  O  O374  1  0.070920  0.571439  0.646009  1
  O  O375  1  0.428069  0.428750  0.782121  1
  O  O376  1  0.179282  0.410940  0.568138  1
  O  O377  1  0.320960  0.590498  0.704400  1
  O  O378  1  0.090464  0.499677  0.616567  1
  O  O379  1  0.408730  0.499569  0.752650  1
  O  O380  1  0.180708  0.504674  0.589516  1
  O  O381  1  0.319144  0.496103  0.725476  1
  O  O382  1  0.496081  0.579419  0.654783  1
  O  O383  1  0.233235  0.496709  0.697637  1
  O  O384  1  0.003355  0.522728  0.767518  1
  O  O385  1  0.495089  0.477184  0.631428  1
  O  O386  1  0.078884  0.440210  0.585073  1
  O  O387  1  0.420492  0.561416  0.721527  1
  O  O388  1  0.436492  0.579707  0.687677  1
  O  O389  1  0.060593  0.565142  0.589503  1
  O  O390  1  0.440131  0.436356  0.725457  1
  O  O391  1  0.123196  0.987317  0.572724  1
  O  O392  1  0.481931  0.877296  0.699931  1
  O  O393  1  0.091579  0.942269  0.604158  1
  O  O394  1  0.364985  0.908261  0.688534  1
  O  O395  1  0.103263  0.866736  0.575725  1
  O  O396  1  0.466993  0.898904  0.667102  1
  O  O397  1  0.212423  0.928824  0.587426  1
  O  O398  1  0.428061  0.788809  0.684333  1
  O  O399  1  0.320470  0.909510  0.567723  1
  O  O400  1  0.420540  0.819054  0.568512  1
  O  O401  1  0.180556  0.996503  0.725646  1
  O  O402  1  0.420639  0.681258  0.705151  1
  O  O403  1  0.266421  0.996167  0.697754  1
  O  O404  1  0.024907  0.735021  0.702530  1
  O  O405  1  0.003956  0.976145  0.630937  1
  O  O406  1  0.060769  0.936754  0.725566  1
  O  O407  1  0.419553  0.939160  0.584785  1
  O  O408  1  0.499435  0.679226  0.679715  1
  O  O409  1  0.089051  0.000000  0.752637  1
  O  O410  1  0.516521  0.122695  0.707932  1
  O  O411  1  0.986580  0.015965  0.601059  1
  O  O412  1  0.631771  0.088345  0.719559  1
  O  O413  1  0.942219  0.130916  0.591922  1
  O  O414  1  0.530252  0.103045  0.740852  1
  O  O415  1  0.864819  0.029410  0.596038  1
  O  O416  1  0.573179  0.210522  0.723624  1
  O  O417  1  0.572920  0.288811  0.587357  1
  O  O418  1  0.927801  0.072409  0.625240  1
  O  O419  1  0.501763  0.319961  0.728147  1
  O  O420  1  0.501429  0.179618  0.591923  1
  O  O421  1  0.910149  0.001235  0.654919  1
  O  O422  1  0.818626  0.003561  0.682163  1
  O  O423  1  0.578981  0.318248  0.702740  1
  O  O424  1  0.504618  0.079483  0.616805  1
  O  O425  1  0.734129  0.004162  0.710261  1
  O  O426  1  0.977450  0.265493  0.705453  1
  O  O427  1  0.978131  0.232610  0.568667  1
  O  O428  1  0.565391  0.078799  0.584498  1
  O  O429  1  0.937918  0.064356  0.682371  1
  O  O430  1  0.987173  0.482421  0.736969  1
  O  O431  1  0.511619  0.518715  0.600988  1
  O  O432  1  0.876481  0.485814  0.699029  1
  O  O433  1  0.983123  0.623694  0.707675  1
  O  O434  1  0.516644  0.376654  0.571553  1
  O  O435  1  0.942704  0.368546  0.727938  1
  O  O436  1  0.556634  0.632769  0.592089  1
  O  O437  1  0.910436  0.443372  0.667638  1
  O  O438  1  0.867729  0.589780  0.719115  1
  O  O439  1  0.632253  0.410766  0.583041  1
  O  O440  1  0.865327  0.470786  0.732009  1
  O  O441  1  0.633561  0.530166  0.595763  1
  O  O442  1  0.898322  0.365097  0.695139  1
  O  O443  1  0.968480  0.603131  0.740407  1
  O  O444  1  0.531433  0.397566  0.604374  1
  O  O445  1  0.928605  0.428248  0.761568  1
  O  O446  1  0.571664  0.572973  0.625373  1
  O  O447  1  0.788519  0.427001  0.683930  1
  O  O448  1  0.589058  0.501814  0.655160  1
  O  O449  1  0.679283  0.409728  0.703438  1
  O  O450  1  0.681063  0.503953  0.682237  1
  O  O451  1  0.995211  0.578809  0.616473  1
  O  O452  1  0.504003  0.420732  0.752825  1
  O  O453  1  0.734178  0.496610  0.573730  1
  O  O454  1  0.765892  0.504545  0.710195  1
  O  O455  1  0.994921  0.476422  0.639663  1
  O  O456  1  0.503179  0.522879  0.776153  1
  O  O457  1  0.565532  0.420773  0.720599  1
  O  O458  1  0.936154  0.580000  0.583756  1
  O  O459  1  0.561859  0.565226  0.682661  1
  O  O460  1  0.578680  0.439955  0.686677  1
  O  O461  1  0.623532  0.985033  0.699164  1
  O  O462  1  0.982407  0.876915  0.570765  1
  O  O463  1  0.514447  0.982272  0.737350  1
  O  O464  1  0.589137  0.941876  0.667862  1
  O  O465  1  0.867686  0.910299  0.583246  1
  O  O466  1  0.557176  0.867624  0.728028  1
  O  O467  1  0.603259  0.864195  0.695489  1
  O  O468  1  0.971631  0.894671  0.603728  1
  O  O469  1  0.635488  0.968558  0.732028  1
  O  O470  1  0.711558  0.926564  0.683988  1
  O  O471  1  0.926139  0.788124  0.586908  1
  O  O472  1  0.928754  0.711922  0.723213  1
  O  O473  1  0.570489  0.927926  0.761387  1
  O  O474  1  0.821149  0.909728  0.703464  1
  O  O475  1  0.997821  0.679975  0.591983  1
  O  O476  1  -0.000000  0.821395  0.728155  1
  O  O477  1  0.995727  0.920859  0.753025  1
  O  O478  1  0.921978  0.819446  0.702594  1
  O  O479  1  0.765544  0.994603  0.574183  1
  O  O480  1  0.524014  0.734788  0.568753  1
  O  O481  1  0.505170  0.977070  0.639848  1
  O  O482  1  0.523093  0.765829  0.705283  1
  O  O483  1  0.920917  0.939483  0.686469  1
  O  O484  1  0.936079  0.920489  0.720409  1
  Si  Si485  1  0.428049  0.068203  0.123239  1
  Si  Si486  1  0.366142  0.071745  0.178349  1
  Si  Si487  1  0.067517  0.133609  0.275963  1
  Si  Si488  1  0.032711  0.227799  0.149927  1
  Si  Si489  1  0.229567  0.038199  0.168686  1
  Si  Si490  1  0.034271  0.269904  0.285244  1
  Si  Si491  1  0.453421  0.159340  0.155066  1
  Si  Si492  1  0.483075  0.044645  0.203172  1
  Si  Si493  1  0.159852  0.017121  0.283254  1
  Si  Si494  1  0.101497  0.106991  0.160418  1
  Si  Si495  1  0.001774  0.100712  0.130679  1
  Si  Si496  1  0.133893  0.573013  0.178194  1
  Si  Si497  1  0.070276  0.368778  0.140089  1
  Si  Si498  1  0.430168  0.634106  0.275708  1
  Si  Si499  1  0.071830  0.569295  0.123198  1
  Si  Si500  1  0.427417  0.432479  0.259242  1
  Si  Si501  1  0.270254  0.538496  0.168593  1
  Si  Si502  1  0.461437  0.467690  0.221275  1
  Si  Si503  1  0.016151  0.544987  0.202760  1
  Si  Si504  1  0.158958  0.481399  0.146869  1
  Si  Si505  1  0.339402  0.517631  0.283180  1
  Si  Si506  1  0.046264  0.660886  0.154964  1
  Si  Si507  1  0.453586  0.340092  0.290856  1
  Si  Si508  1  0.394856  0.496792  0.187446  1
  Si  Si509  1  0.005531  0.398170  0.267030  1
  Si  Si510  1  0.497856  0.601726  0.131080  1
  Si  Si511  1  0.398106  0.605994  0.160599  1
  Si  Si512  1  0.073411  0.929446  0.259608  1
  Si  Si513  1  0.428802  0.868089  0.139617  1
  Si  Si514  1  0.467694  0.769597  0.285010  1
  Si  Si515  1  0.036698  0.968090  0.221895  1
  Si  Si516  1  0.467691  0.729679  0.149504  1
  Si  Si517  1  0.046569  0.841297  0.290154  1
  Si  Si518  1  0.340673  0.980686  0.146959  1
  Si  Si519  1  0.105082  0.997521  0.187338  1
  Si  Si520  1  0.496003  0.898568  0.266030  1
  Si  Si521  1  0.866118  0.072018  0.276609  1
  Si  Si522  1  0.568816  0.132660  0.179530  1
  Si  Si523  1  0.730750  0.036673  0.286654  1
  Si  Si524  1  0.532707  0.267820  0.169617  1
  Si  Si525  1  0.962038  0.032478  0.096640  1
  Si  Si526  1  0.982502  0.044410  0.251913  1
  Si  Si527  1  0.660202  0.016138  0.171914  1
  Si  Si528  1  0.894826  0.003626  0.131589  1
  Si  Si529  1  0.601690  0.105385  0.294912  1
  Si  Si530  1  0.927866  0.432203  0.195676  1
  Si  Si531  1  0.633193  0.572238  0.277007  1
  Si  Si532  1  0.866616  0.426963  0.140460  1
  Si  Si533  1  0.930661  0.633314  0.179163  1
  Si  Si534  1  0.961764  0.467417  0.233612  1
  Si  Si535  1  0.772165  0.537566  0.286473  1
  Si  Si536  1  0.730901  0.462169  0.150531  1
  Si  Si537  1  0.957218  0.340383  0.163738  1
  Si  Si538  1  0.515765  0.545142  0.252130  1
  Si  Si539  1  0.983331  0.457236  0.115638  1
  Si  Si540  1  0.839825  0.517313  0.171720  1
  Si  Si541  1  0.601406  0.394246  0.158734  1
  Si  Si542  1  0.898289  0.605975  0.294204  1
  Si  Si543  1  0.895325  0.496728  0.267393  1
  Si  Si544  1  0.604701  0.504338  0.131876  1
  Si  Si545  1  0.504606  0.397599  0.187921  1
  Si  Si546  1  0.633506  0.926038  0.140633  1
  Si  Si547  1  0.573319  0.930253  0.195537  1
  Si  Si548  1  0.769065  0.961819  0.150586  1
  Si  Si549  1  0.969080  0.770799  0.169443  1
  Si  Si550  1  0.534186  0.967326  0.233227  1
  Si  Si551  1  0.516383  0.956164  0.115778  1
  Si  Si552  1  0.544901  0.839913  0.163972  1
  Si  Si553  1  0.604984  0.997203  0.267787  1
  Si  Si554  1  0.996920  0.898342  0.188133  1
  Si  Si555  1  0.898670  0.894561  0.158574  1
  Si  Si556  1  0.428049  0.068203  0.395435  1
  Si  Si557  1  0.366142  0.071745  0.450545  1
  Si  Si558  1  0.067517  0.133609  0.548159  1
  Si  Si559  1  0.032711  0.227799  0.422122  1
  Si  Si560  1  0.463381  0.032168  0.357748  1
  Si  Si561  1  0.229567  0.038199  0.440881  1
  Si  Si562  1  0.034271  0.269904  0.557440  1
  Si  Si563  1  0.453421  0.159340  0.427261  1
  Si  Si564  1  0.483075  0.044645  0.475367  1
  Si  Si565  1  0.159852  0.017121  0.555450  1
  Si  Si566  1  0.101497  0.106991  0.432614  1
  Si  Si567  1  0.394114  0.003199  0.323057  1
  Si  Si568  1  0.001774  0.100712  0.402874  1
  Si  Si569  1  0.366028  0.426652  0.314286  1
  Si  Si570  1  0.133893  0.573013  0.450390  1
  Si  Si571  1  0.070276  0.368778  0.412285  1
  Si  Si572  1  0.430168  0.634106  0.547904  1
  Si  Si573  1  0.071830  0.569295  0.395394  1
  Si  Si574  1  0.427417  0.432479  0.531438  1
  Si  Si575  1  0.230566  0.463364  0.304529  1
  Si  Si576  1  0.270254  0.538496  0.440789  1
  Si  Si577  1  0.037151  0.531096  0.357412  1
  Si  Si578  1  0.461437  0.467690  0.493470  1
  Si  Si579  1  0.483554  0.455971  0.339002  1
  Si  Si580  1  0.016151  0.544987  0.474956  1
  Si  Si581  1  0.158958  0.481399  0.419065  1
  Si  Si582  1  0.339402  0.517631  0.555376  1
  Si  Si583  1  0.046264  0.660886  0.427159  1
  Si  Si584  1  0.453586  0.340092  0.563052  1
  Si  Si585  1  0.104712  0.503975  0.323611  1
  Si  Si586  1  0.394856  0.496792  0.459641  1
  Si  Si587  1  0.005531  0.398170  0.539226  1
  Si  Si588  1  0.497856  0.601726  0.403276  1
  Si  Si589  1  0.398106  0.605994  0.432795  1
  Si  Si590  1  0.101535  0.395217  0.296273  1
  Si  Si591  1  0.073411  0.929446  0.531804  1
  Si  Si592  1  0.132656  0.927859  0.314656  1
  Si  Si593  1  0.428802  0.868089  0.411813  1
  Si  Si594  1  0.467694  0.769597  0.557206  1
  Si  Si595  1  0.036698  0.968090  0.494091  1
  Si  Si596  1  0.273698  0.962795  0.304541  1
  Si  Si597  1  0.467691  0.729679  0.421700  1
  Si  Si598  1  0.046569  0.841297  0.562350  1
  Si  Si599  1  0.019007  0.952535  0.338531  1
  Si  Si600  1  0.340673  0.980686  0.419155  1
  Si  Si601  1  0.396869  0.894599  0.296034  1
  Si  Si602  1  0.105082  0.997521  0.459534  1
  Si  Si603  1  0.496003  0.898568  0.538226  1
  Si  Si604  1  0.866118  0.072018  0.548805  1
  Si  Si605  1  0.568816  0.132660  0.451725  1
  Si  Si606  1  0.927243  0.067893  0.331836  1
  Si  Si607  1  0.730750  0.036673  0.558849  1
  Si  Si608  1  0.532707  0.267820  0.441813  1
  Si  Si609  1  0.532368  0.231558  0.305545  1
  Si  Si610  1  0.962038  0.032478  0.368835  1
  Si  Si611  1  0.982502  0.044410  0.524109  1
  Si  Si612  1  0.660202  0.016138  0.444110  1
  Si  Si613  1  0.954955  0.158171  0.299951  1
  Si  Si614  1  0.894826  0.003626  0.403785  1
  Si  Si615  1  0.504456  0.102091  0.323997  1
  Si  Si616  1  0.601690  0.105385  0.567107  1
  Si  Si617  1  0.927866  0.432203  0.467872  1
  Si  Si618  1  0.570910  0.568656  0.331949  1
  Si  Si619  1  0.633193  0.572238  0.549203  1
  Si  Si620  1  0.866616  0.426963  0.412656  1
  Si  Si621  1  0.930661  0.633314  0.451359  1
  Si  Si622  1  0.569215  0.366669  0.315265  1
  Si  Si623  1  0.961764  0.467417  0.505807  1
  Si  Si624  1  0.537028  0.532974  0.368877  1
  Si  Si625  1  0.772165  0.537566  0.558669  1
  Si  Si626  1  0.730901  0.462169  0.422727  1
  Si  Si627  1  0.957218  0.340383  0.435934  1
  Si  Si628  1  0.545674  0.660993  0.300138  1
  Si  Si629  1  0.515765  0.545142  0.524326  1
  Si  Si630  1  0.983331  0.457236  0.387833  1
  Si  Si631  1  0.839825  0.517313  0.443916  1
  Si  Si632  1  0.659300  0.483734  0.307524  1
  Si  Si633  1  0.601406  0.394246  0.430930  1
  Si  Si634  1  0.898289  0.605975  0.566399  1
  Si  Si635  1  0.895325  0.496728  0.539589  1
  Si  Si636  1  0.604701  0.504338  0.404072  1
  Si  Si637  1  0.995926  0.603011  0.323904  1
  Si  Si638  1  0.504606  0.397599  0.460117  1
  Si  Si639  1  0.633506  0.926038  0.412829  1
  Si  Si640  1  0.931027  0.865967  0.314805  1
  Si  Si641  1  0.573319  0.930253  0.467732  1
  Si  Si642  1  0.769065  0.961819  0.422782  1
  Si  Si643  1  0.966372  0.730137  0.305518  1
  Si  Si644  1  0.969080  0.770799  0.441639  1
  Si  Si645  1  0.534186  0.967326  0.505423  1
  Si  Si646  1  0.516383  0.956164  0.387974  1
  Si  Si647  1  0.839436  0.982581  0.308026  1
  Si  Si648  1  0.544901  0.839913  0.436168  1
  Si  Si649  1  0.604984  0.997203  0.539983  1
  Si  Si650  1  0.996920  0.898342  0.460329  1
  Si  Si651  1  0.898670  0.894561  0.430770  1
  Si  Si652  1  0.428049  0.068203  0.667630  1
  Si  Si653  1  0.366142  0.071745  0.722740  1
  Si  Si654  1  0.032711  0.227799  0.694318  1
  Si  Si655  1  0.463381  0.032168  0.629944  1
  Si  Si656  1  0.229567  0.038199  0.713077  1
  Si  Si657  1  0.453421  0.159340  0.699457  1
  Si  Si658  1  0.483075  0.044645  0.747563  1
  Si  Si659  1  0.101497  0.106991  0.704810  1
  Si  Si660  1  0.394114  0.003199  0.595253  1
  Si  Si661  1  0.001774  0.100712  0.675070  1
  Si  Si662  1  0.366028  0.426652  0.586482  1
  Si  Si663  1  0.133893  0.573013  0.722586  1
  Si  Si664  1  0.070276  0.368778  0.684481  1
  Si  Si665  1  0.071830  0.569295  0.667590  1
  Si  Si666  1  0.230566  0.463364  0.576724  1
  Si  Si667  1  0.270254  0.538496  0.712985  1
  Si  Si668  1  0.037151  0.531096  0.629608  1
  Si  Si669  1  0.461437  0.467690  0.765666  1
  Si  Si670  1  0.483554  0.455971  0.611197  1
  Si  Si671  1  0.016151  0.544987  0.747152  1
  Si  Si672  1  0.158958  0.481399  0.691261  1
  Si  Si673  1  0.046264  0.660886  0.699355  1
  Si  Si674  1  0.104712  0.503975  0.595806  1
  Si  Si675  1  0.394856  0.496792  0.731837  1
  Si  Si676  1  0.497856  0.601726  0.675472  1
  Si  Si677  1  0.398106  0.605994  0.704991  1
  Si  Si678  1  0.101535  0.395217  0.568468  1
  Si  Si679  1  0.132656  0.927859  0.586851  1
  Si  Si680  1  0.428802  0.868089  0.684009  1
  Si  Si681  1  0.273698  0.962795  0.576736  1
  Si  Si682  1  0.467691  0.729679  0.693896  1
  Si  Si683  1  0.019007  0.952535  0.610727  1
  Si  Si684  1  0.340673  0.980686  0.691351  1
  Si  Si685  1  0.396869  0.894599  0.568230  1
  Si  Si686  1  0.105082  0.997521  0.731730  1
  Si  Si687  1  0.568816  0.132660  0.723921  1
  Si  Si688  1  0.927243  0.067893  0.604032  1
  Si  Si689  1  0.532707  0.267820  0.714009  1
  Si  Si690  1  0.532368  0.231558  0.577741  1
  Si  Si691  1  0.962038  0.032478  0.641031  1
  Si  Si692  1  0.660202  0.016138  0.716305  1
  Si  Si693  1  0.954955  0.158171  0.572147  1
  Si  Si694  1  0.894826  0.003626  0.675981  1
  Si  Si695  1  0.504456  0.102091  0.596193  1
  Si  Si696  1  0.927866  0.432203  0.740067  1
  Si  Si697  1  0.570910  0.568656  0.604145  1
  Si  Si698  1  0.866616  0.426963  0.684852  1
  Si  Si699  1  0.930661  0.633314  0.723555  1
  Si  Si700  1  0.569215  0.366669  0.587461  1
  Si  Si701  1  0.537028  0.532974  0.641073  1
  Si  Si702  1  0.730901  0.462169  0.694922  1
  Si  Si703  1  0.957218  0.340383  0.708130  1
  Si  Si704  1  0.545674  0.660993  0.572333  1
  Si  Si705  1  0.983331  0.457236  0.660029  1
  Si  Si706  1  0.839825  0.517313  0.716112  1
  Si  Si707  1  0.659300  0.483734  0.579720  1
  Si  Si708  1  0.601406  0.394246  0.703125  1
  Si  Si709  1  0.604701  0.504338  0.676268  1
  Si  Si710  1  0.995926  0.603011  0.596099  1
  Si  Si711  1  0.504606  0.397599  0.732313  1
  Si  Si712  1  0.633506  0.926038  0.685025  1
  Si  Si713  1  0.931027  0.865967  0.587000  1
  Si  Si714  1  0.573319  0.930253  0.739928  1
  Si  Si715  1  0.769065  0.961819  0.694978  1
  Si  Si716  1  0.966372  0.730137  0.577713  1
  Si  Si717  1  0.969080  0.770799  0.713835  1
  Si  Si718  1  0.516383  0.956164  0.660170  1
  Si  Si719  1  0.839436  0.982581  0.580222  1
  Si  Si720  1  0.544901  0.839913  0.708364  1
  Si  Si721  1  0.996920  0.898342  0.732525  1
  Si  Si722  1  0.898670  0.894561  0.702965  1
  H  H723  1  0.428982  0.071286  0.089421  1
  H  H724  1  0.070920  0.571439  0.089285  1
  H  H725  1  0.496081  0.579419  0.098059  1
  H  H726  1  0.003956  0.976145  0.074212  1
  H  H727  1  0.927801  0.072409  0.068515  1
  H  H728  1  0.589058  0.501814  0.098436  1
  H  H729  1  0.994921  0.476422  0.082938  1
  H  H730  1  0.505170  0.977070  0.083124  1
  H  H731  1  0.493117  0.023376  0.780067  1
  H  H732  1  0.428069  0.428750  0.794454  1
  H  H733  1  0.003355  0.522728  0.779851  1
  H  H734  1  0.089051  0.000000  0.764970  1
  H  H735  1  0.928605  0.428248  0.773900  1
  H  H736  1  0.503179  0.522879  0.788486  1
  H  H737  1  0.570489  0.927926  0.773720  1
  H  H738  1  0.995727  0.920859  0.765358  1
