# generated using pymatgen
data_Si49(H3O26)4
_symmetry_space_group_name_H-M   'P 1'
_cell_length_a   21.11999289
_cell_length_b   21.12704298
_cell_length_c   72.02410705
_cell_angle_alpha   134.96125367
_cell_angle_beta   134.98035700
_cell_angle_gamma   60.03370721
_symmetry_Int_Tables_number   1
_chemical_formula_structural   Si49(H3O26)4
_chemical_formula_sum   'Si98 H24 O208'
_cell_volume   16085.0607091
_cell_formula_units_Z   2
loop_
 _symmetry_equiv_pos_site_id
 _symmetry_equiv_pos_as_xyz
  1  'x, y, z'
loop_
 _atom_site_type_symbol
 _atom_site_label
 _atom_site_symmetry_multiplicity
 _atom_site_fract_x
 _atom_site_fract_y
 _atom_site_fract_z
 _atom_site_occupancy
  O  O1  1  0.407687  0.028135  0.237024  1
  O  O2  1  0.752899  0.017636  0.245117  1
  O  O3  1  0.254576  0.017976  0.212682  1
  O  O4  1  0.921333  0.253271  0.205232  1
  O  O5  1  0.421287  0.253661  0.212471  1
  O  O6  1  0.329123  0.180040  0.257177  1
  O  O7  1  0.399642  0.329382  0.257112  1
  O  O8  1  0.932832  0.302261  0.149253  1
  O  O9  1  0.900617  0.331195  0.183525  1
  O  O10  1  0.090541  0.529430  0.274970  1
  O  O11  1  0.873301  0.408860  0.224988  1
  O  O12  1  0.376146  0.408860  0.237206  1
  O  O13  1  0.027154  0.377164  0.237625  1
  O  O14  1  0.528229  0.376388  0.275582  1
  O  O15  1  0.018248  0.421100  0.212575  1
  O  O16  1  0.179815  0.399730  0.257323  1
  O  O17  1  0.850112  0.435578  0.169105  1
  O  O18  1  0.972704  0.877073  0.264124  1
  O  O19  1  0.471950  0.875254  0.225413  1
  O  O20  1  0.078447  0.754150  0.245021  1
  O  O21  1  0.578296  0.753655  0.237737  1
  O  O22  1  0.482966  0.921981  0.205363  1
  O  O23  1  0.600057  0.832058  0.225052  1
  O  O24  1  0.820263  0.901124  0.253747  1
  O  O25  1  0.320884  0.899754  0.182712  1
  O  O26  1  0.669123  0.679183  0.161749  1
  O  O27  1  0.152035  0.932655  0.149455  1
  O  O28  1  0.651678  0.936013  0.231789  1
  O  O29  1  0.695935  0.848168  0.195735  1
  O  O30  1  0.197033  0.848369  0.167874  1
  O  O31  1  0.567597  0.804050  0.177395  1
  O  O32  1  0.874990  0.092270  0.263851  1
  O  O33  1  0.375850  0.093567  0.275596  1
  O  O34  1  0.019013  0.076049  0.244368  1
  O  O35  1  0.831443  0.318998  0.224224  1
  O  O36  1  0.331042  0.320630  0.183273  1
  O  O37  1  0.901657  0.167747  0.253336  1
  O  O38  1  0.302754  0.151708  0.149577  1
  O  O39  1  0.934386  0.194734  0.230694  1
  O  O40  1  0.803292  0.150512  0.176923  1
  O  O41  1  0.434626  0.196430  0.168508  1
  O  O42  1  0.849282  0.064829  0.195448  1
  O  O43  1  0.409738  0.471311  0.225380  1
  O  O44  1  0.753411  0.481669  0.237601  1
  O  O45  1  0.253644  0.483121  0.205197  1
  O  O46  1  0.481952  0.579427  0.237784  1
  O  O47  1  0.320227  0.599678  0.224800  1
  O  O48  1  0.151482  0.568008  0.177131  1
  O  O49  1  0.651340  0.567745  0.258625  1
  O  O50  1  0.696256  0.651658  0.258678  1
  O  O51  1  0.196631  0.651165  0.231375  1
  O  O52  1  0.091680  0.972260  0.263762  1
  O  O53  1  0.578690  0.746252  0.132655  1
  O  O54  1  0.169902  0.819854  0.253785  1
  O  O55  1  0.067170  0.696333  0.195522  1
  O  O56  1  0.563813  0.697804  0.258156  1
  O  O57  1  0.907502  0.028177  0.288972  1
  O  O58  1  0.407687  0.028135  0.444301  1
  O  O59  1  0.752899  0.017636  0.452395  1
  O  O60  1  0.254576  0.017976  0.419960  1
  O  O61  1  0.921333  0.253271  0.412510  1
  O  O62  1  0.421287  0.253661  0.419749  1
  O  O63  1  0.828399  0.179130  0.298805  1
  O  O64  1  0.329123  0.180040  0.464455  1
  O  O65  1  0.399642  0.329382  0.464389  1
  O  O66  1  0.932832  0.302261  0.356531  1
  O  O67  1  0.433053  0.302721  0.293417  1
  O  O68  1  0.900617  0.331195  0.390802  1
  O  O69  1  0.090541  0.529430  0.482247  1
  O  O70  1  0.873301  0.408860  0.432266  1
  O  O71  1  0.590628  0.529233  0.327134  1
  O  O72  1  0.376146  0.408860  0.444483  1
  O  O73  1  0.027154  0.377164  0.444902  1
  O  O74  1  0.528229  0.376388  0.482860  1
  O  O75  1  0.018248  0.421100  0.419853  1
  O  O76  1  0.517531  0.421534  0.314540  1
  O  O77  1  0.244749  0.516816  0.314002  1
  O  O78  1  0.746943  0.517063  0.347379  1
  O  O79  1  0.179815  0.399730  0.464600  1
  O  O80  1  0.681179  0.402446  0.328921  1
  O  O81  1  0.303014  0.347469  0.293440  1
  O  O82  1  0.804422  0.347261  0.321791  1
  O  O83  1  0.850112  0.435578  0.376382  1
  O  O84  1  0.347529  0.432558  0.293311  1
  O  O85  1  0.972704  0.877073  0.471401  1
  O  O86  1  0.471950  0.875254  0.432690  1
  O  O87  1  0.125779  0.909898  0.289670  1
  O  O88  1  0.623160  0.908661  0.277399  1
  O  O89  1  0.078447  0.754150  0.452298  1
  O  O90  1  0.578296  0.753655  0.445014  1
  O  O91  1  0.982012  0.921468  0.307434  1
  O  O92  1  0.482966  0.921981  0.412641  1
  O  O93  1  0.098596  0.830477  0.298781  1
  O  O94  1  0.600057  0.832058  0.432329  1
  O  O95  1  0.820263  0.901124  0.461024  1
  O  O96  1  0.167865  0.679739  0.327521  1
  O  O97  1  0.320884  0.899754  0.389989  1
  O  O98  1  0.669123  0.679183  0.369026  1
  O  O99  1  0.152035  0.932655  0.356733  1
  O  O100  1  0.651678  0.936013  0.439066  1
  O  O101  1  0.695935  0.848168  0.403013  1
  O  O102  1  0.063912  0.802992  0.320890  1
  O  O103  1  0.197033  0.848369  0.375152  1
  O  O104  1  0.567597  0.804050  0.384672  1
  O  O105  1  0.874990  0.092270  0.471128  1
  O  O106  1  0.375850  0.093567  0.482873  1
  O  O107  1  0.026963  0.124230  0.288310  1
  O  O108  1  0.528243  0.124528  0.327021  1
  O  O109  1  0.019013  0.076049  0.451645  1
  O  O110  1  0.517953  0.078801  0.347563  1
  O  O111  1  0.921178  0.245022  0.307101  1
  O  O112  1  0.421749  0.246229  0.314618  1
  O  O113  1  0.179582  0.099056  0.298746  1
  O  O114  1  0.831443  0.318998  0.431502  1
  O  O115  1  0.680524  0.098837  0.369714  1
  O  O116  1  0.331042  0.320630  0.390550  1
  O  O117  1  0.901657  0.167747  0.460613  1
  O  O118  1  0.400964  0.169635  0.328191  1
  O  O119  1  0.302754  0.151708  0.356855  1
  O  O120  1  0.934386  0.194734  0.437971  1
  O  O121  1  0.803292  0.150512  0.384200  1
  O  O122  1  0.434626  0.196430  0.375785  1
  O  O123  1  0.849282  0.064829  0.402726  1
  O  O124  1  0.348850  0.065372  0.321407  1
  O  O125  1  0.970885  0.626053  0.315440  1
  O  O126  1  0.473186  0.623603  0.277355  1
  O  O127  1  0.907217  0.472607  0.276737  1
  O  O128  1  0.122882  0.592388  0.326460  1
  O  O129  1  0.409738  0.471311  0.432657  1
  O  O130  1  0.624715  0.591670  0.315433  1
  O  O131  1  0.753411  0.481669  0.444879  1
  O  O132  1  0.253644  0.483121  0.412475  1
  O  O133  1  0.982032  0.578627  0.339558  1
  O  O134  1  0.481952  0.579427  0.445062  1
  O  O135  1  0.819518  0.600015  0.295002  1
  O  O136  1  0.320227  0.599678  0.432077  1
  O  O137  1  0.151482  0.568008  0.384408  1
  O  O138  1  0.651340  0.567745  0.465903  1
  O  O139  1  0.696256  0.651658  0.465955  1
  O  O140  1  0.196631  0.651165  0.438652  1
  O  O141  1  0.091680  0.972260  0.471039  1
  O  O142  1  0.591208  0.971710  0.315579  1
  O  O143  1  0.078068  0.747605  0.347303  1
  O  O144  1  0.578690  0.746252  0.339933  1
  O  O145  1  0.246652  0.982825  0.307598  1
  O  O146  1  0.747125  0.981483  0.339788  1
  O  O147  1  0.100041  0.671615  0.369562  1
  O  O148  1  0.598718  0.670348  0.294736  1
  O  O149  1  0.169902  0.819854  0.461062  1
  O  O150  1  0.668184  0.820713  0.294710  1
  O  O151  1  0.067170  0.696333  0.402799  1
  O  O152  1  0.563813  0.697804  0.465433  1
  O  O153  1  0.907502  0.028177  0.496249  1
  O  O154  1  0.421287  0.253661  0.627026  1
  O  O155  1  0.828399  0.179130  0.506082  1
  O  O156  1  0.932832  0.302261  0.563808  1
  O  O157  1  0.433053  0.302721  0.500695  1
  O  O158  1  0.590628  0.529233  0.534412  1
  O  O159  1  0.517531  0.421534  0.521817  1
  O  O160  1  0.244749  0.516816  0.521280  1
  O  O161  1  0.746943  0.517063  0.554657  1
  O  O162  1  0.681179  0.402446  0.536199  1
  O  O163  1  0.303014  0.347469  0.500718  1
  O  O164  1  0.804422  0.347261  0.529068  1
  O  O165  1  0.850112  0.435578  0.583660  1
  O  O166  1  0.347529  0.432558  0.500589  1
  O  O167  1  0.125779  0.909898  0.496947  1
  O  O168  1  0.623160  0.908661  0.484677  1
  O  O169  1  0.982012  0.921468  0.514712  1
  O  O170  1  0.098596  0.830477  0.506058  1
  O  O171  1  0.167865  0.679739  0.534798  1
  O  O172  1  0.669123  0.679183  0.576303  1
  O  O173  1  0.152035  0.932655  0.564010  1
  O  O174  1  0.695935  0.848168  0.610290  1
  O  O175  1  0.063912  0.802992  0.528167  1
  O  O176  1  0.197033  0.848369  0.582429  1
  O  O177  1  0.567597  0.804050  0.591950  1
  O  O178  1  0.026963  0.124230  0.495588  1
  O  O179  1  0.528243  0.124528  0.534298  1
  O  O180  1  0.517953  0.078801  0.554840  1
  O  O181  1  0.921178  0.245022  0.514379  1
  O  O182  1  0.421749  0.246229  0.521895  1
  O  O183  1  0.179582  0.099056  0.506023  1
  O  O184  1  0.680524  0.098837  0.576991  1
  O  O185  1  0.331042  0.320630  0.597827  1
  O  O186  1  0.400964  0.169635  0.535469  1
  O  O187  1  0.302754  0.151708  0.564132  1
  O  O188  1  0.803292  0.150512  0.591478  1
  O  O189  1  0.434626  0.196430  0.583063  1
  O  O190  1  0.849282  0.064829  0.610003  1
  O  O191  1  0.348850  0.065372  0.528684  1
  O  O192  1  0.970885  0.626053  0.522718  1
  O  O193  1  0.473186  0.623603  0.484632  1
  O  O194  1  0.907217  0.472607  0.484014  1
  O  O195  1  0.122882  0.592388  0.533737  1
  O  O196  1  0.624715  0.591670  0.522711  1
  O  O197  1  0.982032  0.578627  0.546835  1
  O  O198  1  0.819518  0.600015  0.502280  1
  O  O199  1  0.151482  0.568008  0.591686  1
  O  O200  1  0.591208  0.971710  0.522856  1
  O  O201  1  0.078068  0.747605  0.554581  1
  O  O202  1  0.578690  0.746252  0.547210  1
  O  O203  1  0.246652  0.982825  0.514875  1
  O  O204  1  0.747125  0.981483  0.547066  1
  O  O205  1  0.100041  0.671615  0.576839  1
  O  O206  1  0.598718  0.670348  0.502014  1
  O  O207  1  0.668184  0.820713  0.501987  1
  O  O208  1  0.067170  0.696333  0.610076  1
  Si  Si209  1  0.836075  0.081200  0.273519  1
  Si  Si210  1  0.336877  0.082247  0.245168  1
  Si  Si211  1  0.082015  0.432879  0.245621  1
  Si  Si212  1  0.930262  0.337573  0.211809  1
  Si  Si213  1  0.431600  0.337351  0.245053  1
  Si  Si214  1  0.927371  0.374023  0.178801  1
  Si  Si215  1  0.069462  0.838279  0.273475  1
  Si  Si216  1  0.568283  0.837052  0.240074  1
  Si  Si217  1  0.418971  0.931418  0.211254  1
  Si  Si218  1  0.573917  0.875016  0.209356  1
  Si  Si219  1  0.727528  0.927802  0.231316  1
  Si  Si220  1  0.231316  0.927862  0.179150  1
  Si  Si221  1  0.626350  0.770630  0.166159  1
  Si  Si222  1  0.079080  0.068299  0.272614  1
  Si  Si223  1  0.874143  0.227377  0.208616  1
  Si  Si224  1  0.373183  0.227003  0.178169  1
  Si  Si225  1  0.930113  0.124217  0.231296  1
  Si  Si226  1  0.836368  0.418400  0.239240  1
  Si  Si227  1  0.337938  0.421365  0.211736  1
  Si  Si228  1  0.419793  0.567607  0.239891  1
  Si  Si229  1  0.571627  0.628299  0.261190  1
  Si  Si230  1  0.730050  0.571916  0.261442  1
  Si  Si231  1  0.227521  0.573774  0.209018  1
  Si  Si232  1  0.127076  0.727275  0.231026  1
  Si  Si233  1  0.624848  0.728235  0.260954  1
  Si  Si234  1  0.373298  0.269504  0.290719  1
  Si  Si235  1  0.836075  0.081200  0.480796  1
  Si  Si236  1  0.336877  0.082247  0.452446  1
  Si  Si237  1  0.873169  0.268149  0.320643  1
  Si  Si238  1  0.082015  0.432879  0.452898  1
  Si  Si239  1  0.581375  0.433391  0.313105  1
  Si  Si240  1  0.161506  0.579639  0.311747  1
  Si  Si241  1  0.930262  0.337573  0.419087  1
  Si  Si242  1  0.662577  0.578811  0.340747  1
  Si  Si243  1  0.431600  0.337351  0.452331  1
  Si  Si244  1  0.269684  0.427087  0.290628  1
  Si  Si245  1  0.773897  0.427904  0.344559  1
  Si  Si246  1  0.927371  0.374023  0.386079  1
  Si  Si247  1  0.427413  0.372838  0.290571  1
  Si  Si248  1  0.069462  0.838279  0.480753  1
  Si  Si249  1  0.568283  0.837052  0.447352  1
  Si  Si250  1  0.919763  0.931804  0.279412  1
  Si  Si251  1  0.418971  0.931418  0.418531  1
  Si  Si252  1  0.071629  0.872788  0.321200  1
  Si  Si253  1  0.573917  0.875016  0.416633  1
  Si  Si254  1  0.727528  0.927802  0.438594  1
  Si  Si255  1  0.125054  0.772268  0.343307  1
  Si  Si256  1  0.231316  0.927862  0.386427  1
  Si  Si257  1  0.626350  0.770630  0.373436  1
  Si  Si258  1  0.079080  0.068299  0.479891  1
  Si  Si259  1  0.582332  0.067803  0.341265  1
  Si  Si260  1  0.931013  0.162642  0.279034  1
  Si  Si261  1  0.432077  0.163974  0.312808  1
  Si  Si262  1  0.272984  0.073538  0.321863  1
  Si  Si263  1  0.874143  0.227377  0.415893  1
  Si  Si264  1  0.769363  0.069938  0.372811  1
  Si  Si265  1  0.373183  0.227003  0.385446  1
  Si  Si266  1  0.930113  0.124217  0.438574  1
  Si  Si267  1  0.426656  0.126474  0.343931  1
  Si  Si268  1  0.836368  0.418400  0.446517  1
  Si  Si269  1  0.067754  0.664450  0.341071  1
  Si  Si270  1  0.337938  0.421365  0.419013  1
  Si  Si271  1  0.569134  0.663181  0.307826  1
  Si  Si272  1  0.917638  0.568837  0.307130  1
  Si  Si273  1  0.419793  0.567607  0.447169  1
  Si  Si274  1  0.071966  0.627317  0.373122  1
  Si  Si275  1  0.571627  0.628299  0.468467  1
  Si  Si276  1  0.730050  0.571916  0.468719  1
  Si  Si277  1  0.227521  0.573774  0.416295  1
  Si  Si278  1  0.162993  0.919611  0.279464  1
  Si  Si279  1  0.662887  0.922081  0.308540  1
  Si  Si280  1  0.127076  0.727275  0.438304  1
  Si  Si281  1  0.624848  0.728235  0.468232  1
  Si  Si282  1  0.373298  0.269504  0.497996  1
  Si  Si283  1  0.873169  0.268149  0.527921  1
  Si  Si284  1  0.581375  0.433391  0.520382  1
  Si  Si285  1  0.161506  0.579639  0.519024  1
  Si  Si286  1  0.662577  0.578811  0.548024  1
  Si  Si287  1  0.269684  0.427087  0.497906  1
  Si  Si288  1  0.773897  0.427904  0.551836  1
  Si  Si289  1  0.427413  0.372838  0.497848  1
  Si  Si290  1  0.919763  0.931804  0.486689  1
  Si  Si291  1  0.071629  0.872788  0.528477  1
  Si  Si292  1  0.125054  0.772268  0.550584  1
  Si  Si293  1  0.626350  0.770630  0.580714  1
  Si  Si294  1  0.582332  0.067803  0.548543  1
  Si  Si295  1  0.931013  0.162642  0.486312  1
  Si  Si296  1  0.432077  0.163974  0.520085  1
  Si  Si297  1  0.272984  0.073538  0.529140  1
  Si  Si298  1  0.769363  0.069938  0.580089  1
  Si  Si299  1  0.373183  0.227003  0.592724  1
  Si  Si300  1  0.426656  0.126474  0.551208  1
  Si  Si301  1  0.067754  0.664450  0.548349  1
  Si  Si302  1  0.569134  0.663181  0.515104  1
  Si  Si303  1  0.917638  0.568837  0.514407  1
  Si  Si304  1  0.071966  0.627317  0.580399  1
  Si  Si305  1  0.162993  0.919611  0.486741  1
  Si  Si306  1  0.662887  0.922081  0.515818  1
  H  H307  1  0.932832  0.302261  0.136758  1
  H  H308  1  0.850112  0.435578  0.156609  1
  H  H309  1  0.669123  0.679183  0.149253  1
  H  H310  1  0.152035  0.932655  0.136959  1
  H  H311  1  0.197033  0.848369  0.155378  1
  H  H312  1  0.302754  0.151708  0.137082  1
  H  H313  1  0.803292  0.150512  0.164427  1
  H  H314  1  0.434626  0.196430  0.156012  1
  H  H315  1  0.849282  0.064829  0.182952  1
  H  H316  1  0.151482  0.568008  0.164635  1
  H  H317  1  0.578690  0.746252  0.120159  1
  H  H318  1  0.067170  0.696333  0.183026  1
  H  H319  1  0.421287  0.253661  0.639522  1
  H  H320  1  0.932832  0.302261  0.576304  1
  H  H321  1  0.850112  0.435578  0.596155  1
  H  H322  1  0.152035  0.932655  0.576506  1
  H  H323  1  0.695935  0.848168  0.622786  1
  H  H324  1  0.197033  0.848369  0.594925  1
  H  H325  1  0.567597  0.804050  0.604446  1
  H  H326  1  0.331042  0.320630  0.610323  1
  H  H327  1  0.803292  0.150512  0.603974  1
  H  H328  1  0.849282  0.064829  0.622499  1
  H  H329  1  0.151482  0.568008  0.604182  1
  H  H330  1  0.067170  0.696333  0.622572  1
