# generated using pymatgen
data_Si3H2O7
_symmetry_space_group_name_H-M   'P 1'
_cell_length_a   5.08855878
_cell_length_b   10.83973680
_cell_length_c   38.16147066
_cell_angle_alpha   133.19146784
_cell_angle_beta   90.00000000
_cell_angle_gamma   90.00000000
_symmetry_Int_Tables_number   1
_chemical_formula_structural   Si3H2O7
_chemical_formula_sum   'Si6 H4 O14'
_cell_volume   1534.6459463
_cell_formula_units_Z   2
loop_
 _symmetry_equiv_pos_site_id
 _symmetry_equiv_pos_as_xyz
  1  'x, y, z'
loop_
 _atom_site_type_symbol
 _atom_site_label
 _atom_site_symmetry_multiplicity
 _atom_site_fract_x
 _atom_site_fract_y
 _atom_site_fract_z
 _atom_site_occupancy
  O  O1  1  0.994116  -0.000000  0.272202  1
  O  O2  1  0.494116  0.001117  0.272498  1
  O  O3  1  0.743159  0.846751  0.290426  1
  O  O4  1  0.742364  0.728410  0.203295  1
  O  O5  1  0.242364  0.272299  0.242868  1
  O  O6  1  0.242364  0.272299  0.309035  1
  O  O7  1  0.533950  0.480899  0.316506  1
  O  O8  1  0.994116  -0.000000  0.368080  1
  O  O9  1  0.494116  0.001117  0.368376  1
  O  O10  1  0.243159  0.153959  0.350152  1
  O  O11  1  0.742364  0.728410  0.397710  1
  O  O12  1  0.742364  0.728410  0.331542  1
  O  O13  1  0.242364  0.272299  0.437282  1
  O  O14  1  0.033950  0.519811  0.324071  1
  Si  Si15  1  0.743305  0.890048  0.258530  1
  Si  Si16  1  0.243305  0.110661  0.301420  1
  Si  Si17  1  0.262952  0.388719  0.298585  1
  Si  Si18  1  0.743305  0.890048  0.339157  1
  Si  Si19  1  0.243305  0.110662  0.382048  1
  Si  Si20  1  0.762952  0.611991  0.341992  1
  H  H21  1  0.742364  0.728410  0.179711  1
  H  H22  1  0.242364  0.272299  0.219284  1
  H  H23  1  0.742364  0.728410  0.421294  1
  H  H24  1  0.242364  0.272299  0.460866  1
