# generated using pymatgen
data_Si18H2O37
_symmetry_space_group_name_H-M   'P 1'
_cell_length_a   8.11619714
_cell_length_b   9.02515124
_cell_length_c   47.46398867
_cell_angle_alpha   90.00000000
_cell_angle_beta   90.00000000
_cell_angle_gamma   90.00000000
_symmetry_Int_Tables_number   1
_chemical_formula_structural   Si18H2O37
_chemical_formula_sum   'Si36 H4 O74'
_cell_volume   3476.73274119
_cell_formula_units_Z   2
loop_
 _symmetry_equiv_pos_site_id
 _symmetry_equiv_pos_as_xyz
  1  'x, y, z'
loop_
 _atom_site_type_symbol
 _atom_site_label
 _atom_site_symmetry_multiplicity
 _atom_site_fract_x
 _atom_site_fract_y
 _atom_site_fract_z
 _atom_site_occupancy
  O  O1  1  0.250089  0.675098  0.214420  1
  O  O2  1  0.750077  0.824642  0.214422  1
  O  O3  1  0.037746  0.489099  0.227356  1
  O  O4  1  0.962410  0.010655  0.227358  1
  O  O5  1  0.462422  0.489084  0.201487  1
  O  O6  1  0.962375  0.989062  0.381726  1
  O  O7  1  0.037750  0.510618  0.381723  1
  O  O8  1  0.537730  0.010636  0.201487  1
  O  O9  1  0.258415  0.592033  0.264338  1
  O  O10  1  0.741747  0.907709  0.264340  1
  O  O11  1  0.241749  0.592011  0.164504  1
  O  O12  1  0.741738  0.092023  0.344742  1
  O  O13  1  0.258407  0.407674  0.344741  1
  O  O14  1  0.758424  0.907713  0.164507  1
  O  O15  1  -0.000000  0.749878  0.246105  1
  O  O16  1  0.500090  0.749858  0.182736  1
  O  O17  1  -0.000000  0.249835  0.362980  1
  O  O18  1  0.544130  0.503995  0.252688  1
  O  O19  1  0.456031  0.995731  0.252688  1
  O  O20  1  0.956022  0.504007  0.176158  1
  O  O21  1  0.456021  0.004010  0.356394  1
  O  O22  1  0.544111  0.495736  0.356392  1
  O  O23  1  0.044147  0.995734  0.176160  1
  O  O24  1  0.750084  0.404012  0.214424  1
  O  O25  1  0.250077  0.095737  0.214427  1
  O  O26  1  0.500095  0.249861  0.229754  1
  O  O27  1  -0.000000  0.249874  0.199090  1
  O  O28  1  0.500079  0.749875  0.379326  1
  O  O29  1  -0.000000  0.749869  0.149482  1
  O  O30  1  0.500089  0.249868  0.329714  1
  O  O31  1  0.500084  0.749862  0.279363  1
  O  O32  1  0.952999  -0.000000  0.124308  1
  O  O33  1  0.452956  0.499867  0.304540  1
  O  O34  1  0.547178  0.000000  0.304541  1
  O  O35  1  0.047153  0.499866  0.124305  1
  O  O36  1  0.750056  0.175083  0.394661  1
  O  O37  1  0.250089  0.675098  0.574888  1
  O  O38  1  0.750077  0.824642  0.574890  1
  O  O39  1  0.250099  0.324628  0.394660  1
  O  O40  1  0.537698  0.989095  0.407596  1
  O  O41  1  0.037746  0.489099  0.587824  1
  O  O42  1  0.962410  0.010655  0.587825  1
  O  O43  1  0.462429  0.510649  0.407593  1
  O  O44  1  0.462422  0.489084  0.561955  1
  O  O45  1  0.537730  0.010636  0.561955  1
  O  O46  1  0.758412  0.092004  0.444576  1
  O  O47  1  0.258415  0.592033  0.624805  1
  O  O48  1  0.741747  0.907709  0.624808  1
  O  O49  1  0.241738  0.407727  0.444574  1
  O  O50  1  0.241749  0.592011  0.524972  1
  O  O51  1  0.758424  0.907713  0.524975  1
  O  O52  1  0.500084  0.249876  0.426348  1
  O  O53  1  -0.000000  0.749878  0.606573  1
  O  O54  1  0.500090  0.749858  0.543204  1
  O  O55  1  0.044137  0.003980  0.432922  1
  O  O56  1  0.544130  0.503995  0.613156  1
  O  O57  1  0.456031  0.995731  0.613156  1
  O  O58  1  0.956001  0.495709  0.432919  1
  O  O59  1  0.956022  0.504007  0.536626  1
  O  O60  1  0.044147  0.995734  0.536628  1
  O  O61  1  0.250052  0.903995  0.394649  1
  O  O62  1  0.750084  0.404012  0.574892  1
  O  O63  1  0.250077  0.095737  0.574895  1
  O  O64  1  0.750084  0.595721  0.394649  1
  O  O65  1  -0.000000  0.749839  0.409990  1
  O  O66  1  0.500095  0.249861  0.590222  1
  O  O67  1  -0.000000  0.249874  0.559558  1
  O  O68  1  -0.000000  0.749869  0.509950  1
  O  O69  1  -0.000000  0.249855  0.459597  1
  O  O70  1  0.500084  0.749862  0.639831  1
  O  O71  1  0.952999  0.000000  0.484776  1
  O  O72  1  0.452956  0.499867  0.665008  1
  O  O73  1  0.547178  -0.000000  0.665009  1
  O  O74  1  0.047153  0.499866  0.484773  1
  Si  Si75  1  0.133186  0.627204  0.239640  1
  Si  Si76  1  0.866978  0.872546  0.239642  1
  Si  Si77  1  0.366987  0.627186  0.189201  1
  Si  Si78  1  0.866961  0.127179  0.369442  1
  Si  Si79  1  0.133188  0.372508  0.369441  1
  Si  Si80  1  0.633180  0.872539  0.189202  1
  Si  Si81  1  0.568096  0.409875  0.224933  1
  Si  Si82  1  0.432070  0.089853  0.224933  1
  Si  Si83  1  0.932067  0.409883  0.203913  1
  Si  Si84  1  0.432052  0.909882  0.384148  1
  Si  Si85  1  0.568085  0.589859  0.384146  1
  Si  Si86  1  0.068098  0.089865  0.203914  1
  Si  Si87  1  0.940675  0.913877  0.152675  1
  Si  Si88  1  0.440648  0.413869  0.332907  1
  Si  Si89  1  0.559495  0.085857  0.332908  1
  Si  Si90  1  0.059498  0.585857  0.152672  1
  Si  Si91  1  0.559500  0.913873  0.276173  1
  Si  Si92  1  0.440657  0.585857  0.276172  1
  Si  Si93  1  0.633162  0.127185  0.419881  1
  Si  Si94  1  0.133186  0.627204  0.600108  1
  Si  Si95  1  0.866978  0.872546  0.600109  1
  Si  Si96  1  0.366989  0.372550  0.419880  1
  Si  Si97  1  0.366987  0.627186  0.549669  1
  Si  Si98  1  0.633180  0.872539  0.549670  1
  Si  Si99  1  0.068081  0.909854  0.405167  1
  Si  Si100  1  0.568096  0.409875  0.585401  1
  Si  Si101  1  0.432070  0.089853  0.585401  1
  Si  Si102  1  0.932058  0.589834  0.405164  1
  Si  Si103  1  0.932067  0.409883  0.564381  1
  Si  Si104  1  0.068098  0.089865  0.564382  1
  Si  Si105  1  0.940675  0.913877  0.513143  1
  Si  Si106  1  0.059498  0.585857  0.513140  1
  Si  Si107  1  0.059485  0.413869  0.456406  1
  Si  Si108  1  0.559500  0.913873  0.636641  1
  Si  Si109  1  0.440657  0.585857  0.636640  1
  Si  Si110  1  0.940666  0.085846  0.456407  1
  H  H111  1  0.952999  0.000000  0.105346  1
  H  H112  1  0.047153  0.499866  0.105343  1
  H  H113  1  0.452956  0.499867  0.683969  1
  H  H114  1  0.547178  0.000000  0.683971  1
