# generated using pymatgen
data_Si47(H3O25)4
_symmetry_space_group_name_H-M   'P 1'
_cell_length_a   21.11999289
_cell_length_b   21.12704298
_cell_length_c   69.60786828
_cell_angle_alpha   134.96125367
_cell_angle_beta   134.98035700
_cell_angle_gamma   60.03370721
_symmetry_Int_Tables_number   1
_chemical_formula_structural   Si47(H3O25)4
_chemical_formula_sum   'Si94 H24 O200'
_cell_volume   15545.4448941
_cell_formula_units_Z   2
loop_
 _symmetry_equiv_pos_site_id
 _symmetry_equiv_pos_as_xyz
  1  'x, y, z'
loop_
 _atom_site_type_symbol
 _atom_site_label
 _atom_site_symmetry_multiplicity
 _atom_site_fract_x
 _atom_site_fract_y
 _atom_site_fract_z
 _atom_site_occupancy
  O  O1  1  0.407687  0.028135  0.228077  1
  O  O2  1  0.752899  0.017636  0.236452  1
  O  O3  1  0.254576  0.017976  0.202890  1
  O  O4  1  0.921333  0.253271  0.195182  1
  O  O5  1  0.421287  0.253661  0.202672  1
  O  O6  1  0.329123  0.180040  0.248930  1
  O  O7  1  0.399642  0.329382  0.248862  1
  O  O8  1  0.932832  0.302261  0.137260  1
  O  O9  1  0.900617  0.331195  0.172721  1
  O  O10  1  0.090541  0.529430  0.267340  1
  O  O11  1  0.873301  0.408860  0.215624  1
  O  O12  1  0.376146  0.408860  0.228265  1
  O  O13  1  0.027154  0.377164  0.228699  1
  O  O14  1  0.528229  0.376388  0.267974  1
  O  O15  1  0.018248  0.421100  0.202780  1
  O  O16  1  0.179815  0.399730  0.249081  1
  O  O17  1  0.850112  0.435578  0.157800  1
  O  O18  1  0.972704  0.877073  0.256118  1
  O  O19  1  0.471950  0.875254  0.216063  1
  O  O20  1  0.078447  0.754150  0.236351  1
  O  O21  1  0.578296  0.753655  0.228815  1
  O  O22  1  0.482966  0.921981  0.195317  1
  O  O23  1  0.600057  0.832058  0.215689  1
  O  O24  1  0.820263  0.901124  0.245380  1
  O  O25  1  0.320884  0.899754  0.171880  1
  O  O26  1  0.152035  0.932655  0.137469  1
  O  O27  1  0.651678  0.936013  0.222660  1
  O  O28  1  0.695935  0.848168  0.185355  1
  O  O29  1  0.197033  0.848369  0.156527  1
  O  O30  1  0.567597  0.804050  0.166378  1
  O  O31  1  0.874990  0.092270  0.255835  1
  O  O32  1  0.375850  0.093567  0.267988  1
  O  O33  1  0.019013  0.076049  0.235676  1
  O  O34  1  0.831443  0.318998  0.214833  1
  O  O35  1  0.331042  0.320630  0.172460  1
  O  O36  1  0.901657  0.167747  0.244956  1
  O  O37  1  0.934386  0.194734  0.221527  1
  O  O38  1  0.803292  0.150512  0.165890  1
  O  O39  1  0.849282  0.064829  0.185058  1
  O  O40  1  0.409738  0.471311  0.216029  1
  O  O41  1  0.753411  0.481669  0.228675  1
  O  O42  1  0.253644  0.483121  0.195146  1
  O  O43  1  0.481952  0.579427  0.228864  1
  O  O44  1  0.320227  0.599678  0.215429  1
  O  O45  1  0.151482  0.568008  0.166105  1
  O  O46  1  0.651340  0.567745  0.250428  1
  O  O47  1  0.696256  0.651658  0.250483  1
  O  O48  1  0.196631  0.651165  0.222232  1
  O  O49  1  0.091680  0.972260  0.255743  1
  O  O50  1  0.169902  0.819854  0.245420  1
  O  O51  1  0.067170  0.696333  0.185134  1
  O  O52  1  0.563813  0.697804  0.249943  1
  O  O53  1  0.907502  0.028177  0.281828  1
  O  O54  1  0.407687  0.028135  0.442550  1
  O  O55  1  0.752899  0.017636  0.450924  1
  O  O56  1  0.254576  0.017976  0.417363  1
  O  O57  1  0.921333  0.253271  0.409654  1
  O  O58  1  0.421287  0.253661  0.417145  1
  O  O59  1  0.828399  0.179130  0.292002  1
  O  O60  1  0.329123  0.180040  0.463403  1
  O  O61  1  0.399642  0.329382  0.463335  1
  O  O62  1  0.932832  0.302261  0.351732  1
  O  O63  1  0.433053  0.302721  0.286428  1
  O  O64  1  0.900617  0.331195  0.387194  1
  O  O65  1  0.090541  0.529430  0.481813  1
  O  O66  1  0.873301  0.408860  0.430096  1
  O  O67  1  0.590628  0.529233  0.321316  1
  O  O68  1  0.376146  0.408860  0.442738  1
  O  O69  1  0.027154  0.377164  0.443172  1
  O  O70  1  0.528229  0.376388  0.482447  1
  O  O71  1  0.018248  0.421100  0.417252  1
  O  O72  1  0.517531  0.421534  0.308284  1
  O  O73  1  0.244749  0.516816  0.307728  1
  O  O74  1  0.746943  0.517063  0.342263  1
  O  O75  1  0.179815  0.399730  0.463553  1
  O  O76  1  0.681179  0.402446  0.323165  1
  O  O77  1  0.303014  0.347469  0.286452  1
  O  O78  1  0.804422  0.347261  0.315787  1
  O  O79  1  0.850112  0.435578  0.372273  1
  O  O80  1  0.347529  0.432558  0.286319  1
  O  O81  1  0.972704  0.877073  0.470590  1
  O  O82  1  0.471950  0.875254  0.430536  1
  O  O83  1  0.125779  0.909898  0.282550  1
  O  O84  1  0.623160  0.908661  0.269854  1
  O  O85  1  0.078447  0.754150  0.450824  1
  O  O86  1  0.578296  0.753655  0.443287  1
  O  O87  1  0.982012  0.921468  0.300932  1
  O  O88  1  0.482966  0.921981  0.409790  1
  O  O89  1  0.098596  0.830477  0.291978  1
  O  O90  1  0.600057  0.832058  0.430162  1
  O  O91  1  0.820263  0.901124  0.459853  1
  O  O92  1  0.167865  0.679739  0.321716  1
  O  O93  1  0.320884  0.899754  0.386352  1
  O  O94  1  0.669123  0.679183  0.364661  1
  O  O95  1  0.152035  0.932655  0.351941  1
  O  O96  1  0.651678  0.936013  0.437133  1
  O  O97  1  0.695935  0.848168  0.399828  1
  O  O98  1  0.063912  0.802992  0.314854  1
  O  O99  1  0.197033  0.848369  0.371000  1
  O  O100  1  0.567597  0.804050  0.380851  1
  O  O101  1  0.874990  0.092270  0.470308  1
  O  O102  1  0.375850  0.093567  0.482460  1
  O  O103  1  0.026963  0.124230  0.281144  1
  O  O104  1  0.528243  0.124528  0.321198  1
  O  O105  1  0.019013  0.076049  0.450148  1
  O  O106  1  0.517953  0.078801  0.342453  1
  O  O107  1  0.921178  0.245022  0.300587  1
  O  O108  1  0.421749  0.246229  0.308365  1
  O  O109  1  0.179582  0.099056  0.291941  1
  O  O110  1  0.831443  0.318998  0.429306  1
  O  O111  1  0.680524  0.098837  0.365373  1
  O  O112  1  0.331042  0.320630  0.386933  1
  O  O113  1  0.901657  0.167747  0.459428  1
  O  O114  1  0.400964  0.169635  0.322409  1
  O  O115  1  0.302754  0.151708  0.352068  1
  O  O116  1  0.934386  0.194734  0.436000  1
  O  O117  1  0.803292  0.150512  0.380363  1
  O  O118  1  0.434626  0.196430  0.371655  1
  O  O119  1  0.849282  0.064829  0.399531  1
  O  O120  1  0.348850  0.065372  0.315389  1
  O  O121  1  0.970885  0.626053  0.309216  1
  O  O122  1  0.473186  0.623603  0.269808  1
  O  O123  1  0.907217  0.472607  0.269169  1
  O  O124  1  0.122882  0.592388  0.320618  1
  O  O125  1  0.409738  0.471311  0.430502  1
  O  O126  1  0.624715  0.591670  0.309208  1
  O  O127  1  0.753411  0.481669  0.443147  1
  O  O128  1  0.253644  0.483121  0.409618  1
  O  O129  1  0.982032  0.578627  0.334170  1
  O  O130  1  0.481952  0.579427  0.443336  1
  O  O131  1  0.819518  0.600015  0.288068  1
  O  O132  1  0.320227  0.599678  0.429901  1
  O  O133  1  0.151482  0.568008  0.380578  1
  O  O134  1  0.651340  0.567745  0.464901  1
  O  O135  1  0.696256  0.651658  0.464955  1
  O  O136  1  0.196631  0.651165  0.436704  1
  O  O137  1  0.091680  0.972260  0.470216  1
  O  O138  1  0.591208  0.971710  0.309359  1
  O  O139  1  0.078068  0.747605  0.342185  1
  O  O140  1  0.578690  0.746252  0.334558  1
  O  O141  1  0.246652  0.982825  0.301101  1
  O  O142  1  0.747125  0.981483  0.334409  1
  O  O143  1  0.100041  0.671615  0.365216  1
  O  O144  1  0.598718  0.670348  0.287793  1
  O  O145  1  0.169902  0.819854  0.459893  1
  O  O146  1  0.668184  0.820713  0.287765  1
  O  O147  1  0.067170  0.696333  0.399607  1
  O  O148  1  0.563813  0.697804  0.464415  1
  O  O149  1  0.907502  0.028177  0.496301  1
  O  O150  1  0.828399  0.179130  0.506475  1
  O  O151  1  0.932832  0.302261  0.566205  1
  O  O152  1  0.433053  0.302721  0.500901  1
  O  O153  1  0.590628  0.529233  0.535788  1
  O  O154  1  0.517531  0.421534  0.522756  1
  O  O155  1  0.244749  0.516816  0.522200  1
  O  O156  1  0.746943  0.517063  0.556736  1
  O  O157  1  0.681179  0.402446  0.537637  1
  O  O158  1  0.303014  0.347469  0.500924  1
  O  O159  1  0.804422  0.347261  0.530259  1
  O  O160  1  0.850112  0.435578  0.586745  1
  O  O161  1  0.347529  0.432558  0.500791  1
  O  O162  1  0.125779  0.909898  0.497023  1
  O  O163  1  0.623160  0.908661  0.484327  1
  O  O164  1  0.982012  0.921468  0.515404  1
  O  O165  1  0.098596  0.830477  0.506450  1
  O  O166  1  0.167865  0.679739  0.536188  1
  O  O167  1  0.669123  0.679183  0.579134  1
  O  O168  1  0.152035  0.932655  0.566414  1
  O  O169  1  0.063912  0.802992  0.529327  1
  O  O170  1  0.197033  0.848369  0.585472  1
  O  O171  1  0.026963  0.124230  0.495616  1
  O  O172  1  0.528243  0.124528  0.535671  1
  O  O173  1  0.517953  0.078801  0.556925  1
  O  O174  1  0.921178  0.245022  0.515060  1
  O  O175  1  0.421749  0.246229  0.522837  1
  O  O176  1  0.179582  0.099056  0.506414  1
  O  O177  1  0.680524  0.098837  0.579845  1
  O  O178  1  0.400964  0.169635  0.536882  1
  O  O179  1  0.302754  0.151708  0.566540  1
  O  O180  1  0.803292  0.150512  0.594835  1
  O  O181  1  0.434626  0.196430  0.586128  1
  O  O182  1  0.849282  0.064829  0.614003  1
  O  O183  1  0.348850  0.065372  0.529862  1
  O  O184  1  0.970885  0.626053  0.523688  1
  O  O185  1  0.473186  0.623603  0.484280  1
  O  O186  1  0.907217  0.472607  0.483641  1
  O  O187  1  0.122882  0.592388  0.535090  1
  O  O188  1  0.624715  0.591670  0.523681  1
  O  O189  1  0.982032  0.578627  0.548643  1
  O  O190  1  0.819518  0.600015  0.502541  1
  O  O191  1  0.151482  0.568008  0.595050  1
  O  O192  1  0.591208  0.971710  0.523831  1
  O  O193  1  0.078068  0.747605  0.556657  1
  O  O194  1  0.578690  0.746252  0.549031  1
  O  O195  1  0.246652  0.982825  0.515573  1
  O  O196  1  0.747125  0.981483  0.548881  1
  O  O197  1  0.100041  0.671615  0.579688  1
  O  O198  1  0.598718  0.670348  0.502265  1
  O  O199  1  0.668184  0.820713  0.502238  1
  O  O200  1  0.067170  0.696333  0.614079  1
  Si  Si201  1  0.836075  0.081200  0.265839  1
  Si  Si202  1  0.336877  0.082247  0.236504  1
  Si  Si203  1  0.082015  0.432879  0.236973  1
  Si  Si204  1  0.930262  0.337573  0.201988  1
  Si  Si205  1  0.431600  0.337351  0.236385  1
  Si  Si206  1  0.927371  0.374023  0.167833  1
  Si  Si207  1  0.069462  0.838279  0.265794  1
  Si  Si208  1  0.568283  0.837052  0.231233  1
  Si  Si209  1  0.418971  0.931418  0.201413  1
  Si  Si210  1  0.573917  0.875016  0.199449  1
  Si  Si211  1  0.727528  0.927802  0.222172  1
  Si  Si212  1  0.231316  0.927862  0.168194  1
  Si  Si213  1  0.079080  0.068299  0.264903  1
  Si  Si214  1  0.874143  0.227377  0.198683  1
  Si  Si215  1  0.930113  0.124217  0.222151  1
  Si  Si216  1  0.836368  0.418400  0.230370  1
  Si  Si217  1  0.337938  0.421365  0.201911  1
  Si  Si218  1  0.419793  0.567607  0.231044  1
  Si  Si219  1  0.571627  0.628299  0.253082  1
  Si  Si220  1  0.730050  0.571916  0.253343  1
  Si  Si221  1  0.227521  0.573774  0.199099  1
  Si  Si222  1  0.127076  0.727275  0.221871  1
  Si  Si223  1  0.624848  0.728235  0.252838  1
  Si  Si224  1  0.373298  0.269504  0.283636  1
  Si  Si225  1  0.836075  0.081200  0.480311  1
  Si  Si226  1  0.336877  0.082247  0.450977  1
  Si  Si227  1  0.873169  0.268149  0.314599  1
  Si  Si228  1  0.082015  0.432879  0.451445  1
  Si  Si229  1  0.581375  0.433391  0.306799  1
  Si  Si230  1  0.161506  0.579639  0.305394  1
  Si  Si231  1  0.930262  0.337573  0.416460  1
  Si  Si232  1  0.662577  0.578811  0.335401  1
  Si  Si233  1  0.431600  0.337351  0.450858  1
  Si  Si234  1  0.269684  0.427087  0.283542  1
  Si  Si235  1  0.773897  0.427904  0.339345  1
  Si  Si236  1  0.927371  0.374023  0.382306  1
  Si  Si237  1  0.427413  0.372838  0.283483  1
  Si  Si238  1  0.069462  0.838279  0.480266  1
  Si  Si239  1  0.568283  0.837052  0.445706  1
  Si  Si240  1  0.919763  0.931804  0.271936  1
  Si  Si241  1  0.418971  0.931418  0.415885  1
  Si  Si242  1  0.071629  0.872788  0.315175  1
  Si  Si243  1  0.573917  0.875016  0.413921  1
  Si  Si244  1  0.727528  0.927802  0.436644  1
  Si  Si245  1  0.125054  0.772268  0.338049  1
  Si  Si246  1  0.231316  0.927862  0.382666  1
  Si  Si247  1  0.626350  0.770630  0.369225  1
  Si  Si248  1  0.079080  0.068299  0.479375  1
  Si  Si249  1  0.582332  0.067803  0.335937  1
  Si  Si250  1  0.931013  0.162642  0.271546  1
  Si  Si251  1  0.432077  0.163974  0.306492  1
  Si  Si252  1  0.272984  0.073538  0.315861  1
  Si  Si253  1  0.874143  0.227377  0.413155  1
  Si  Si254  1  0.769363  0.069938  0.368578  1
  Si  Si255  1  0.373183  0.227003  0.381652  1
  Si  Si256  1  0.930113  0.124217  0.436623  1
  Si  Si257  1  0.426656  0.126474  0.338695  1
  Si  Si258  1  0.836368  0.418400  0.444843  1
  Si  Si259  1  0.067754  0.664450  0.335736  1
  Si  Si260  1  0.337938  0.421365  0.416384  1
  Si  Si261  1  0.569134  0.663181  0.301337  1
  Si  Si262  1  0.917638  0.568837  0.300617  1
  Si  Si263  1  0.419793  0.567607  0.445517  1
  Si  Si264  1  0.071966  0.627317  0.368899  1
  Si  Si265  1  0.571627  0.628299  0.467555  1
  Si  Si266  1  0.730050  0.571916  0.467815  1
  Si  Si267  1  0.227521  0.573774  0.413572  1
  Si  Si268  1  0.162993  0.919611  0.271990  1
  Si  Si269  1  0.662887  0.922081  0.302076  1
  Si  Si270  1  0.127076  0.727275  0.436344  1
  Si  Si271  1  0.624848  0.728235  0.467311  1
  Si  Si272  1  0.373298  0.269504  0.498108  1
  Si  Si273  1  0.873169  0.268149  0.529072  1
  Si  Si274  1  0.581375  0.433391  0.521271  1
  Si  Si275  1  0.161506  0.579639  0.519866  1
  Si  Si276  1  0.662577  0.578811  0.549873  1
  Si  Si277  1  0.269684  0.427087  0.498015  1
  Si  Si278  1  0.773897  0.427904  0.553817  1
  Si  Si279  1  0.427413  0.372838  0.497955  1
  Si  Si280  1  0.919763  0.931804  0.486409  1
  Si  Si281  1  0.071629  0.872788  0.529647  1
  Si  Si282  1  0.125054  0.772268  0.552522  1
  Si  Si283  1  0.582332  0.067803  0.550409  1
  Si  Si284  1  0.931013  0.162642  0.486018  1
  Si  Si285  1  0.432077  0.163974  0.520964  1
  Si  Si286  1  0.272984  0.073538  0.530334  1
  Si  Si287  1  0.769363  0.069938  0.583051  1
  Si  Si288  1  0.426656  0.126474  0.553167  1
  Si  Si289  1  0.067754  0.664450  0.550209  1
  Si  Si290  1  0.569134  0.663181  0.515810  1
  Si  Si291  1  0.917638  0.568837  0.515089  1
  Si  Si292  1  0.071966  0.627317  0.583372  1
  Si  Si293  1  0.162993  0.919611  0.486463  1
  Si  Si294  1  0.662887  0.922081  0.516549  1
  H  H295  1  0.421287  0.253661  0.189743  1
  H  H296  1  0.932832  0.302261  0.124330  1
  H  H297  1  0.850112  0.435578  0.144871  1
  H  H298  1  0.152035  0.932655  0.124539  1
  H  H299  1  0.695935  0.848168  0.172426  1
  H  H300  1  0.197033  0.848369  0.143598  1
  H  H301  1  0.567597  0.804050  0.153449  1
  H  H302  1  0.331042  0.320630  0.159530  1
  H  H303  1  0.803292  0.150512  0.152961  1
  H  H304  1  0.849282  0.064829  0.172129  1
  H  H305  1  0.151482  0.568008  0.153176  1
  H  H306  1  0.067170  0.696333  0.172205  1
  H  H307  1  0.932832  0.302261  0.579134  1
  H  H308  1  0.850112  0.435578  0.599675  1
  H  H309  1  0.669123  0.679183  0.592063  1
  H  H310  1  0.152035  0.932655  0.579343  1
  H  H311  1  0.197033  0.848369  0.598402  1
  H  H312  1  0.302754  0.151708  0.579470  1
  H  H313  1  0.803292  0.150512  0.607765  1
  H  H314  1  0.434626  0.196430  0.599057  1
  H  H315  1  0.849282  0.064829  0.626933  1
  H  H316  1  0.151482  0.568008  0.607980  1
  H  H317  1  0.578690  0.746252  0.561960  1
  H  H318  1  0.067170  0.696333  0.627009  1
