# generated using pymatgen
data_Si6H2O13
_symmetry_space_group_name_H-M   'P 1'
_cell_length_a   5.08855878
_cell_length_b   10.83973680
_cell_length_c   45.58060434
_cell_angle_alpha   133.19146784
_cell_angle_beta   90.00000000
_cell_angle_gamma   90.00000000
_symmetry_Int_Tables_number   1
_chemical_formula_structural   Si6H2O13
_chemical_formula_sum   'Si12 H4 O26'
_cell_volume   1833.00298629
_cell_formula_units_Z   2
loop_
 _symmetry_equiv_pos_site_id
 _symmetry_equiv_pos_as_xyz
  1  'x, y, z'
loop_
 _atom_site_type_symbol
 _atom_site_label
 _atom_site_symmetry_multiplicity
 _atom_site_fract_x
 _atom_site_fract_y
 _atom_site_fract_z
 _atom_site_occupancy
  O  O1  1  0.994116  0.000000  0.227896  1
  O  O2  1  0.494116  0.001117  0.228144  1
  O  O3  1  0.743159  0.846751  0.243154  1
  O  O4  1  0.742364  0.728410  0.170205  1
  O  O5  1  0.242364  0.272299  0.203336  1
  O  O6  1  0.242364  0.272299  0.258734  1
  O  O7  1  0.533950  0.480899  0.264989  1
  O  O8  1  0.994116  -0.000000  0.390665  1
  O  O9  1  0.494116  0.001117  0.390913  1
  O  O10  1  0.994116  0.000000  0.308167  1
  O  O11  1  0.494116  0.001117  0.308416  1
  O  O12  1  0.743159  0.846751  0.405923  1
  O  O13  1  0.243159  0.153959  0.293158  1
  O  O14  1  0.742364  0.728410  0.332975  1
  O  O15  1  0.742364  0.728410  0.277577  1
  O  O16  1  0.242364  0.272299  0.366106  1
  O  O17  1  0.242364  0.272299  0.421503  1
  O  O18  1  0.533950  0.480899  0.427758  1
  O  O19  1  0.033950  0.519811  0.271322  1
  O  O20  1  0.994116  0.000000  0.470937  1
  O  O21  1  0.494116  0.001117  0.471185  1
  O  O22  1  0.243159  0.153959  0.455927  1
  O  O23  1  0.742364  0.728410  0.495744  1
  O  O24  1  0.742364  0.728410  0.440347  1
  O  O25  1  0.242364  0.272299  0.528875  1
  O  O26  1  0.033950  0.519811  0.434092  1
  Si  Si27  1  0.743305  0.890048  0.216449  1
  Si  Si28  1  0.243305  0.110661  0.252358  1
  Si  Si29  1  0.262952  0.388719  0.249985  1
  Si  Si30  1  0.743305  0.890048  0.379219  1
  Si  Si31  1  0.743305  0.890048  0.283953  1
  Si  Si32  1  0.243305  0.110662  0.319862  1
  Si  Si33  1  0.243305  0.110661  0.415128  1
  Si  Si34  1  0.762952  0.611991  0.286326  1
  Si  Si35  1  0.262952  0.388719  0.412754  1
  Si  Si36  1  0.743305  0.890048  0.446722  1
  Si  Si37  1  0.243305  0.110662  0.482632  1
  Si  Si38  1  0.762952  0.611991  0.449096  1
  H  H39  1  0.742364  0.728410  0.150460  1
  H  H40  1  0.242364  0.272299  0.183591  1
  H  H41  1  0.742364  0.728410  0.515489  1
  H  H42  1  0.242364  0.272299  0.548621  1
