# generated using pymatgen
data_Si35(HO18)4
_symmetry_space_group_name_H-M   'P 1'
_cell_length_a   19.80640796
_cell_length_b   19.84885801
_cell_length_c   51.01003704
_cell_angle_alpha   90.00000000
_cell_angle_beta   90.00000000
_cell_angle_gamma   90.00000000
_symmetry_Int_Tables_number   1
_chemical_formula_structural   Si35(HO18)4
_chemical_formula_sum   'Si140 H16 O288'
_cell_volume   20053.8094492
_cell_formula_units_Z   4
loop_
 _symmetry_equiv_pos_site_id
 _symmetry_equiv_pos_as_xyz
  1  'x, y, z'
loop_
 _atom_site_type_symbol
 _atom_site_label
 _atom_site_symmetry_multiplicity
 _atom_site_fract_x
 _atom_site_fract_y
 _atom_site_fract_z
 _atom_site_occupancy
  O  O1  1  0.488365  0.019083  0.159810  1
  O  O2  1  0.376780  0.012727  0.214224  1
  O  O3  1  0.017550  0.121031  0.397241  1
  O  O4  1  0.441599  0.131633  0.172993  1
  O  O5  1  0.410663  0.056350  0.258986  1
  O  O6  1  0.131733  0.089078  0.379595  1
  O  O7  1  0.366582  0.027576  0.166996  1
  O  O8  1  0.395373  0.134140  0.219544  1
  O  O9  1  0.028745  0.103311  0.349755  1
  O  O10  1  0.071415  0.288580  0.180126  1
  O  O11  1  0.428982  0.071286  0.124937  1
  O  O12  1  0.288023  0.071751  0.236258  1
  O  O13  1  0.073358  0.211676  0.374104  1
  O  O14  1  0.000000  0.177987  0.173064  1
  O  O15  1  0.079260  0.061477  0.232506  1
  O  O16  1  0.179063  0.090521  0.208287  1
  O  O17  1  0.002899  0.320810  0.367336  1
  O  O18  1  0.080227  0.181681  0.210060  1
  O  O19  1  0.003474  0.078563  0.136840  1
  O  O20  1  0.475856  0.233096  0.205816  1
  O  O21  1  0.234460  0.004667  0.393420  1
  O  O22  1  0.475962  0.266302  0.400040  1
  O  O23  1  0.493117  0.023376  0.298886  1
  O  O24  1  0.063301  0.079971  0.183975  1
  O  O25  1  0.123097  0.513833  0.214066  1
  O  O26  1  0.019473  0.379093  0.202726  1
  O  O27  1  0.482526  0.624425  0.396657  1
  O  O28  1  0.011373  0.520210  0.159549  1
  O  O29  1  0.486732  0.482665  0.354675  1
  O  O30  1  0.089108  0.557764  0.258777  1
  O  O31  1  0.134988  0.408874  0.185521  1
  O  O32  1  0.367243  0.590113  0.380210  1
  O  O33  1  0.058334  0.632953  0.172843  1
  O  O34  1  0.441855  0.368640  0.367354  1
  O  O35  1  0.104490  0.635411  0.219344  1
  O  O36  1  0.031635  0.399523  0.155326  1
  O  O37  1  0.468287  0.603481  0.349686  1
  O  O38  1  0.133124  0.528343  0.166901  1
  O  O39  1  0.364837  0.471134  0.361728  1
  O  O40  1  0.211998  0.572470  0.236114  1
  O  O41  1  0.070920  0.571439  0.124743  1
  O  O42  1  0.428069  0.428750  0.319468  1
  O  O43  1  0.320960  0.590498  0.208278  1
  O  O44  1  0.408730  0.499569  0.277306  1
  O  O45  1  0.319144  0.496103  0.238431  1
  O  O46  1  0.004720  0.421025  0.332013  1
  O  O47  1  0.496081  0.579419  0.137296  1
  O  O48  1  0.265506  0.505486  0.393124  1
  O  O49  1  0.233235  0.496709  0.198602  1
  O  O50  1  0.003355  0.522728  0.298577  1
  O  O51  1  0.420492  0.561416  0.232780  1
  O  O52  1  0.436492  0.579707  0.184355  1
  O  O53  1  0.065872  0.421971  0.378267  1
  O  O54  1  0.440131  0.436356  0.238404  1
  O  O55  1  0.014024  0.981733  0.354280  1
  O  O56  1  0.481931  0.877296  0.201886  1
  O  O57  1  0.057995  0.865587  0.366401  1
  O  O58  1  0.364985  0.908261  0.185581  1
  O  O59  1  0.135096  0.968640  0.362509  1
  O  O60  1  0.466993  0.898904  0.154919  1
  O  O61  1  0.426779  0.712009  0.373707  1
  O  O62  1  0.071882  0.928572  0.319884  1
  O  O63  1  0.428061  0.788809  0.179570  1
  O  O64  1  0.498379  0.821053  0.366468  1
  O  O65  1  0.180556  0.996503  0.238674  1
  O  O66  1  0.420639  0.681258  0.209352  1
  O  O67  1  0.492397  0.919875  0.330950  1
  O  O68  1  0.022996  0.767063  0.400259  1
  O  O69  1  0.266421  0.996167  0.198770  1
  O  O70  1  0.024907  0.735021  0.205604  1
  O  O71  1  0.435189  0.920436  0.377818  1
  O  O72  1  0.060769  0.936754  0.238559  1
  O  O73  1  0.499435  0.679226  0.172963  1
  O  O74  1  0.089051  0.000000  0.277288  1
  O  O75  1  0.876143  0.013489  0.395498  1
  O  O76  1  0.516521  0.122695  0.213332  1
  O  O77  1  0.909933  0.055621  0.350593  1
  O  O78  1  0.631771  0.088345  0.229965  1
  O  O79  1  0.896637  0.133947  0.389951  1
  O  O80  1  0.530252  0.103045  0.260428  1
  O  O81  1  0.788133  0.071754  0.373658  1
  O  O82  1  0.573179  0.210522  0.235781  1
  O  O83  1  0.679507  0.089458  0.401690  1
  O  O84  1  0.501763  0.319961  0.242251  1
  O  O85  1  0.910149  0.001235  0.137490  1
  O  O86  1  0.818626  0.003561  0.176466  1
  O  O87  1  0.578981  0.318248  0.205904  1
  O  O88  1  0.579200  0.181291  0.400596  1
  O  O89  1  0.734129  0.004162  0.216663  1
  O  O90  1  0.977450  0.265493  0.209785  1
  O  O91  1  0.994516  0.023198  0.310910  1
  O  O92  1  0.578933  0.060487  0.377598  1
  O  O93  1  0.937918  0.064356  0.176764  1
  O  O94  1  0.987173  0.482421  0.254873  1
  O  O95  1  0.621466  0.513056  0.395149  1
  O  O96  1  0.876481  0.485814  0.200594  1
  O  O97  1  0.983123  0.623694  0.212964  1
  O  O98  1  0.942704  0.368546  0.241953  1
  O  O99  1  0.588664  0.558089  0.350859  1
  O  O100  1  0.910436  0.443372  0.155686  1
  O  O101  1  0.867729  0.589780  0.229330  1
  O  O102  1  0.865327  0.470786  0.247776  1
  O  O103  1  0.604039  0.634929  0.390679  1
  O  O104  1  0.898322  0.365097  0.195030  1
  O  O105  1  0.968480  0.603131  0.259790  1
  O  O106  1  0.928605  0.428248  0.290064  1
  O  O107  1  0.712291  0.571072  0.374095  1
  O  O108  1  0.788519  0.427001  0.178994  1
  O  O109  1  0.908922  0.499262  0.332124  1
  O  O110  1  0.589058  0.501814  0.137835  1
  O  O111  1  0.821542  0.590044  0.401305  1
  O  O112  1  0.679283  0.409728  0.206902  1
  O  O113  1  0.819991  0.495569  0.371190  1
  O  O114  1  0.681063  0.503953  0.176572  1
  O  O115  1  0.504003  0.420732  0.277556  1
  O  O116  1  0.765892  0.504545  0.216569  1
  O  O117  1  0.994921  0.476422  0.115664  1
  O  O118  1  0.503179  0.522879  0.310930  1
  O  O119  1  0.565532  0.420773  0.231454  1
  O  O120  1  0.940763  0.436532  0.371098  1
  O  O121  1  0.561859  0.565226  0.177178  1
  O  O122  1  0.920873  0.561424  0.376642  1
  O  O123  1  0.578680  0.439955  0.182924  1
  O  O124  1  0.623532  0.985033  0.200787  1
  O  O125  1  0.514447  0.982272  0.255417  1
  O  O126  1  0.589137  0.941876  0.156006  1
  O  O127  1  0.557176  0.867624  0.242081  1
  O  O128  1  0.603259  0.864195  0.195531  1
  O  O129  1  0.635488  0.968558  0.247803  1
  O  O130  1  0.711558  0.926564  0.179076  1
  O  O131  1  0.928754  0.711922  0.235192  1
  O  O132  1  0.570489  0.927926  0.289806  1
  O  O133  1  0.821149  0.909728  0.206939  1
  O  O134  1  0.000000  0.821395  0.242263  1
  O  O135  1  0.560146  0.936104  0.370481  1
  O  O136  1  0.587515  0.000000  0.332592  1
  O  O137  1  0.680663  0.995750  0.371147  1
  O  O138  1  0.920567  0.681292  0.399999  1
  O  O139  1  0.995727  0.920859  0.277843  1
  O  O140  1  0.921978  0.819446  0.205695  1
  O  O141  1  0.505170  0.977070  0.115929  1
  O  O142  1  0.523093  0.765829  0.209542  1
  O  O143  1  0.920917  0.939483  0.182625  1
  O  O144  1  0.936079  0.920489  0.231181  1
  O  O145  1  0.488365  0.019083  0.549220  1
  O  O146  1  0.376780  0.012727  0.603634  1
  O  O147  1  0.441599  0.131633  0.562403  1
  O  O148  1  0.410663  0.056350  0.648396  1
  O  O149  1  0.366582  0.027576  0.556407  1
  O  O150  1  0.395373  0.134140  0.608954  1
  O  O151  1  0.071415  0.288580  0.569536  1
  O  O152  1  0.428982  0.071286  0.514347  1
  O  O153  1  0.288023  0.071751  0.625668  1
  O  O154  1  -0.000000  0.177987  0.562474  1
  O  O155  1  0.410859  0.000000  0.471573  1
  O  O156  1  0.079260  0.061477  0.621916  1
  O  O157  1  0.179063  0.090521  0.597697  1
  O  O158  1  0.080227  0.181681  0.599470  1
  O  O159  1  0.319438  0.005705  0.433187  1
  O  O160  1  0.079806  0.319337  0.403678  1
  O  O161  1  0.003474  0.078563  0.526250  1
  O  O162  1  0.475856  0.233096  0.595226  1
  O  O163  1  0.493117  0.023376  0.688297  1
  O  O164  1  0.063301  0.079971  0.573385  1
  O  O165  1  0.440007  0.063623  0.432800  1
  O  O166  1  0.376151  0.485809  0.408847  1
  O  O167  1  0.123097  0.513833  0.603476  1
  O  O168  1  0.019473  0.379093  0.592136  1
  O  O169  1  0.011373  0.520210  0.548959  1
  O  O170  1  0.410616  0.442151  0.453510  1
  O  O171  1  0.089108  0.557764  0.648187  1
  O  O172  1  0.134988  0.408874  0.574932  1
  O  O173  1  0.058334  0.632953  0.562254  1
  O  O174  1  0.395408  0.364619  0.413893  1
  O  O175  1  0.104490  0.635411  0.608754  1
  O  O176  1  0.031635  0.399523  0.544737  1
  O  O177  1  0.133124  0.528343  0.556312  1
  O  O178  1  0.288032  0.427907  0.430701  1
  O  O179  1  0.211998  0.572470  0.625524  1
  O  O180  1  0.070920  0.571439  0.514153  1
  O  O181  1  0.179282  0.410940  0.402748  1
  O  O182  1  0.320960  0.590498  0.597688  1
  O  O183  1  0.090464  0.499677  0.472032  1
  O  O184  1  0.408730  0.499569  0.666716  1
  O  O185  1  0.180708  0.504674  0.433333  1
  O  O186  1  0.319144  0.496103  0.627841  1
  O  O187  1  0.496081  0.579419  0.526706  1
  O  O188  1  0.233235  0.496709  0.588013  1
  O  O189  1  0.003355  0.522728  0.687987  1
  O  O190  1  0.495089  0.477184  0.493293  1
  O  O191  1  0.078884  0.440210  0.426977  1
  O  O192  1  0.420492  0.561416  0.622190  1
  O  O193  1  0.436492  0.579707  0.573765  1
  O  O194  1  0.060593  0.565142  0.433314  1
  O  O195  1  0.440131  0.436356  0.627814  1
  O  O196  1  0.123196  0.987317  0.409309  1
  O  O197  1  0.481931  0.877296  0.591296  1
  O  O198  1  0.091579  0.942269  0.454280  1
  O  O199  1  0.364985  0.908261  0.574991  1
  O  O200  1  0.103263  0.866736  0.413602  1
  O  O201  1  0.466993  0.898904  0.544329  1
  O  O202  1  0.212423  0.928824  0.430342  1
  O  O203  1  0.428061  0.788809  0.568980  1
  O  O204  1  0.320470  0.909510  0.402156  1
  O  O205  1  0.420540  0.819054  0.403284  1
  O  O206  1  0.180556  0.996503  0.628084  1
  O  O207  1  0.420639  0.681258  0.598763  1
  O  O208  1  0.266421  0.996167  0.588180  1
  O  O209  1  0.024907  0.735021  0.595014  1
  O  O210  1  0.003956  0.976145  0.492590  1
  O  O211  1  0.060769  0.936754  0.627970  1
  O  O212  1  0.419553  0.939160  0.426564  1
  O  O213  1  0.499435  0.679226  0.562373  1
  O  O214  1  0.089051  0.000000  0.666698  1
  O  O215  1  0.516521  0.122695  0.602742  1
  O  O216  1  0.986580  0.015965  0.449846  1
  O  O217  1  0.631771  0.088345  0.619375  1
  O  O218  1  0.942219  0.130916  0.436775  1
  O  O219  1  0.530252  0.103045  0.649838  1
  O  O220  1  0.864819  0.029410  0.442663  1
  O  O221  1  0.573179  0.210522  0.625192  1
  O  O222  1  0.572920  0.288811  0.430243  1
  O  O223  1  0.927801  0.072409  0.484440  1
  O  O224  1  0.501763  0.319961  0.631661  1
  O  O225  1  0.501429  0.179618  0.436776  1
  O  O226  1  0.910149  0.001235  0.526900  1
  O  O227  1  0.818626  0.003561  0.565876  1
  O  O228  1  0.578981  0.318248  0.595314  1
  O  O229  1  0.504618  0.079483  0.472373  1
  O  O230  1  0.734129  0.004162  0.606073  1
  O  O231  1  0.977450  0.265493  0.599195  1
  O  O232  1  0.978131  0.232610  0.403506  1
  O  O233  1  0.565391  0.078799  0.426153  1
  O  O234  1  0.937918  0.064356  0.566174  1
  O  O235  1  0.987173  0.482421  0.644283  1
  O  O236  1  0.511619  0.518715  0.449745  1
  O  O237  1  0.876481  0.485814  0.590004  1
  O  O238  1  0.983123  0.623694  0.602374  1
  O  O239  1  0.516644  0.376654  0.407634  1
  O  O240  1  0.942704  0.368546  0.631363  1
  O  O241  1  0.556634  0.632769  0.437013  1
  O  O242  1  0.910436  0.443372  0.545096  1
  O  O243  1  0.867729  0.589780  0.618740  1
  O  O244  1  0.632253  0.410766  0.424070  1
  O  O245  1  0.865327  0.470786  0.637187  1
  O  O246  1  0.633561  0.530166  0.442270  1
  O  O247  1  0.898322  0.365097  0.584440  1
  O  O248  1  0.968480  0.603131  0.649201  1
  O  O249  1  0.531433  0.397566  0.454588  1
  O  O250  1  0.928605  0.428248  0.679474  1
  O  O251  1  0.571664  0.572973  0.484631  1
  O  O252  1  0.788519  0.427001  0.568404  1
  O  O253  1  0.589058  0.501814  0.527245  1
  O  O254  1  0.679283  0.409728  0.596312  1
  O  O255  1  0.681063  0.503953  0.565982  1
  O  O256  1  0.995211  0.578809  0.471898  1
  O  O257  1  0.504003  0.420732  0.666966  1
  O  O258  1  0.734178  0.496610  0.410749  1
  O  O259  1  0.765892  0.504545  0.605979  1
  O  O260  1  0.994921  0.476422  0.505074  1
  O  O261  1  0.565532  0.420773  0.620864  1
  O  O262  1  0.936154  0.580000  0.425092  1
  O  O263  1  0.561859  0.565226  0.566588  1
  O  O264  1  0.578680  0.439955  0.572334  1
  O  O265  1  0.623532  0.985033  0.590197  1
  O  O266  1  0.982407  0.876915  0.406507  1
  O  O267  1  0.514447  0.982272  0.644827  1
  O  O268  1  0.589137  0.941876  0.545417  1
  O  O269  1  0.867686  0.910299  0.424363  1
  O  O270  1  0.557176  0.867624  0.631491  1
  O  O271  1  0.603259  0.864195  0.584941  1
  O  O272  1  0.971631  0.894671  0.453664  1
  O  O273  1  0.635488  0.968558  0.637213  1
  O  O274  1  0.711558  0.926564  0.568486  1
  O  O275  1  0.926139  0.788124  0.429602  1
  O  O276  1  0.928754  0.711922  0.624602  1
  O  O277  1  0.570489  0.927926  0.679216  1
  O  O278  1  0.821149  0.909728  0.596349  1
  O  O279  1  0.997821  0.679975  0.436863  1
  O  O280  1  -0.000000  0.821395  0.631674  1
  O  O281  1  0.995727  0.920859  0.667253  1
  O  O282  1  0.921978  0.819446  0.595105  1
  O  O283  1  0.765544  0.994603  0.411398  1
  O  O284  1  0.524014  0.734788  0.403629  1
  O  O285  1  0.505170  0.977070  0.505339  1
  O  O286  1  0.523093  0.765829  0.598952  1
  O  O287  1  0.920917  0.939483  0.572036  1
  O  O288  1  0.936079  0.920489  0.620591  1
  Si  Si289  1  0.428049  0.068203  0.155675  1
  Si  Si290  1  0.366142  0.071745  0.234517  1
  Si  Si291  1  0.067517  0.133609  0.374166  1
  Si  Si292  1  0.032711  0.227799  0.193855  1
  Si  Si293  1  0.229567  0.038199  0.220692  1
  Si  Si294  1  0.034271  0.269904  0.387443  1
  Si  Si295  1  0.453421  0.159340  0.201207  1
  Si  Si296  1  0.483075  0.044645  0.270029  1
  Si  Si297  1  0.159852  0.017121  0.384596  1
  Si  Si298  1  0.101497  0.106991  0.208865  1
  Si  Si299  1  0.001774  0.100712  0.166318  1
  Si  Si300  1  0.133893  0.573013  0.234295  1
  Si  Si301  1  0.070276  0.368778  0.179781  1
  Si  Si302  1  0.430168  0.634106  0.373801  1
  Si  Si303  1  0.071830  0.569295  0.155617  1
  Si  Si304  1  0.427417  0.432479  0.350245  1
  Si  Si305  1  0.270254  0.538496  0.220560  1
  Si  Si306  1  0.461437  0.467690  0.295927  1
  Si  Si307  1  0.016151  0.544987  0.269440  1
  Si  Si308  1  0.158958  0.481399  0.189481  1
  Si  Si309  1  0.339402  0.517631  0.384490  1
  Si  Si310  1  0.046264  0.660886  0.201061  1
  Si  Si311  1  0.453586  0.340092  0.395473  1
  Si  Si312  1  0.394856  0.496792  0.247531  1
  Si  Si313  1  0.005531  0.398170  0.361386  1
  Si  Si314  1  0.497856  0.601726  0.166893  1
  Si  Si315  1  0.398106  0.605994  0.209124  1
  Si  Si316  1  0.073411  0.929446  0.350769  1
  Si  Si317  1  0.428802  0.868089  0.179107  1
  Si  Si318  1  0.467694  0.769597  0.387109  1
  Si  Si319  1  0.036698  0.968090  0.296815  1
  Si  Si320  1  0.467691  0.729679  0.193251  1
  Si  Si321  1  0.046569  0.841297  0.394468  1
  Si  Si322  1  0.340673  0.980686  0.189610  1
  Si  Si323  1  0.105082  0.997521  0.247377  1
  Si  Si324  1  0.496003  0.898568  0.359956  1
  Si  Si325  1  0.866118  0.072018  0.375091  1
  Si  Si326  1  0.568816  0.132660  0.236206  1
  Si  Si327  1  0.730750  0.036673  0.389460  1
  Si  Si328  1  0.532707  0.267820  0.222025  1
  Si  Si329  1  0.982502  0.044410  0.339760  1
  Si  Si330  1  0.660202  0.016138  0.225311  1
  Si  Si331  1  0.894826  0.003626  0.167621  1
  Si  Si332  1  0.601690  0.105385  0.401274  1
  Si  Si333  1  0.927866  0.432203  0.259305  1
  Si  Si334  1  0.633193  0.572238  0.375660  1
  Si  Si335  1  0.866616  0.426963  0.180312  1
  Si  Si336  1  0.930661  0.633314  0.235682  1
  Si  Si337  1  0.961764  0.467417  0.313577  1
  Si  Si338  1  0.772165  0.537566  0.389202  1
  Si  Si339  1  0.730901  0.462169  0.194720  1
  Si  Si340  1  0.957218  0.340383  0.213614  1
  Si  Si341  1  0.515765  0.545142  0.340070  1
  Si  Si342  1  0.983331  0.457236  0.144800  1
  Si  Si343  1  0.839825  0.517313  0.225034  1
  Si  Si344  1  0.601406  0.394246  0.206455  1
  Si  Si345  1  0.898289  0.605975  0.400262  1
  Si  Si346  1  0.895325  0.496728  0.361905  1
  Si  Si347  1  0.604701  0.504338  0.168031  1
  Si  Si348  1  0.504606  0.397599  0.248211  1
  Si  Si349  1  0.633506  0.926038  0.180559  1
  Si  Si350  1  0.573319  0.930253  0.259106  1
  Si  Si351  1  0.769065  0.961819  0.194799  1
  Si  Si352  1  0.969080  0.770799  0.221776  1
  Si  Si353  1  0.534186  0.967326  0.313027  1
  Si  Si354  1  0.516383  0.956164  0.145002  1
  Si  Si355  1  0.544901  0.839913  0.213949  1
  Si  Si356  1  0.604984  0.997203  0.362469  1
  Si  Si357  1  0.996920  0.898342  0.248514  1
  Si  Si358  1  0.898670  0.894561  0.206226  1
  Si  Si359  1  0.428049  0.068203  0.545085  1
  Si  Si360  1  0.366142  0.071745  0.623927  1
  Si  Si361  1  0.032711  0.227799  0.583265  1
  Si  Si362  1  0.463381  0.032168  0.491169  1
  Si  Si363  1  0.229567  0.038199  0.610102  1
  Si  Si364  1  0.453421  0.159340  0.590617  1
  Si  Si365  1  0.483075  0.044645  0.659439  1
  Si  Si366  1  0.101497  0.106991  0.598275  1
  Si  Si367  1  0.394114  0.003199  0.441540  1
  Si  Si368  1  0.001774  0.100712  0.555729  1
  Si  Si369  1  0.366028  0.426652  0.428992  1
  Si  Si370  1  0.133893  0.573013  0.623706  1
  Si  Si371  1  0.070276  0.368778  0.569192  1
  Si  Si372  1  0.071830  0.569295  0.545027  1
  Si  Si373  1  0.230566  0.463364  0.415033  1
  Si  Si374  1  0.270254  0.538496  0.609970  1
  Si  Si375  1  0.037151  0.531096  0.490690  1
  Si  Si376  1  0.483554  0.455971  0.464351  1
  Si  Si377  1  0.016151  0.544987  0.658850  1
  Si  Si378  1  0.158958  0.481399  0.578891  1
  Si  Si379  1  0.046264  0.660886  0.590471  1
  Si  Si380  1  0.104712  0.503975  0.442332  1
  Si  Si381  1  0.394856  0.496792  0.636941  1
  Si  Si382  1  0.497856  0.601726  0.556303  1
  Si  Si383  1  0.398106  0.605994  0.598534  1
  Si  Si384  1  0.101535  0.395217  0.403222  1
  Si  Si385  1  0.132656  0.927859  0.429521  1
  Si  Si386  1  0.428802  0.868089  0.568517  1
  Si  Si387  1  0.273698  0.962795  0.415050  1
  Si  Si388  1  0.467691  0.729679  0.582661  1
  Si  Si389  1  0.019007  0.952535  0.463677  1
  Si  Si390  1  0.340673  0.980686  0.579020  1
  Si  Si391  1  0.396869  0.894599  0.402881  1
  Si  Si392  1  0.105082  0.997521  0.636787  1
  Si  Si393  1  0.568816  0.132660  0.625616  1
  Si  Si394  1  0.927243  0.067893  0.454099  1
  Si  Si395  1  0.532707  0.267820  0.611435  1
  Si  Si396  1  0.532368  0.231558  0.416486  1
  Si  Si397  1  0.962038  0.032478  0.507032  1
  Si  Si398  1  0.660202  0.016138  0.614721  1
  Si  Si399  1  0.954955  0.158171  0.408484  1
  Si  Si400  1  0.894826  0.003626  0.557031  1
  Si  Si401  1  0.504456  0.102091  0.442885  1
  Si  Si402  1  0.927866  0.432203  0.648715  1
  Si  Si403  1  0.570910  0.568656  0.454262  1
  Si  Si404  1  0.866616  0.426963  0.569722  1
  Si  Si405  1  0.930661  0.633314  0.625092  1
  Si  Si406  1  0.569215  0.366669  0.430393  1
  Si  Si407  1  0.537028  0.532974  0.507091  1
  Si  Si408  1  0.730901  0.462169  0.584130  1
  Si  Si409  1  0.957218  0.340383  0.603024  1
  Si  Si410  1  0.545674  0.660993  0.408751  1
  Si  Si411  1  0.983331  0.457236  0.534211  1
  Si  Si412  1  0.839825  0.517313  0.614444  1
  Si  Si413  1  0.659300  0.483734  0.419319  1
  Si  Si414  1  0.601406  0.394246  0.595865  1
  Si  Si415  1  0.604701  0.504338  0.557442  1
  Si  Si416  1  0.995926  0.603011  0.442751  1
  Si  Si417  1  0.504606  0.397599  0.637622  1
  Si  Si418  1  0.633506  0.926038  0.569970  1
  Si  Si419  1  0.931027  0.865967  0.429734  1
  Si  Si420  1  0.573319  0.930253  0.648516  1
  Si  Si421  1  0.769065  0.961819  0.584209  1
  Si  Si422  1  0.966372  0.730137  0.416447  1
  Si  Si423  1  0.969080  0.770799  0.611186  1
  Si  Si424  1  0.516383  0.956164  0.534412  1
  Si  Si425  1  0.839436  0.982581  0.420037  1
  Si  Si426  1  0.544901  0.839913  0.603359  1
  Si  Si427  1  0.996920  0.898342  0.637924  1
  Si  Si428  1  0.898670  0.894561  0.595636  1
  H  H429  1  0.428982  0.071286  0.107294  1
  H  H430  1  0.003474  0.078563  0.119196  1
  H  H431  1  0.070920  0.571439  0.107099  1
  H  H432  1  0.496081  0.579419  0.119652  1
  H  H433  1  0.910149  0.001235  0.119846  1
  H  H434  1  0.589058  0.501814  0.120191  1
  H  H435  1  0.994921  0.476422  0.098020  1
  H  H436  1  0.505170  0.977070  0.098285  1
  H  H437  1  0.493117  0.023376  0.705940  1
  H  H438  1  0.408730  0.499569  0.684360  1
  H  H439  1  0.003355  0.522728  0.705631  1
  H  H440  1  0.089051  0.000000  0.684342  1
  H  H441  1  0.928605  0.428248  0.697118  1
  H  H442  1  0.504003  0.420732  0.684610  1
  H  H443  1  0.570489  0.927926  0.696860  1
  H  H444  1  0.995727  0.920859  0.684896  1
