# generated using pymatgen
data_Si36H2O73
_symmetry_space_group_name_H-M   'P 1'
_cell_length_a   16.03258684
_cell_length_b   9.70609838
_cell_length_c   72.37372392
_cell_angle_alpha   90.00000000
_cell_angle_beta   90.00000000
_cell_angle_gamma   90.00000000
_symmetry_Int_Tables_number   1
_chemical_formula_structural   Si36H2O73
_chemical_formula_sum   'Si144 H8 O292'
_cell_volume   11262.3549143
_cell_formula_units_Z   4
loop_
 _symmetry_equiv_pos_site_id
 _symmetry_equiv_pos_as_xyz
  1  'x, y, z'
loop_
 _atom_site_type_symbol
 _atom_site_label
 _atom_site_symmetry_multiplicity
 _atom_site_fract_x
 _atom_site_fract_y
 _atom_site_fract_z
 _atom_site_occupancy
  O  O1  1  0.178244  0.054056  0.081521  1
  O  O2  1  0.321887  0.554057  0.081521  1
  O  O3  1  0.178244  0.054056  0.312670  1
  O  O4  1  0.321887  0.945674  0.197096  1
  O  O5  1  0.821887  0.554057  0.202435  1
  O  O6  1  0.678244  0.445673  0.086860  1
  O  O7  1  0.821886  0.945674  0.086860  1
  O  O8  1  0.678244  0.054056  0.202435  1
  O  O9  1  0.178243  0.445673  0.197096  1
  O  O10  1  0.321887  0.554057  0.312670  1
  O  O11  1  0.286111  0.131686  0.107149  1
  O  O12  1  0.214019  0.868043  0.222723  1
  O  O13  1  0.714020  0.631687  0.176807  1
  O  O14  1  0.786111  0.368043  0.292382  1
  O  O15  1  0.714019  0.868043  0.292382  1
  O  O16  1  0.786111  0.131686  0.176807  1
  O  O17  1  0.286111  0.368043  0.222723  1
  O  O18  1  0.214020  0.631686  0.107149  1
  O  O19  1  0.209188  0.894067  0.109597  1
  O  O20  1  0.290943  0.105662  0.225172  1
  O  O21  1  0.790943  0.394068  0.174359  1
  O  O22  1  0.709187  0.605662  0.289933  1
  O  O23  1  0.790943  0.105662  0.289933  1
  O  O24  1  0.709188  0.894067  0.174359  1
  O  O25  1  0.209187  0.605662  0.225172  1
  O  O26  1  0.290943  0.394068  0.109597  1
  O  O27  1  0.133481  0.115174  0.115044  1
  O  O28  1  0.366649  0.884555  0.230618  1
  O  O29  1  0.866649  0.615175  0.168912  1
  O  O30  1  0.633481  0.384555  0.284486  1
  O  O31  1  0.866649  0.884555  0.284486  1
  O  O32  1  0.633481  0.115174  0.168912  1
  O  O33  1  0.133481  0.384555  0.230618  1
  O  O34  1  0.366649  0.615174  0.115044  1
  O  O35  1  0.073824  0.775500  0.118590  1
  O  O36  1  0.426306  0.224229  0.234164  1
  O  O37  1  0.926306  0.275500  0.165366  1
  O  O38  1  0.573824  0.724230  0.280941  1
  O  O39  1  0.926306  0.224230  0.280941  1
  O  O40  1  0.573824  0.775500  0.165366  1
  O  O41  1  0.073824  0.724229  0.234164  1
  O  O42  1  0.426307  0.275500  0.118590  1
  O  O43  1  0.201034  0.739900  0.138686  1
  O  O44  1  0.299096  0.259830  0.254260  1
  O  O45  1  0.799096  0.239900  0.145271  1
  O  O46  1  0.701035  0.759829  0.260845  1
  O  O47  1  0.799096  0.259830  0.260845  1
  O  O48  1  0.701035  0.739900  0.145270  1
  O  O49  1  0.201034  0.759830  0.254260  1
  O  O50  1  0.299096  0.239900  0.138686  1
  O  O51  1  0.958623  0.756793  0.143393  1
  O  O52  1  0.541508  0.242937  0.258968  1
  O  O53  1  0.041508  0.256792  0.140563  1
  O  O54  1  0.458622  0.742937  0.256137  1
  O  O55  1  0.041508  0.242937  0.256137  1
  O  O56  1  0.458623  0.756792  0.140563  1
  O  O57  1  0.958623  0.742937  0.258968  1
  O  O58  1  0.541508  0.256793  0.143393  1
  O  O59  1  0.923260  0.893790  0.114028  1
  O  O60  1  0.576871  0.105940  0.229603  1
  O  O61  1  0.076871  0.393790  0.169927  1
  O  O62  1  0.423259  0.605940  0.285502  1
  O  O63  1  0.076871  0.105940  0.285502  1
  O  O64  1  0.423260  0.893790  0.169927  1
  O  O65  1  0.923260  0.605940  0.229603  1
  O  O66  1  0.576871  0.393790  0.114028  1
  O  O67  1  0.033275  0.989586  0.136174  1
  O  O68  1  0.466855  0.010144  0.251749  1
  O  O69  1  0.966856  0.489586  0.147782  1
  O  O70  1  0.533275  0.510144  0.263356  1
  O  O71  1  0.966856  0.010143  0.263356  1
  O  O72  1  0.533275  0.989586  0.147782  1
  O  O73  1  0.033275  0.510144  0.251749  1
  O  O74  1  0.466856  0.489586  0.136174  1
  O  O75  1  0.168604  0.117751  0.148475  1
  O  O76  1  0.331526  0.881979  0.264050  1
  O  O77  1  0.831526  0.617750  0.135481  1
  O  O78  1  0.668604  0.381979  0.251055  1
  O  O79  1  0.831526  0.881979  0.251055  1
  O  O80  1  0.668604  0.117750  0.135481  1
  O  O81  1  0.168604  0.381979  0.264050  1
  O  O82  1  0.331526  0.617751  0.148475  1
  O  O83  1  0.303799  0.065771  0.166013  1
  O  O84  1  0.196331  0.933959  0.281588  1
  O  O85  1  0.696332  0.565771  0.117943  1
  O  O86  1  0.803799  0.433959  0.233517  1
  O  O87  1  0.696332  0.933959  0.233517  1
  O  O88  1  0.803799  0.065770  0.117943  1
  O  O89  1  0.303799  0.433959  0.281588  1
  O  O90  1  0.196332  0.565771  0.166013  1
  O  O91  1  0.274278  0.806544  0.168787  1
  O  O92  1  0.225853  0.193185  0.284361  1
  O  O93  1  0.725853  0.306544  0.115169  1
  O  O94  1  0.774278  0.693186  0.230744  1
  O  O95  1  0.725853  0.193186  0.230744  1
  O  O96  1  0.774278  0.806544  0.115169  1
  O  O97  1  0.274278  0.693186  0.284361  1
  O  O98  1  0.225853  0.306544  0.168787  1
  O  O99  1  0.178244  0.054056  0.543819  1
  O  O100  1  0.321887  0.945674  0.428245  1
  O  O101  1  0.821887  0.554057  0.433584  1
  O  O102  1  0.678244  0.445673  0.318009  1
  O  O103  1  0.821886  0.945674  0.318009  1
  O  O104  1  0.678244  0.054056  0.433584  1
  O  O105  1  0.178243  0.445673  0.428245  1
  O  O106  1  0.321887  0.554057  0.543819  1
  O  O107  1  0.286111  0.131686  0.338298  1
  O  O108  1  0.214019  0.868043  0.453872  1
  O  O109  1  0.714020  0.631687  0.407956  1
  O  O110  1  0.786111  0.368043  0.523531  1
  O  O111  1  0.714019  0.868043  0.523531  1
  O  O112  1  0.786111  0.131686  0.407956  1
  O  O113  1  0.286111  0.368043  0.453872  1
  O  O114  1  0.214020  0.631686  0.338298  1
  O  O115  1  0.209188  0.894067  0.340746  1
  O  O116  1  0.290943  0.105662  0.456321  1
  O  O117  1  0.790943  0.394068  0.405508  1
  O  O118  1  0.709187  0.605662  0.521082  1
  O  O119  1  0.790943  0.105662  0.521082  1
  O  O120  1  0.709188  0.894067  0.405508  1
  O  O121  1  0.209187  0.605662  0.456321  1
  O  O122  1  0.290943  0.394068  0.340746  1
  O  O123  1  0.133481  0.115174  0.346193  1
  O  O124  1  0.366649  0.884555  0.461767  1
  O  O125  1  0.866649  0.615175  0.400061  1
  O  O126  1  0.633481  0.384555  0.515635  1
  O  O127  1  0.866649  0.884555  0.515635  1
  O  O128  1  0.633481  0.115174  0.400061  1
  O  O129  1  0.133481  0.384555  0.461767  1
  O  O130  1  0.366649  0.615174  0.346193  1
  O  O131  1  0.073824  0.775500  0.349739  1
  O  O132  1  0.426306  0.224229  0.465313  1
  O  O133  1  0.926306  0.275500  0.396515  1
  O  O134  1  0.573824  0.724230  0.512090  1
  O  O135  1  0.926306  0.224230  0.512090  1
  O  O136  1  0.573824  0.775500  0.396515  1
  O  O137  1  0.073824  0.724229  0.465313  1
  O  O138  1  0.426307  0.275500  0.349739  1
  O  O139  1  0.201034  0.739900  0.369835  1
  O  O140  1  0.299096  0.259830  0.485409  1
  O  O141  1  0.799096  0.239900  0.376420  1
  O  O142  1  0.701035  0.759829  0.491994  1
  O  O143  1  0.799096  0.259830  0.491994  1
  O  O144  1  0.701035  0.739900  0.376419  1
  O  O145  1  0.201034  0.759830  0.485409  1
  O  O146  1  0.299096  0.239900  0.369835  1
  O  O147  1  0.958623  0.756793  0.374542  1
  O  O148  1  0.541508  0.242937  0.490117  1
  O  O149  1  0.041508  0.256792  0.371711  1
  O  O150  1  0.458622  0.742937  0.487286  1
  O  O151  1  0.041508  0.242937  0.487286  1
  O  O152  1  0.458623  0.756792  0.371712  1
  O  O153  1  0.958623  0.742937  0.490117  1
  O  O154  1  0.541508  0.256793  0.374542  1
  O  O155  1  0.923260  0.893790  0.345177  1
  O  O156  1  0.576871  0.105940  0.460752  1
  O  O157  1  0.076871  0.393790  0.401076  1
  O  O158  1  0.423259  0.605940  0.516651  1
  O  O159  1  0.076871  0.105940  0.516651  1
  O  O160  1  0.423260  0.893790  0.401076  1
  O  O161  1  0.923260  0.605940  0.460752  1
  O  O162  1  0.576871  0.393790  0.345177  1
  O  O163  1  0.033275  0.989586  0.367323  1
  O  O164  1  0.466855  0.010144  0.482898  1
  O  O165  1  0.966856  0.489586  0.378930  1
  O  O166  1  0.533275  0.510144  0.494505  1
  O  O167  1  0.966856  0.010143  0.494505  1
  O  O168  1  0.533275  0.989586  0.378931  1
  O  O169  1  0.033275  0.510144  0.482898  1
  O  O170  1  0.466856  0.489586  0.367323  1
  O  O171  1  0.168604  0.117751  0.379624  1
  O  O172  1  0.331526  0.881979  0.495199  1
  O  O173  1  0.831526  0.617750  0.366630  1
  O  O174  1  0.668604  0.381979  0.482204  1
  O  O175  1  0.831526  0.881979  0.482204  1
  O  O176  1  0.668604  0.117750  0.366630  1
  O  O177  1  0.168604  0.381979  0.495199  1
  O  O178  1  0.331526  0.617751  0.379624  1
  O  O179  1  0.303799  0.065771  0.397162  1
  O  O180  1  0.196331  0.933959  0.512737  1
  O  O181  1  0.696332  0.565771  0.349092  1
  O  O182  1  0.803799  0.433959  0.464666  1
  O  O183  1  0.696332  0.933959  0.464666  1
  O  O184  1  0.803799  0.065770  0.349092  1
  O  O185  1  0.303799  0.433959  0.512737  1
  O  O186  1  0.196332  0.565771  0.397162  1
  O  O187  1  0.274278  0.806544  0.399935  1
  O  O188  1  0.225853  0.193185  0.515510  1
  O  O189  1  0.725853  0.306544  0.346318  1
  O  O190  1  0.774278  0.693186  0.461893  1
  O  O191  1  0.725853  0.193186  0.461893  1
  O  O192  1  0.774278  0.806544  0.346318  1
  O  O193  1  0.274278  0.693186  0.515510  1
  O  O194  1  0.225853  0.306544  0.399935  1
  O  O195  1  0.178244  0.054056  0.774968  1
  O  O196  1  0.321887  0.945674  0.659394  1
  O  O197  1  0.821887  0.554057  0.664733  1
  O  O198  1  0.678244  0.445673  0.549158  1
  O  O199  1  0.821886  0.945674  0.549158  1
  O  O200  1  0.678244  0.054056  0.664733  1
  O  O201  1  0.178243  0.445673  0.659394  1
  O  O202  1  0.321887  0.554057  0.774968  1
  O  O203  1  0.286111  0.131686  0.569447  1
  O  O204  1  0.214019  0.868043  0.685021  1
  O  O205  1  0.714020  0.631687  0.639105  1
  O  O206  1  0.786111  0.368043  0.754680  1
  O  O207  1  0.714019  0.868043  0.754680  1
  O  O208  1  0.786111  0.131686  0.639105  1
  O  O209  1  0.286111  0.368043  0.685021  1
  O  O210  1  0.214020  0.631686  0.569447  1
  O  O211  1  0.209188  0.894067  0.571895  1
  O  O212  1  0.290943  0.105662  0.687470  1
  O  O213  1  0.790943  0.394068  0.636657  1
  O  O214  1  0.709187  0.605662  0.752231  1
  O  O215  1  0.790943  0.105662  0.752231  1
  O  O216  1  0.709188  0.894067  0.636656  1
  O  O217  1  0.209187  0.605662  0.687470  1
  O  O218  1  0.290943  0.394068  0.571895  1
  O  O219  1  0.133481  0.115174  0.577342  1
  O  O220  1  0.366649  0.884555  0.692916  1
  O  O221  1  0.866649  0.615175  0.631210  1
  O  O222  1  0.633481  0.384555  0.746784  1
  O  O223  1  0.866649  0.884555  0.746784  1
  O  O224  1  0.633481  0.115174  0.631210  1
  O  O225  1  0.133481  0.384555  0.692916  1
  O  O226  1  0.366649  0.615174  0.577342  1
  O  O227  1  0.073824  0.775500  0.580888  1
  O  O228  1  0.426306  0.224229  0.696462  1
  O  O229  1  0.926306  0.275500  0.627664  1
  O  O230  1  0.573824  0.724230  0.743239  1
  O  O231  1  0.926306  0.224230  0.743239  1
  O  O232  1  0.573824  0.775500  0.627664  1
  O  O233  1  0.073824  0.724229  0.696462  1
  O  O234  1  0.426307  0.275500  0.580888  1
  O  O235  1  0.201034  0.739900  0.600983  1
  O  O236  1  0.299096  0.259830  0.716558  1
  O  O237  1  0.799096  0.239900  0.607568  1
  O  O238  1  0.701035  0.759829  0.723143  1
  O  O239  1  0.799096  0.259830  0.723143  1
  O  O240  1  0.701035  0.739900  0.607568  1
  O  O241  1  0.201034  0.759830  0.716558  1
  O  O242  1  0.299096  0.239900  0.600983  1
  O  O243  1  0.958623  0.756793  0.605691  1
  O  O244  1  0.541508  0.242937  0.721266  1
  O  O245  1  0.041508  0.256792  0.602860  1
  O  O246  1  0.458622  0.742937  0.718435  1
  O  O247  1  0.041508  0.242937  0.718435  1
  O  O248  1  0.458623  0.756792  0.602861  1
  O  O249  1  0.958623  0.742937  0.721266  1
  O  O250  1  0.541508  0.256793  0.605691  1
  O  O251  1  0.923260  0.893790  0.576326  1
  O  O252  1  0.576871  0.105940  0.691901  1
  O  O253  1  0.076871  0.393790  0.632225  1
  O  O254  1  0.423259  0.605940  0.747800  1
  O  O255  1  0.076871  0.105940  0.747800  1
  O  O256  1  0.423260  0.893790  0.632225  1
  O  O257  1  0.923260  0.605940  0.691901  1
  O  O258  1  0.576871  0.393790  0.576326  1
  O  O259  1  0.033275  0.989586  0.598472  1
  O  O260  1  0.466855  0.010144  0.714047  1
  O  O261  1  0.966856  0.489586  0.610079  1
  O  O262  1  0.533275  0.510144  0.725654  1
  O  O263  1  0.966856  0.010143  0.725654  1
  O  O264  1  0.533275  0.989586  0.610080  1
  O  O265  1  0.033275  0.510144  0.714047  1
  O  O266  1  0.466856  0.489586  0.598472  1
  O  O267  1  0.168604  0.117751  0.610773  1
  O  O268  1  0.331526  0.881979  0.726348  1
  O  O269  1  0.831526  0.617750  0.597779  1
  O  O270  1  0.668604  0.381979  0.713353  1
  O  O271  1  0.831526  0.881979  0.713353  1
  O  O272  1  0.668604  0.117750  0.597779  1
  O  O273  1  0.168604  0.381979  0.726348  1
  O  O274  1  0.331526  0.617751  0.610773  1
  O  O275  1  0.303799  0.065771  0.628311  1
  O  O276  1  0.196331  0.933959  0.743886  1
  O  O277  1  0.696332  0.565771  0.580241  1
  O  O278  1  0.803799  0.433959  0.695815  1
  O  O279  1  0.696332  0.933959  0.695815  1
  O  O280  1  0.803799  0.065770  0.580241  1
  O  O281  1  0.303799  0.433959  0.743886  1
  O  O282  1  0.196332  0.565771  0.628311  1
  O  O283  1  0.274278  0.806544  0.631084  1
  O  O284  1  0.225853  0.193185  0.746659  1
  O  O285  1  0.725853  0.306544  0.577467  1
  O  O286  1  0.774278  0.693186  0.693042  1
  O  O287  1  0.725853  0.193186  0.693042  1
  O  O288  1  0.774278  0.806544  0.577467  1
  O  O289  1  0.274278  0.693186  0.746659  1
  O  O290  1  0.225853  0.306544  0.631084  1
  O  O291  1  0.678244  0.445673  0.780307  1
  O  O292  1  0.821886  0.945674  0.780307  1
  Si  Si293  1  0.203638  0.047294  0.102340  1
  Si  Si294  1  0.296493  0.952436  0.217914  1
  Si  Si295  1  0.796493  0.547294  0.181616  1
  Si  Si296  1  0.703637  0.452435  0.297190  1
  Si  Si297  1  0.796493  0.952436  0.297190  1
  Si  Si298  1  0.703638  0.047294  0.181616  1
  Si  Si299  1  0.203637  0.452436  0.217914  1
  Si  Si300  1  0.296493  0.547294  0.102340  1
  Si  Si301  1  0.995945  0.852572  0.127673  1
  Si  Si302  1  0.504185  0.147157  0.243247  1
  Si  Si303  1  0.004185  0.352572  0.156283  1
  Si  Si304  1  0.495945  0.647157  0.271857  1
  Si  Si305  1  0.004185  0.147157  0.271857  1
  Si  Si306  1  0.495945  0.852572  0.156283  1
  Si  Si307  1  0.995945  0.647157  0.243247  1
  Si  Si308  1  0.504185  0.352572  0.127673  1
  Si  Si309  1  0.252259  0.181728  0.156132  1
  Si  Si310  1  0.247871  0.818001  0.271707  1
  Si  Si311  1  0.747871  0.681729  0.127824  1
  Si  Si312  1  0.752259  0.318001  0.243398  1
  Si  Si313  1  0.747871  0.818001  0.243398  1
  Si  Si314  1  0.752259  0.181728  0.127824  1
  Si  Si315  1  0.252259  0.318001  0.271707  1
  Si  Si316  1  0.247871  0.681729  0.156132  1
  Si  Si317  1  0.330884  0.928515  0.175766  1
  Si  Si318  1  0.169246  0.071215  0.291341  1
  Si  Si319  1  0.669246  0.428515  0.108190  1
  Si  Si320  1  0.830884  0.571215  0.223764  1
  Si  Si321  1  0.669246  0.071215  0.223764  1
  Si  Si322  1  0.830884  0.928515  0.108190  1
  Si  Si323  1  0.330884  0.571215  0.291341  1
  Si  Si324  1  0.169246  0.428514  0.175766  1
  Si  Si325  1  0.172253  0.756323  0.117941  1
  Si  Si326  1  0.327878  0.243406  0.233516  1
  Si  Si327  1  0.827878  0.256323  0.166015  1
  Si  Si328  1  0.672252  0.743406  0.281589  1
  Si  Si329  1  0.827878  0.243406  0.281589  1
  Si  Si330  1  0.672253  0.756323  0.166015  1
  Si  Si331  1  0.172252  0.743406  0.233516  1
  Si  Si332  1  0.327878  0.256323  0.117941  1
  Si  Si333  1  0.090920  0.121859  0.134892  1
  Si  Si334  1  0.409210  0.877870  0.250467  1
  Si  Si335  1  0.909210  0.621859  0.149063  1
  Si  Si336  1  0.590920  0.377870  0.264638  1
  Si  Si337  1  0.909210  0.877870  0.264638  1
  Si  Si338  1  0.590920  0.121859  0.149063  1
  Si  Si339  1  0.090920  0.377870  0.250467  1
  Si  Si340  1  0.409210  0.621859  0.134892  1
  Si  Si341  1  0.203638  0.047294  0.333489  1
  Si  Si342  1  0.296493  0.952436  0.449063  1
  Si  Si343  1  0.796493  0.547294  0.412765  1
  Si  Si344  1  0.703637  0.452435  0.528339  1
  Si  Si345  1  0.796493  0.952436  0.528339  1
  Si  Si346  1  0.703638  0.047294  0.412765  1
  Si  Si347  1  0.203637  0.452436  0.449063  1
  Si  Si348  1  0.296493  0.547294  0.333489  1
  Si  Si349  1  0.995945  0.852572  0.358822  1
  Si  Si350  1  0.504185  0.147157  0.474396  1
  Si  Si351  1  0.004185  0.352572  0.387432  1
  Si  Si352  1  0.495945  0.647157  0.503006  1
  Si  Si353  1  0.004185  0.147157  0.503006  1
  Si  Si354  1  0.495945  0.852572  0.387432  1
  Si  Si355  1  0.995945  0.647157  0.474396  1
  Si  Si356  1  0.504185  0.352572  0.358822  1
  Si  Si357  1  0.252259  0.181728  0.387281  1
  Si  Si358  1  0.247871  0.818001  0.502856  1
  Si  Si359  1  0.747871  0.681729  0.358973  1
  Si  Si360  1  0.752259  0.318001  0.474547  1
  Si  Si361  1  0.747871  0.818001  0.474547  1
  Si  Si362  1  0.752259  0.181728  0.358973  1
  Si  Si363  1  0.252259  0.318001  0.502856  1
  Si  Si364  1  0.247871  0.681729  0.387281  1
  Si  Si365  1  0.330884  0.928515  0.406915  1
  Si  Si366  1  0.169246  0.071215  0.522489  1
  Si  Si367  1  0.669246  0.428515  0.339339  1
  Si  Si368  1  0.830884  0.571215  0.454913  1
  Si  Si369  1  0.669246  0.071215  0.454913  1
  Si  Si370  1  0.830884  0.928515  0.339339  1
  Si  Si371  1  0.330884  0.571215  0.522489  1
  Si  Si372  1  0.169246  0.428514  0.406915  1
  Si  Si373  1  0.172253  0.756323  0.349090  1
  Si  Si374  1  0.327878  0.243406  0.464665  1
  Si  Si375  1  0.827878  0.256323  0.397164  1
  Si  Si376  1  0.672252  0.743406  0.512738  1
  Si  Si377  1  0.827878  0.243406  0.512738  1
  Si  Si378  1  0.672253  0.756323  0.397164  1
  Si  Si379  1  0.172252  0.743406  0.464665  1
  Si  Si380  1  0.327878  0.256323  0.349090  1
  Si  Si381  1  0.090920  0.121859  0.366041  1
  Si  Si382  1  0.409210  0.877870  0.481616  1
  Si  Si383  1  0.909210  0.621859  0.380212  1
  Si  Si384  1  0.590920  0.377870  0.495787  1
  Si  Si385  1  0.909210  0.877870  0.495787  1
  Si  Si386  1  0.590920  0.121859  0.380212  1
  Si  Si387  1  0.090920  0.377870  0.481616  1
  Si  Si388  1  0.409210  0.621859  0.366041  1
  Si  Si389  1  0.203638  0.047294  0.564638  1
  Si  Si390  1  0.296493  0.952436  0.680212  1
  Si  Si391  1  0.796493  0.547294  0.643914  1
  Si  Si392  1  0.703637  0.452435  0.759488  1
  Si  Si393  1  0.796493  0.952436  0.759488  1
  Si  Si394  1  0.703638  0.047294  0.643914  1
  Si  Si395  1  0.203637  0.452436  0.680212  1
  Si  Si396  1  0.296493  0.547294  0.564638  1
  Si  Si397  1  0.995945  0.852572  0.589971  1
  Si  Si398  1  0.504185  0.147157  0.705545  1
  Si  Si399  1  0.004185  0.352572  0.618581  1
  Si  Si400  1  0.495945  0.647157  0.734155  1
  Si  Si401  1  0.004185  0.147157  0.734155  1
  Si  Si402  1  0.495945  0.852572  0.618581  1
  Si  Si403  1  0.995945  0.647157  0.705545  1
  Si  Si404  1  0.504185  0.352572  0.589971  1
  Si  Si405  1  0.252259  0.181728  0.618430  1
  Si  Si406  1  0.247871  0.818001  0.734005  1
  Si  Si407  1  0.747871  0.681729  0.590122  1
  Si  Si408  1  0.752259  0.318001  0.705696  1
  Si  Si409  1  0.747871  0.818001  0.705696  1
  Si  Si410  1  0.752259  0.181728  0.590122  1
  Si  Si411  1  0.252259  0.318001  0.734005  1
  Si  Si412  1  0.247871  0.681729  0.618430  1
  Si  Si413  1  0.330884  0.928515  0.638064  1
  Si  Si414  1  0.169246  0.071215  0.753638  1
  Si  Si415  1  0.669246  0.428515  0.570488  1
  Si  Si416  1  0.830884  0.571215  0.686062  1
  Si  Si417  1  0.669246  0.071215  0.686062  1
  Si  Si418  1  0.830884  0.928515  0.570488  1
  Si  Si419  1  0.330884  0.571215  0.753638  1
  Si  Si420  1  0.169246  0.428514  0.638064  1
  Si  Si421  1  0.172253  0.756323  0.580239  1
  Si  Si422  1  0.327878  0.243406  0.695814  1
  Si  Si423  1  0.827878  0.256323  0.628313  1
  Si  Si424  1  0.672252  0.743406  0.743887  1
  Si  Si425  1  0.827878  0.243406  0.743887  1
  Si  Si426  1  0.672253  0.756323  0.628313  1
  Si  Si427  1  0.172252  0.743406  0.695814  1
  Si  Si428  1  0.327878  0.256323  0.580239  1
  Si  Si429  1  0.090920  0.121859  0.597190  1
  Si  Si430  1  0.409210  0.877870  0.712765  1
  Si  Si431  1  0.909210  0.621859  0.611361  1
  Si  Si432  1  0.590920  0.377870  0.726936  1
  Si  Si433  1  0.909210  0.877870  0.726936  1
  Si  Si434  1  0.590920  0.121859  0.611361  1
  Si  Si435  1  0.090920  0.377870  0.712765  1
  Si  Si436  1  0.409210  0.621859  0.597190  1
  H  H437  1  0.178244  0.054056  0.069086  1
  H  H438  1  0.321887  0.554057  0.069086  1
  H  H439  1  0.678244  0.445673  0.074425  1
  H  H440  1  0.821886  0.945674  0.074425  1
  H  H441  1  0.178244  0.054056  0.787404  1
  H  H442  1  0.321887  0.554057  0.787404  1
  H  H443  1  0.678244  0.445673  0.792742  1
  H  H444  1  0.821886  0.945674  0.792742  1
