# generated using pymatgen
data_Si6H2O13
_symmetry_space_group_name_H-M   'P 1'
_cell_length_a   8.11619714
_cell_length_b   9.02515124
_cell_length_c   30.35474273
_cell_angle_alpha   90.00000000
_cell_angle_beta   90.00000000
_cell_angle_gamma   90.00000000
_symmetry_Int_Tables_number   1
_chemical_formula_structural   Si6H2O13
_chemical_formula_sum   'Si12 H4 O26'
_cell_volume   2223.48207268
_cell_formula_units_Z   2
loop_
 _symmetry_equiv_pos_site_id
 _symmetry_equiv_pos_as_xyz
  1  'x, y, z'
loop_
 _atom_site_type_symbol
 _atom_site_label
 _atom_site_symmetry_multiplicity
 _atom_site_fract_x
 _atom_site_fract_y
 _atom_site_fract_z
 _atom_site_occupancy
  O  O1  1  0.250089  0.675098  0.335276  1
  O  O2  1  0.750077  0.824642  0.335280  1
  O  O3  1  0.037746  0.489099  0.355504  1
  O  O4  1  0.962410  0.010655  0.355506  1
  O  O5  1  0.462422  0.489084  0.315054  1
  O  O6  1  0.537730  0.010636  0.315053  1
  O  O7  1  0.258415  0.592033  0.413330  1
  O  O8  1  0.741747  0.907709  0.413333  1
  O  O9  1  0.241749  0.592011  0.257226  1
  O  O10  1  0.758424  0.907713  0.257230  1
  O  O11  1  0.000000  0.749878  0.384820  1
  O  O12  1  0.500090  0.749858  0.285734  1
  O  O13  1  0.544130  0.503995  0.395113  1
  O  O14  1  0.456031  0.995731  0.395113  1
  O  O15  1  0.956022  0.504007  0.275449  1
  O  O16  1  0.044147  0.995734  0.275452  1
  O  O17  1  0.750084  0.404012  0.335283  1
  O  O18  1  0.250077  0.095737  0.335288  1
  O  O19  1  0.500095  0.249861  0.359254  1
  O  O20  1  -0.000000  0.249874  0.311306  1
  O  O21  1  0.000000  0.749869  0.233737  1
  O  O22  1  0.500084  0.749862  0.436825  1
  O  O23  1  0.952999  0.000000  0.194373  1
  O  O24  1  0.452956  0.499867  0.476192  1
  O  O25  1  0.547178  0.000000  0.476194  1
  O  O26  1  0.047153  0.499866  0.194368  1
  Si  Si27  1  0.133186  0.627204  0.374711  1
  Si  Si28  1  0.866978  0.872546  0.374714  1
  Si  Si29  1  0.366987  0.627186  0.295843  1
  Si  Si30  1  0.633180  0.872539  0.295845  1
  Si  Si31  1  0.568096  0.409875  0.351714  1
  Si  Si32  1  0.432070  0.089853  0.351714  1
  Si  Si33  1  0.932067  0.409883  0.318847  1
  Si  Si34  1  0.068098  0.089865  0.318849  1
  Si  Si35  1  0.940675  0.913877  0.238729  1
  Si  Si36  1  0.059498  0.585857  0.238725  1
  Si  Si37  1  0.559500  0.913873  0.431836  1
  Si  Si38  1  0.440657  0.585857  0.431835  1
  H  H39  1  0.952999  0.000000  0.164723  1
  H  H40  1  0.452956  0.499867  0.505841  1
  H  H41  1  0.547178  0.000000  0.505843  1
  H  H42  1  0.047153  0.499866  0.164719  1
