# generated using pymatgen
data_Si9H2O19
_symmetry_space_group_name_H-M   'P 1'
_cell_length_a   5.08855878
_cell_length_b   10.83973680
_cell_length_c   44.51480208
_cell_angle_alpha   133.19146784
_cell_angle_beta   90.00000000
_cell_angle_gamma   90.00000000
_symmetry_Int_Tables_number   1
_chemical_formula_structural   Si9H2O19
_chemical_formula_sum   'Si18 H4 O38'
_cell_volume   1790.14223978
_cell_formula_units_Z   2
loop_
 _symmetry_equiv_pos_site_id
 _symmetry_equiv_pos_as_xyz
  1  'x, y, z'
loop_
 _atom_site_type_symbol
 _atom_site_label
 _atom_site_symmetry_multiplicity
 _atom_site_fract_x
 _atom_site_fract_y
 _atom_site_fract_z
 _atom_site_occupancy
  Si  Si1  1  0.743305  0.890048  0.280530  1
  Si  Si2  1  0.243305  0.110661  0.317298  1
  Si  Si3  1  0.262952  0.388719  0.314868  1
  Si  Si4  1  0.743305  0.890048  0.447196  1
  Si  Si5  1  0.743305  0.890048  0.349650  1
  Si  Si6  1  0.243305  0.110662  0.386418  1
  Si  Si7  1  0.243305  0.110661  0.483965  1
  Si  Si8  1  0.762952  0.611991  0.352080  1
  Si  Si9  1  0.262952  0.388719  0.481535  1
  O  O10  1  0.994116  0.999593  0.292250  1
  O  O11  1  0.494116  0.001117  0.292505  1
  O  O12  1  0.743159  0.846751  0.307874  1
  O  O13  1  0.742364  0.728410  0.233178  1
  O  O14  1  0.242364  0.272299  0.267103  1
  O  O15  1  0.242364  0.272299  0.323827  1
  O  O16  1  0.533950  0.480899  0.330232  1
  O  O17  1  0.994116  0.999593  0.458917  1
  O  O18  1  0.494116  0.001117  0.459171  1
  O  O19  1  0.994116  0.999593  0.374444  1
  O  O20  1  0.494116  0.001117  0.374698  1
  O  O21  1  0.743159  0.846751  0.474540  1
  O  O22  1  0.243159  0.153959  0.359075  1
  O  O23  1  0.742364  0.728410  0.399845  1
  O  O24  1  0.742364  0.728410  0.343121  1
  O  O25  1  0.242364  0.272299  0.433770  1
  O  O26  1  0.242364  0.272299  0.490494  1
  O  O27  1  0.533950  0.480899  0.496898  1
  O  O28  1  0.033950  0.519811  0.336717  1
  H  H29  1  0.742364  0.728410  0.212960  1
  H  H30  1  0.242364  0.272299  0.246885  1
  Si  Si31  1  0.743305  0.890048  0.613863  1
  Si  Si32  1  0.743305  0.890048  0.516316  1
  Si  Si33  1  0.243305  0.110662  0.553086  1
  Si  Si34  1  0.243305  0.110661  0.650632  1
  Si  Si35  1  0.762952  0.611991  0.518747  1
  Si  Si36  1  0.262952  0.388719  0.648201  1
  Si  Si37  1  0.743305  0.890048  0.682983  1
  Si  Si38  1  0.243305  0.110662  0.719752  1
  Si  Si39  1  0.762952  0.611991  0.685413  1
  O  O40  1  0.994116  0.999593  0.625583  1
  O  O41  1  0.494116  0.001117  0.625838  1
  O  O42  1  0.994116  0.999593  0.541111  1
  O  O43  1  0.494116  0.001117  0.541365  1
  O  O44  1  0.743159  0.846751  0.641207  1
  O  O45  1  0.243159  0.153959  0.525741  1
  O  O46  1  0.742364  0.728410  0.566512  1
  O  O47  1  0.742364  0.728410  0.509788  1
  O  O48  1  0.242364  0.272299  0.600437  1
  O  O49  1  0.242364  0.272299  0.657160  1
  O  O50  1  0.533950  0.480899  0.663565  1
  O  O51  1  0.033950  0.519811  0.503383  1
  O  O52  1  0.994116  0.999593  0.707777  1
  O  O53  1  0.494116  0.001117  0.708032  1
  O  O54  1  0.243159  0.153959  0.692408  1
  O  O55  1  0.742364  0.728410  0.733178  1
  O  O56  1  0.742364  0.728410  0.676455  1
  O  O57  1  0.242364  0.272299  0.767103  1
  O  O58  1  0.033950  0.519811  0.670050  1
  H  H59  1  0.742364  0.728410  0.753397  1
  H  H60  1  0.242364  0.272299  0.787321  1
