# generated using pymatgen
data_Si59(HO30)4
_symmetry_space_group_name_H-M   'P 1'
_cell_length_a   19.80640796
_cell_length_b   19.84885801
_cell_length_c   70.87386495
_cell_angle_alpha   90.00000000
_cell_angle_beta   90.00000000
_cell_angle_gamma   90.00000000
_symmetry_Int_Tables_number   1
_chemical_formula_structural   Si59(HO30)4
_chemical_formula_sum   'Si236 H16 O480'
_cell_volume   27862.9670776
_cell_formula_units_Z   4
loop_
 _symmetry_equiv_pos_site_id
 _symmetry_equiv_pos_as_xyz
  1  'x, y, z'
loop_
 _atom_site_type_symbol
 _atom_site_label
 _atom_site_symmetry_multiplicity
 _atom_site_fract_x
 _atom_site_fract_y
 _atom_site_fract_z
 _atom_site_occupancy
  O  O1  1  0.488365  0.019083  0.115020  1
  O  O2  1  0.376780  0.012727  0.154183  1
  O  O3  1  0.017550  0.121031  0.285906  1
  O  O4  1  0.441599  0.131633  0.124508  1
  O  O5  1  0.410663  0.056350  0.186400  1
  O  O6  1  0.131733  0.089078  0.273206  1
  O  O7  1  0.366582  0.027576  0.120192  1
  O  O8  1  0.395373  0.134140  0.158012  1
  O  O9  1  0.028745  0.103311  0.251729  1
  O  O10  1  0.071415  0.288580  0.129642  1
  O  O11  1  0.428982  0.071286  0.089921  1
  O  O12  1  0.288023  0.071751  0.170042  1
  O  O13  1  0.073358  0.211676  0.269254  1
  O  O14  1  0.000000  0.177987  0.124559  1
  O  O15  1  0.079260  0.061477  0.167341  1
  O  O16  1  0.179063  0.090521  0.149910  1
  O  O17  1  0.002899  0.320810  0.264383  1
  O  O18  1  0.080227  0.181681  0.151186  1
  O  O19  1  0.003474  0.078563  0.098488  1
  O  O20  1  0.475856  0.233096  0.148132  1
  O  O21  1  0.234460  0.004667  0.283156  1
  O  O22  1  0.475962  0.266302  0.287920  1
  O  O23  1  0.493117  0.023376  0.215118  1
  O  O24  1  0.063301  0.079971  0.132412  1
  O  O25  1  0.123097  0.513833  0.154069  1
  O  O26  1  0.019473  0.379093  0.145908  1
  O  O27  1  0.482526  0.624425  0.285486  1
  O  O28  1  0.011373  0.520210  0.114832  1
  O  O29  1  0.486732  0.482665  0.255270  1
  O  O30  1  0.089108  0.557764  0.186249  1
  O  O31  1  0.134988  0.408874  0.133525  1
  O  O32  1  0.367243  0.590113  0.273649  1
  O  O33  1  0.058334  0.632953  0.124401  1
  O  O34  1  0.441855  0.368640  0.264395  1
  O  O35  1  0.104490  0.635411  0.157868  1
  O  O36  1  0.031635  0.399523  0.111793  1
  O  O37  1  0.468287  0.603481  0.251679  1
  O  O38  1  0.133124  0.528343  0.120124  1
  O  O39  1  0.364837  0.471134  0.260346  1
  O  O40  1  0.211998  0.572470  0.169938  1
  O  O41  1  0.070920  0.571439  0.089781  1
  O  O42  1  0.428069  0.428750  0.229931  1
  O  O43  1  0.320960  0.590498  0.149904  1
  O  O44  1  0.408730  0.499569  0.199585  1
  O  O45  1  0.319144  0.496103  0.171606  1
  O  O46  1  0.004720  0.421025  0.238960  1
  O  O47  1  0.496081  0.579419  0.098816  1
  O  O48  1  0.265506  0.505486  0.282943  1
  O  O49  1  0.233235  0.496709  0.142940  1
  O  O50  1  0.003355  0.522728  0.214895  1
  O  O51  1  0.420492  0.561416  0.167539  1
  O  O52  1  0.436492  0.579707  0.132686  1
  O  O53  1  0.065872  0.421971  0.272250  1
  O  O54  1  0.440131  0.436356  0.171586  1
  O  O55  1  0.014024  0.981733  0.254986  1
  O  O56  1  0.481931  0.877296  0.145303  1
  O  O57  1  0.057995  0.865587  0.263710  1
  O  O58  1  0.364985  0.908261  0.133568  1
  O  O59  1  0.135096  0.968640  0.260908  1
  O  O60  1  0.466993  0.898904  0.111500  1
  O  O61  1  0.426779  0.712009  0.268968  1
  O  O62  1  0.071882  0.928572  0.230230  1
  O  O63  1  0.428061  0.788809  0.129242  1
  O  O64  1  0.498379  0.821053  0.263758  1
  O  O65  1  0.180556  0.996503  0.171781  1
  O  O66  1  0.420639  0.681258  0.150677  1
  O  O67  1  0.492397  0.919875  0.238195  1
  O  O68  1  0.022996  0.767063  0.288079  1
  O  O69  1  0.266421  0.996167  0.143061  1
  O  O70  1  0.024907  0.735021  0.147979  1
  O  O71  1  0.435189  0.920436  0.271927  1
  O  O72  1  0.060769  0.936754  0.171698  1
  O  O73  1  0.499435  0.679226  0.124487  1
  O  O74  1  0.089051  0.000000  0.199572  1
  O  O75  1  0.876143  0.013489  0.284651  1
  O  O76  1  0.516521  0.122695  0.153541  1
  O  O77  1  0.909933  0.055621  0.252332  1
  O  O78  1  0.631771  0.088345  0.165512  1
  O  O79  1  0.896637  0.133947  0.280660  1
  O  O80  1  0.530252  0.103045  0.187438  1
  O  O81  1  0.788133  0.071754  0.268933  1
  O  O82  1  0.573179  0.210522  0.169699  1
  O  O83  1  0.679507  0.089458  0.289108  1
  O  O84  1  0.501763  0.319961  0.174355  1
  O  O85  1  0.910149  0.001235  0.098955  1
  O  O86  1  0.818626  0.003561  0.127008  1
  O  O87  1  0.578981  0.318248  0.148195  1
  O  O88  1  0.579200  0.181291  0.288321  1
  O  O89  1  0.734129  0.004162  0.155939  1
  O  O90  1  0.977450  0.265493  0.150989  1
  O  O91  1  0.994516  0.023198  0.223771  1
  O  O92  1  0.578933  0.060487  0.271768  1
  O  O93  1  0.937918  0.064356  0.127222  1
  O  O94  1  0.987173  0.482421  0.183440  1
  O  O95  1  0.621466  0.513056  0.284400  1
  O  O96  1  0.876481  0.485814  0.144373  1
  O  O97  1  0.983123  0.623694  0.153277  1
  O  O98  1  0.942704  0.368546  0.174141  1
  O  O99  1  0.588664  0.558089  0.252524  1
  O  O100  1  0.910436  0.443372  0.112052  1
  O  O101  1  0.867729  0.589780  0.165055  1
  O  O102  1  0.865327  0.470786  0.178332  1
  O  O103  1  0.604039  0.634929  0.281183  1
  O  O104  1  0.898322  0.365097  0.140369  1
  O  O105  1  0.968480  0.603131  0.186979  1
  O  O106  1  0.928605  0.428248  0.208768  1
  O  O107  1  0.712291  0.571072  0.269247  1
  O  O108  1  0.788519  0.427001  0.128827  1
  O  O109  1  0.908922  0.499262  0.239039  1
  O  O110  1  0.589058  0.501814  0.099204  1
  O  O111  1  0.821542  0.590044  0.288831  1
  O  O112  1  0.679283  0.409728  0.148913  1
  O  O113  1  0.819991  0.495569  0.267157  1
  O  O114  1  0.681063  0.503953  0.127084  1
  O  O115  1  0.504003  0.420732  0.199765  1
  O  O116  1  0.765892  0.504545  0.155871  1
  O  O117  1  0.994921  0.476422  0.083246  1
  O  O118  1  0.503179  0.522879  0.223786  1
  O  O119  1  0.565532  0.420773  0.166584  1
  O  O120  1  0.940763  0.436532  0.267090  1
  O  O121  1  0.561859  0.565226  0.127520  1
  O  O122  1  0.920873  0.561424  0.271081  1
  O  O123  1  0.578680  0.439955  0.131656  1
  O  O124  1  0.623532  0.985033  0.144512  1
  O  O125  1  0.514447  0.982272  0.183831  1
  O  O126  1  0.589137  0.941876  0.112282  1
  O  O127  1  0.557176  0.867624  0.174233  1
  O  O128  1  0.603259  0.864195  0.140729  1
  O  O129  1  0.635488  0.968558  0.178351  1
  O  O130  1  0.711558  0.926564  0.128887  1
  O  O131  1  0.928754  0.711922  0.169275  1
  O  O132  1  0.570489  0.927926  0.208582  1
  O  O133  1  0.821149  0.909728  0.148940  1
  O  O134  1  0.000000  0.821395  0.174364  1
  O  O135  1  0.560146  0.936104  0.266646  1
  O  O136  1  0.587515  0.000000  0.239377  1
  O  O137  1  0.680663  0.995750  0.267126  1
  O  O138  1  0.920567  0.681292  0.287891  1
  O  O139  1  0.995727  0.920859  0.199972  1
  O  O140  1  0.921978  0.819446  0.148045  1
  O  O141  1  0.505170  0.977070  0.083437  1
  O  O142  1  0.523093  0.765829  0.150813  1
  O  O143  1  0.920917  0.939483  0.131441  1
  O  O144  1  0.936079  0.920489  0.166388  1
  O  O145  1  0.488365  0.019083  0.395290  1
  O  O146  1  0.376780  0.012727  0.434453  1
  O  O147  1  0.017550  0.121031  0.566176  1
  O  O148  1  0.441599  0.131633  0.404779  1
  O  O149  1  0.410663  0.056350  0.466670  1
  O  O150  1  0.131733  0.089078  0.553476  1
  O  O151  1  0.366582  0.027576  0.400462  1
  O  O152  1  0.395373  0.134140  0.438283  1
  O  O153  1  0.028745  0.103311  0.531999  1
  O  O154  1  0.071415  0.288580  0.409912  1
  O  O155  1  0.428982  0.071286  0.370191  1
  O  O156  1  0.288023  0.071751  0.450312  1
  O  O157  1  0.073358  0.211676  0.549524  1
  O  O158  1  0.000000  0.177987  0.404830  1
  O  O159  1  0.410859  0.000000  0.339405  1
  O  O160  1  0.079260  0.061477  0.447611  1
  O  O161  1  0.179063  0.090521  0.430180  1
  O  O162  1  0.002899  0.320810  0.544653  1
  O  O163  1  0.080227  0.181681  0.431457  1
  O  O164  1  0.319438  0.005705  0.311778  1
  O  O165  1  0.079806  0.319337  0.290539  1
  O  O166  1  0.003474  0.078563  0.378758  1
  O  O167  1  0.475856  0.233096  0.428402  1
  O  O168  1  0.234460  0.004667  0.563426  1
  O  O169  1  0.475962  0.266302  0.568191  1
  O  O170  1  0.493117  0.023376  0.495388  1
  O  O171  1  0.063301  0.079971  0.412682  1
  O  O172  1  0.440007  0.063623  0.311499  1
  O  O173  1  0.376151  0.485809  0.294260  1
  O  O174  1  0.123097  0.513833  0.434339  1
  O  O175  1  0.019473  0.379093  0.426178  1
  O  O176  1  0.482526  0.624425  0.565756  1
  O  O177  1  0.011373  0.520210  0.395103  1
  O  O178  1  0.486732  0.482665  0.535541  1
  O  O179  1  0.410616  0.442151  0.326405  1
  O  O180  1  0.089108  0.557764  0.466520  1
  O  O181  1  0.134988  0.408874  0.413795  1
  O  O182  1  0.367243  0.590113  0.553919  1
  O  O183  1  0.058334  0.632953  0.404671  1
  O  O184  1  0.441855  0.368640  0.544666  1
  O  O185  1  0.395408  0.364619  0.297891  1
  O  O186  1  0.104490  0.635411  0.438138  1
  O  O187  1  0.031635  0.399523  0.392063  1
  O  O188  1  0.468287  0.603481  0.531949  1
  O  O189  1  0.133124  0.528343  0.400394  1
  O  O190  1  0.364837  0.471134  0.540617  1
  O  O191  1  0.288032  0.427907  0.309988  1
  O  O192  1  0.211998  0.572470  0.450208  1
  O  O193  1  0.070920  0.571439  0.370051  1
  O  O194  1  0.428069  0.428750  0.510201  1
  O  O195  1  0.179282  0.410940  0.289870  1
  O  O196  1  0.320960  0.590498  0.430174  1
  O  O197  1  0.090464  0.499677  0.339735  1
  O  O198  1  0.408730  0.499569  0.479855  1
  O  O199  1  0.180708  0.504674  0.311882  1
  O  O200  1  0.319144  0.496103  0.451876  1
  O  O201  1  0.004720  0.421025  0.519230  1
  O  O202  1  0.496081  0.579419  0.379086  1
  O  O203  1  0.265506  0.505486  0.563213  1
  O  O204  1  0.233235  0.496709  0.423210  1
  O  O205  1  0.003355  0.522728  0.495165  1
  O  O206  1  0.495089  0.477184  0.355038  1
  O  O207  1  0.078884  0.440210  0.307308  1
  O  O208  1  0.420492  0.561416  0.447809  1
  O  O209  1  0.436492  0.579707  0.412956  1
  O  O210  1  0.065872  0.421971  0.552520  1
  O  O211  1  0.060593  0.565142  0.311869  1
  O  O212  1  0.440131  0.436356  0.451856  1
  O  O213  1  0.014024  0.981733  0.535256  1
  O  O214  1  0.123196  0.987317  0.294592  1
  O  O215  1  0.481931  0.877296  0.425573  1
  O  O216  1  0.057995  0.865587  0.543980  1
  O  O217  1  0.091579  0.942269  0.326959  1
  O  O218  1  0.364985  0.908261  0.413838  1
  O  O219  1  0.135096  0.968640  0.541178  1
  O  O220  1  0.103263  0.866736  0.297682  1
  O  O221  1  0.466993  0.898904  0.391770  1
  O  O222  1  0.426779  0.712009  0.549238  1
  O  O223  1  0.071882  0.928572  0.510500  1
  O  O224  1  0.212423  0.928824  0.309730  1
  O  O225  1  0.428061  0.788809  0.409512  1
  O  O226  1  0.498379  0.821053  0.544028  1
  O  O227  1  0.320470  0.909510  0.289443  1
  O  O228  1  0.420540  0.819054  0.290256  1
  O  O229  1  0.180556  0.996503  0.452051  1
  O  O230  1  0.420639  0.681258  0.430947  1
  O  O231  1  0.492397  0.919875  0.518465  1
  O  O232  1  0.022996  0.767063  0.568349  1
  O  O233  1  0.266421  0.996167  0.423331  1
  O  O234  1  0.024907  0.735021  0.428249  1
  O  O235  1  0.003956  0.976145  0.354532  1
  O  O236  1  0.435189  0.920436  0.552197  1
  O  O237  1  0.060769  0.936754  0.451968  1
  O  O238  1  0.419553  0.939160  0.307011  1
  O  O239  1  0.499435  0.679226  0.404757  1
  O  O240  1  0.089051  -0.000000  0.479842  1
  O  O241  1  0.876143  0.013489  0.564922  1
  O  O242  1  0.516521  0.122695  0.433811  1
  O  O243  1  0.986580  0.015965  0.323768  1
  O  O244  1  0.909933  0.055621  0.532602  1
  O  O245  1  0.631771  0.088345  0.445783  1
  O  O246  1  0.942219  0.130916  0.314360  1
  O  O247  1  0.896637  0.133947  0.560930  1
  O  O248  1  0.530252  0.103045  0.467708  1
  O  O249  1  0.864819  0.029410  0.318598  1
  O  O250  1  0.788133  0.071754  0.549203  1
  O  O251  1  0.573179  0.210522  0.449969  1
  O  O252  1  0.572920  0.288811  0.309659  1
  O  O253  1  0.927801  0.072409  0.348666  1
  O  O254  1  0.679507  0.089458  0.569378  1
  O  O255  1  0.501763  0.319961  0.454625  1
  O  O256  1  0.501429  0.179618  0.314361  1
  O  O257  1  0.910149  0.001235  0.379225  1
  O  O258  1  0.818626  0.003561  0.407278  1
  O  O259  1  0.578981  0.318248  0.428465  1
  O  O260  1  0.504618  0.079483  0.339981  1
  O  O261  1  0.579200  0.181291  0.568591  1
  O  O262  1  0.734129  0.004162  0.436209  1
  O  O263  1  0.977450  0.265493  0.431259  1
  O  O264  1  0.994516  0.023198  0.504041  1
  O  O265  1  0.978131  0.232610  0.290415  1
  O  O266  1  0.578933  0.060487  0.552038  1
  O  O267  1  0.565391  0.078799  0.306715  1
  O  O268  1  0.937918  0.064356  0.407492  1
  O  O269  1  0.987173  0.482421  0.463710  1
  O  O270  1  0.511619  0.518715  0.323695  1
  O  O271  1  0.621466  0.513056  0.564670  1
  O  O272  1  0.876481  0.485814  0.424644  1
  O  O273  1  0.983123  0.623694  0.433547  1
  O  O274  1  0.516644  0.376654  0.293387  1
  O  O275  1  0.942704  0.368546  0.454411  1
  O  O276  1  0.556634  0.632769  0.314531  1
  O  O277  1  0.588664  0.558089  0.532794  1
  O  O278  1  0.910436  0.443372  0.392322  1
  O  O279  1  0.867729  0.589780  0.445326  1
  O  O280  1  0.632253  0.410766  0.305216  1
  O  O281  1  0.865327  0.470786  0.458602  1
  O  O282  1  0.633561  0.530166  0.318315  1
  O  O283  1  0.604039  0.634929  0.561453  1
  O  O284  1  0.898322  0.365097  0.420639  1
  O  O285  1  0.968480  0.603131  0.467249  1
  O  O286  1  0.531433  0.397566  0.327181  1
  O  O287  1  0.928605  0.428248  0.489038  1
  O  O288  1  0.571664  0.572973  0.348804  1
  O  O289  1  0.712291  0.571072  0.549517  1
  O  O290  1  0.788519  0.427001  0.409098  1
  O  O291  1  0.908922  0.499262  0.519310  1
  O  O292  1  0.589058  0.501814  0.379474  1
  O  O293  1  0.821542  0.590044  0.569101  1
  O  O294  1  0.679283  0.409728  0.429183  1
  O  O295  1  0.819991  0.495569  0.547427  1
  O  O296  1  0.681063  0.503953  0.407354  1
  O  O297  1  0.995211  0.578809  0.339639  1
  O  O298  1  0.504003  0.420732  0.480036  1
  O  O299  1  0.734178  0.496610  0.295628  1
  O  O300  1  0.765892  0.504545  0.436141  1
  O  O301  1  0.994921  0.476422  0.363517  1
  O  O302  1  0.503179  0.522879  0.504056  1
  O  O303  1  0.565532  0.420773  0.446854  1
  O  O304  1  0.936154  0.580000  0.305951  1
  O  O305  1  0.940763  0.436532  0.547360  1
  O  O306  1  0.561859  0.565226  0.407790  1
  O  O307  1  0.920873  0.561424  0.551351  1
  O  O308  1  0.578680  0.439955  0.411926  1
  O  O309  1  0.623532  0.985033  0.424783  1
  O  O310  1  0.982407  0.876915  0.292575  1
  O  O311  1  0.514447  0.982272  0.464101  1
  O  O312  1  0.589137  0.941876  0.392553  1
  O  O313  1  0.867686  0.910299  0.305427  1
  O  O314  1  0.557176  0.867624  0.454503  1
  O  O315  1  0.603259  0.864195  0.420999  1
  O  O316  1  0.971631  0.894671  0.326516  1
  O  O317  1  0.635488  0.968558  0.458622  1
  O  O318  1  0.711558  0.926564  0.409157  1
  O  O319  1  0.926139  0.788124  0.309197  1
  O  O320  1  0.928754  0.711922  0.449545  1
  O  O321  1  0.570489  0.927926  0.488852  1
  O  O322  1  0.821149  0.909728  0.429210  1
  O  O323  1  0.997821  0.679975  0.314423  1
  O  O324  1  0.000000  0.821395  0.454634  1
  O  O325  1  0.560146  0.936104  0.546916  1
  O  O326  1  0.587515  0.000000  0.519647  1
  O  O327  1  0.680663  0.995750  0.547396  1
  O  O328  1  0.920567  0.681292  0.568161  1
  O  O329  1  0.995727  0.920859  0.480242  1
  O  O330  1  0.921978  0.819446  0.428315  1
  O  O331  1  0.765544  0.994603  0.296095  1
  O  O332  1  0.524014  0.734788  0.290504  1
  O  O333  1  0.505170  0.977070  0.363707  1
  O  O334  1  0.523093  0.765829  0.431084  1
  O  O335  1  0.920917  0.939483  0.411711  1
  O  O336  1  0.936079  0.920489  0.446658  1
  O  O337  1  0.488365  0.019083  0.675560  1
  O  O338  1  0.376780  0.012727  0.714723  1
  O  O339  1  0.441599  0.131633  0.685049  1
  O  O340  1  0.410663  0.056350  0.746940  1
  O  O341  1  0.366582  0.027576  0.680733  1
  O  O342  1  0.395373  0.134140  0.718553  1
  O  O343  1  0.071415  0.288580  0.690182  1
  O  O344  1  0.428982  0.071286  0.650461  1
  O  O345  1  0.288023  0.071751  0.730582  1
  O  O346  1  0.000000  0.177987  0.685100  1
  O  O347  1  0.410859  0.000000  0.619675  1
  O  O348  1  0.079260  0.061477  0.727882  1
  O  O349  1  0.179063  0.090521  0.710450  1
  O  O350  1  0.080227  0.181681  0.711727  1
  O  O351  1  0.319438  0.005705  0.592048  1
  O  O352  1  0.079806  0.319337  0.570809  1
  O  O353  1  0.003474  0.078563  0.659028  1
  O  O354  1  0.475856  0.233096  0.708672  1
  O  O355  1  0.493117  0.023376  0.775658  1
  O  O356  1  0.063301  0.079971  0.692953  1
  O  O357  1  0.440007  0.063623  0.591769  1
  O  O358  1  0.376151  0.485809  0.574530  1
  O  O359  1  0.123097  0.513833  0.714610  1
  O  O360  1  0.019473  0.379093  0.706448  1
  O  O361  1  0.011373  0.520210  0.675373  1
  O  O362  1  0.410616  0.442151  0.606675  1
  O  O363  1  0.089108  0.557764  0.746790  1
  O  O364  1  0.134988  0.408874  0.694066  1
  O  O365  1  0.058334  0.632953  0.684941  1
  O  O366  1  0.395408  0.364619  0.578161  1
  O  O367  1  0.104490  0.635411  0.718408  1
  O  O368  1  0.031635  0.399523  0.672333  1
  O  O369  1  0.133124  0.528343  0.680664  1
  O  O370  1  0.288032  0.427907  0.590259  1
  O  O371  1  0.211998  0.572470  0.730479  1
  O  O372  1  0.070920  0.571439  0.650322  1
  O  O373  1  0.179282  0.410940  0.570140  1
  O  O374  1  0.320960  0.590498  0.710444  1
  O  O375  1  0.090464  0.499677  0.620006  1
  O  O376  1  0.408730  0.499569  0.760125  1
  O  O377  1  0.180708  0.504674  0.592153  1
  O  O378  1  0.319144  0.496103  0.732146  1
  O  O379  1  0.496081  0.579419  0.659356  1
  O  O380  1  0.233235  0.496709  0.703480  1
  O  O381  1  0.003355  0.522728  0.775435  1
  O  O382  1  0.495089  0.477184  0.635308  1
  O  O383  1  0.078884  0.440210  0.587578  1
  O  O384  1  0.420492  0.561416  0.728079  1
  O  O385  1  0.436492  0.579707  0.693226  1
  O  O386  1  0.060593  0.565142  0.592139  1
  O  O387  1  0.440131  0.436356  0.732127  1
  O  O388  1  0.123196  0.987317  0.574862  1
  O  O389  1  0.481931  0.877296  0.705843  1
  O  O390  1  0.091579  0.942269  0.607229  1
  O  O391  1  0.364985  0.908261  0.694108  1
  O  O392  1  0.103263  0.866736  0.577952  1
  O  O393  1  0.466993  0.898904  0.672040  1
  O  O394  1  0.212423  0.928824  0.590000  1
  O  O395  1  0.428061  0.788809  0.689782  1
  O  O396  1  0.320470  0.909510  0.569714  1
  O  O397  1  0.420540  0.819054  0.570526  1
  O  O398  1  0.180556  0.996503  0.732321  1
  O  O399  1  0.420639  0.681258  0.711218  1
  O  O400  1  0.266421  0.996167  0.703601  1
  O  O401  1  0.024907  0.735021  0.708519  1
  O  O402  1  0.003956  0.976145  0.634802  1
  O  O403  1  0.060769  0.936754  0.732239  1
  O  O404  1  0.419553  0.939160  0.587281  1
  O  O405  1  0.499435  0.679226  0.685027  1
  O  O406  1  0.089051  0.000000  0.760113  1
  O  O407  1  0.516521  0.122695  0.714082  1
  O  O408  1  0.986580  0.015965  0.604038  1
  O  O409  1  0.631771  0.088345  0.726053  1
  O  O410  1  0.942219  0.130916  0.594630  1
  O  O411  1  0.530252  0.103045  0.747978  1
  O  O412  1  0.864819  0.029410  0.598868  1
  O  O413  1  0.573179  0.210522  0.730239  1
  O  O414  1  0.572920  0.288811  0.589929  1
  O  O415  1  0.927801  0.072409  0.628936  1
  O  O416  1  0.501763  0.319961  0.734896  1
  O  O417  1  0.501429  0.179618  0.594631  1
  O  O418  1  0.910149  0.001235  0.659496  1
  O  O419  1  0.818626  0.003561  0.687548  1
  O  O420  1  0.578981  0.318248  0.708735  1
  O  O421  1  0.504618  0.079483  0.620251  1
  O  O422  1  0.734129  0.004162  0.716479  1
  O  O423  1  0.977450  0.265493  0.711529  1
  O  O424  1  0.978131  0.232610  0.570685  1
  O  O425  1  0.565391  0.078799  0.586985  1
  O  O426  1  0.937918  0.064356  0.687762  1
  O  O427  1  0.987173  0.482421  0.743980  1
  O  O428  1  0.511619  0.518715  0.603965  1
  O  O429  1  0.876481  0.485814  0.704914  1
  O  O430  1  0.983123  0.623694  0.713817  1
  O  O431  1  0.516644  0.376654  0.573657  1
  O  O432  1  0.942704  0.368546  0.734681  1
  O  O433  1  0.556634  0.632769  0.594801  1
  O  O434  1  0.910436  0.443372  0.672592  1
  O  O435  1  0.867729  0.589780  0.725596  1
  O  O436  1  0.632253  0.410766  0.585486  1
  O  O437  1  0.865327  0.470786  0.738872  1
  O  O438  1  0.633561  0.530166  0.598585  1
  O  O439  1  0.898322  0.365097  0.700909  1
  O  O440  1  0.968480  0.603131  0.747519  1
  O  O441  1  0.531433  0.397566  0.607451  1
  O  O442  1  0.928605  0.428248  0.769308  1
  O  O443  1  0.571664  0.572973  0.629074  1
  O  O444  1  0.788519  0.427001  0.689368  1
  O  O445  1  0.589058  0.501814  0.659744  1
  O  O446  1  0.679283  0.409728  0.709453  1
  O  O447  1  0.681063  0.503953  0.687624  1
  O  O448  1  0.995211  0.578809  0.619909  1
  O  O449  1  0.504003  0.420732  0.760306  1
  O  O450  1  0.734178  0.496610  0.575898  1
  O  O451  1  0.765892  0.504545  0.716411  1
  O  O452  1  0.994921  0.476422  0.643787  1
  O  O453  1  0.565532  0.420773  0.727125  1
  O  O454  1  0.936154  0.580000  0.586222  1
  O  O455  1  0.561859  0.565226  0.688060  1
  O  O456  1  0.578680  0.439955  0.692196  1
  O  O457  1  0.623532  0.985033  0.705053  1
  O  O458  1  0.982407  0.876915  0.572845  1
  O  O459  1  0.514447  0.982272  0.744372  1
  O  O460  1  0.589137  0.941876  0.672823  1
  O  O461  1  0.867686  0.910299  0.585697  1
  O  O462  1  0.557176  0.867624  0.734773  1
  O  O463  1  0.603259  0.864195  0.701270  1
  O  O464  1  0.971631  0.894671  0.606786  1
  O  O465  1  0.635488  0.968558  0.738892  1
  O  O466  1  0.711558  0.926564  0.689427  1
  O  O467  1  0.926139  0.788124  0.589467  1
  O  O468  1  0.928754  0.711922  0.729815  1
  O  O469  1  0.570489  0.927926  0.769122  1
  O  O470  1  0.821149  0.909728  0.709480  1
  O  O471  1  0.997821  0.679975  0.594693  1
  O  O472  1  0.000000  0.821395  0.734905  1
  O  O473  1  0.995727  0.920859  0.760512  1
  O  O474  1  0.921978  0.819446  0.708585  1
  O  O475  1  0.765544  0.994603  0.576365  1
  O  O476  1  0.524014  0.734788  0.570774  1
  O  O477  1  0.505170  0.977070  0.643978  1
  O  O478  1  0.523093  0.765829  0.711354  1
  O  O479  1  0.920917  0.939483  0.691981  1
  O  O480  1  0.936079  0.920489  0.726928  1
  Si  Si481  1  0.428049  0.068203  0.112044  1
  Si  Si482  1  0.366142  0.071745  0.168789  1
  Si  Si483  1  0.067517  0.133609  0.269299  1
  Si  Si484  1  0.032711  0.227799  0.139523  1
  Si  Si485  1  0.229567  0.038199  0.158839  1
  Si  Si486  1  0.034271  0.269904  0.278855  1
  Si  Si487  1  0.453421  0.159340  0.144815  1
  Si  Si488  1  0.483075  0.044645  0.194348  1
  Si  Si489  1  0.159852  0.017121  0.276806  1
  Si  Si490  1  0.101497  0.106991  0.150326  1
  Si  Si491  1  0.001774  0.100712  0.119704  1
  Si  Si492  1  0.133893  0.573013  0.168629  1
  Si  Si493  1  0.070276  0.368778  0.129394  1
  Si  Si494  1  0.430168  0.634106  0.269036  1
  Si  Si495  1  0.071830  0.569295  0.112002  1
  Si  Si496  1  0.427417  0.432479  0.252081  1
  Si  Si497  1  0.270254  0.538496  0.158744  1
  Si  Si498  1  0.461437  0.467690  0.212988  1
  Si  Si499  1  0.016151  0.544987  0.193924  1
  Si  Si500  1  0.158958  0.481399  0.136375  1
  Si  Si501  1  0.339402  0.517631  0.276729  1
  Si  Si502  1  0.046264  0.660886  0.144710  1
  Si  Si503  1  0.453586  0.340092  0.284633  1
  Si  Si504  1  0.394856  0.496792  0.178155  1
  Si  Si505  1  0.005531  0.398170  0.260101  1
  Si  Si506  1  0.497856  0.601726  0.120118  1
  Si  Si507  1  0.398106  0.605994  0.150512  1
  Si  Si508  1  0.073411  0.929446  0.252459  1
  Si  Si509  1  0.428802  0.868089  0.128908  1
  Si  Si510  1  0.467694  0.769597  0.278614  1
  Si  Si511  1  0.036698  0.968090  0.213627  1
  Si  Si512  1  0.467691  0.729679  0.139089  1
  Si  Si513  1  0.046569  0.841297  0.283911  1
  Si  Si514  1  0.340673  0.980686  0.136468  1
  Si  Si515  1  0.105082  0.997521  0.178045  1
  Si  Si516  1  0.496003  0.898568  0.259071  1
  Si  Si517  1  0.866118  0.072018  0.269964  1
  Si  Si518  1  0.568816  0.132660  0.170004  1
  Si  Si519  1  0.730750  0.036673  0.280306  1
  Si  Si520  1  0.532707  0.267820  0.159798  1
  Si  Si521  1  0.982502  0.044410  0.244536  1
  Si  Si522  1  0.660202  0.016138  0.162163  1
  Si  Si523  1  0.894826  0.003626  0.120642  1
  Si  Si524  1  0.601690  0.105385  0.288809  1
  Si  Si525  1  0.927866  0.432203  0.186630  1
  Si  Si526  1  0.633193  0.572238  0.270374  1
  Si  Si527  1  0.866616  0.426963  0.129776  1
  Si  Si528  1  0.930661  0.633314  0.169627  1
  Si  Si529  1  0.961764  0.467417  0.225691  1
  Si  Si530  1  0.772165  0.537566  0.280120  1
  Si  Si531  1  0.730901  0.462169  0.140146  1
  Si  Si532  1  0.957218  0.340383  0.153745  1
  Si  Si533  1  0.515765  0.545142  0.244759  1
  Si  Si534  1  0.983331  0.457236  0.104217  1
  Si  Si535  1  0.839825  0.517313  0.161963  1
  Si  Si536  1  0.601406  0.394246  0.148592  1
  Si  Si537  1  0.898289  0.605975  0.288080  1
  Si  Si538  1  0.895325  0.496728  0.260474  1
  Si  Si539  1  0.604701  0.504338  0.120937  1
  Si  Si540  1  0.504606  0.397599  0.178645  1
  Si  Si541  1  0.633506  0.926038  0.129954  1
  Si  Si542  1  0.573319  0.930253  0.186486  1
  Si  Si543  1  0.769065  0.961819  0.140203  1
  Si  Si544  1  0.969080  0.770799  0.159619  1
  Si  Si545  1  0.534186  0.967326  0.225295  1
  Si  Si546  1  0.516383  0.956164  0.104362  1
  Si  Si547  1  0.544901  0.839913  0.153986  1
  Si  Si548  1  0.604984  0.997203  0.260880  1
  Si  Si549  1  0.996920  0.898342  0.178863  1
  Si  Si550  1  0.898670  0.894561  0.148427  1
  Si  Si551  1  0.428049  0.068203  0.392314  1
  Si  Si552  1  0.366142  0.071745  0.449059  1
  Si  Si553  1  0.067517  0.133609  0.549569  1
  Si  Si554  1  0.032711  0.227799  0.419793  1
  Si  Si555  1  0.463381  0.032168  0.353509  1
  Si  Si556  1  0.229567  0.038199  0.439109  1
  Si  Si557  1  0.034271  0.269904  0.559125  1
  Si  Si558  1  0.453421  0.159340  0.425085  1
  Si  Si559  1  0.483075  0.044645  0.474618  1
  Si  Si560  1  0.159852  0.017121  0.557076  1
  Si  Si561  1  0.101497  0.106991  0.430596  1
  Si  Si562  1  0.394114  0.003199  0.317790  1
  Si  Si563  1  0.001774  0.100712  0.399974  1
  Si  Si564  1  0.366028  0.426652  0.308758  1
  Si  Si565  1  0.133893  0.573013  0.448900  1
  Si  Si566  1  0.070276  0.368778  0.409664  1
  Si  Si567  1  0.430168  0.634106  0.549306  1
  Si  Si568  1  0.071830  0.569295  0.392272  1
  Si  Si569  1  0.427417  0.432479  0.532352  1
  Si  Si570  1  0.230566  0.463364  0.298711  1
  Si  Si571  1  0.270254  0.538496  0.439014  1
  Si  Si572  1  0.037151  0.531096  0.353164  1
  Si  Si573  1  0.461437  0.467690  0.493258  1
  Si  Si574  1  0.483554  0.455971  0.334207  1
  Si  Si575  1  0.016151  0.544987  0.474194  1
  Si  Si576  1  0.158958  0.481399  0.416645  1
  Si  Si577  1  0.339402  0.517631  0.556999  1
  Si  Si578  1  0.046264  0.660886  0.424980  1
  Si  Si579  1  0.453586  0.340092  0.564904  1
  Si  Si580  1  0.104712  0.503975  0.318359  1
  Si  Si581  1  0.394856  0.496792  0.458425  1
  Si  Si582  1  0.005531  0.398170  0.540371  1
  Si  Si583  1  0.497856  0.601726  0.400388  1
  Si  Si584  1  0.398106  0.605994  0.430783  1
  Si  Si585  1  0.101535  0.395217  0.290211  1
  Si  Si586  1  0.073411  0.929446  0.532729  1
  Si  Si587  1  0.132656  0.927859  0.309139  1
  Si  Si588  1  0.428802  0.868089  0.409179  1
  Si  Si589  1  0.467694  0.769597  0.558884  1
  Si  Si590  1  0.036698  0.968090  0.493897  1
  Si  Si591  1  0.273698  0.962795  0.298724  1
  Si  Si592  1  0.467691  0.729679  0.419359  1
  Si  Si593  1  0.046569  0.841297  0.564181  1
  Si  Si594  1  0.019007  0.952535  0.333723  1
  Si  Si595  1  0.340673  0.980686  0.416738  1
  Si  Si596  1  0.396869  0.894599  0.289965  1
  Si  Si597  1  0.105082  0.997521  0.458315  1
  Si  Si598  1  0.496003  0.898568  0.539341  1
  Si  Si599  1  0.866118  0.072018  0.550234  1
  Si  Si600  1  0.568816  0.132660  0.450275  1
  Si  Si601  1  0.927243  0.067893  0.326829  1
  Si  Si602  1  0.730750  0.036673  0.560576  1
  Si  Si603  1  0.532707  0.267820  0.440068  1
  Si  Si604  1  0.532368  0.231558  0.299758  1
  Si  Si605  1  0.962038  0.032478  0.364926  1
  Si  Si606  1  0.982502  0.044410  0.524806  1
  Si  Si607  1  0.660202  0.016138  0.442433  1
  Si  Si608  1  0.954955  0.158171  0.293998  1
  Si  Si609  1  0.894826  0.003626  0.400912  1
  Si  Si610  1  0.504456  0.102091  0.318757  1
  Si  Si611  1  0.601690  0.105385  0.569079  1
  Si  Si612  1  0.927866  0.432203  0.466900  1
  Si  Si613  1  0.570910  0.568656  0.326946  1
  Si  Si614  1  0.633193  0.572238  0.550644  1
  Si  Si615  1  0.866616  0.426963  0.410046  1
  Si  Si616  1  0.930661  0.633314  0.449897  1
  Si  Si617  1  0.569215  0.366669  0.309767  1
  Si  Si618  1  0.961764  0.467417  0.505961  1
  Si  Si619  1  0.537028  0.532974  0.364968  1
  Si  Si620  1  0.772165  0.537566  0.560390  1
  Si  Si621  1  0.730901  0.462169  0.420416  1
  Si  Si622  1  0.957218  0.340383  0.434015  1
  Si  Si623  1  0.545674  0.660993  0.294190  1
  Si  Si624  1  0.515765  0.545142  0.525029  1
  Si  Si625  1  0.983331  0.457236  0.384487  1
  Si  Si626  1  0.839825  0.517313  0.442234  1
  Si  Si627  1  0.659300  0.483734  0.301796  1
  Si  Si628  1  0.601406  0.394246  0.428862  1
  Si  Si629  1  0.898289  0.605975  0.568350  1
  Si  Si630  1  0.895325  0.496728  0.540744  1
  Si  Si631  1  0.604701  0.504338  0.401207  1
  Si  Si632  1  0.995926  0.603011  0.318661  1
  Si  Si633  1  0.504606  0.397599  0.458915  1
  Si  Si634  1  0.633506  0.926038  0.410224  1
  Si  Si635  1  0.931027  0.865967  0.309292  1
  Si  Si636  1  0.573319  0.930253  0.466756  1
  Si  Si637  1  0.769065  0.961819  0.420473  1
  Si  Si638  1  0.966372  0.730137  0.299730  1
  Si  Si639  1  0.969080  0.770799  0.439889  1
  Si  Si640  1  0.534186  0.967326  0.505565  1
  Si  Si641  1  0.516383  0.956164  0.384632  1
  Si  Si642  1  0.839436  0.982581  0.302313  1
  Si  Si643  1  0.544901  0.839913  0.434256  1
  Si  Si644  1  0.604984  0.997203  0.541150  1
  Si  Si645  1  0.996920  0.898342  0.459133  1
  Si  Si646  1  0.898670  0.894561  0.428697  1
  Si  Si647  1  0.428049  0.068203  0.672584  1
  Si  Si648  1  0.366142  0.071745  0.729329  1
  Si  Si649  1  0.032711  0.227799  0.700064  1
  Si  Si650  1  0.463381  0.032168  0.633779  1
  Si  Si651  1  0.229567  0.038199  0.719379  1
  Si  Si652  1  0.453421  0.159340  0.705355  1
  Si  Si653  1  0.483075  0.044645  0.754888  1
  Si  Si654  1  0.101497  0.106991  0.710867  1
  Si  Si655  1  0.394114  0.003199  0.598060  1
  Si  Si656  1  0.001774  0.100712  0.680245  1
  Si  Si657  1  0.366028  0.426652  0.589028  1
  Si  Si658  1  0.133893  0.573013  0.729170  1
  Si  Si659  1  0.070276  0.368778  0.689934  1
  Si  Si660  1  0.071830  0.569295  0.672542  1
  Si  Si661  1  0.230566  0.463364  0.578982  1
  Si  Si662  1  0.270254  0.538496  0.719284  1
  Si  Si663  1  0.037151  0.531096  0.633434  1
  Si  Si664  1  0.483554  0.455971  0.614477  1
  Si  Si665  1  0.016151  0.544987  0.754464  1
  Si  Si666  1  0.158958  0.481399  0.696916  1
  Si  Si667  1  0.046264  0.660886  0.705250  1
  Si  Si668  1  0.104712  0.503975  0.598630  1
  Si  Si669  1  0.394856  0.496792  0.738695  1
  Si  Si670  1  0.497856  0.601726  0.680658  1
  Si  Si671  1  0.398106  0.605994  0.711053  1
  Si  Si672  1  0.101535  0.395217  0.570481  1
  Si  Si673  1  0.132656  0.927859  0.589409  1
  Si  Si674  1  0.428802  0.868089  0.689449  1
  Si  Si675  1  0.273698  0.962795  0.578994  1
  Si  Si676  1  0.467691  0.729679  0.699629  1
  Si  Si677  1  0.019007  0.952535  0.613993  1
  Si  Si678  1  0.340673  0.980686  0.697008  1
  Si  Si679  1  0.396869  0.894599  0.570235  1
  Si  Si680  1  0.105082  0.997521  0.738585  1
  Si  Si681  1  0.568816  0.132660  0.730545  1
  Si  Si682  1  0.927243  0.067893  0.607099  1
  Si  Si683  1  0.532707  0.267820  0.720338  1
  Si  Si684  1  0.532368  0.231558  0.580028  1
  Si  Si685  1  0.962038  0.032478  0.645196  1
  Si  Si686  1  0.660202  0.016138  0.722703  1
  Si  Si687  1  0.954955  0.158171  0.574269  1
  Si  Si688  1  0.894826  0.003626  0.681182  1
  Si  Si689  1  0.504456  0.102091  0.599028  1
  Si  Si690  1  0.927866  0.432203  0.747170  1
  Si  Si691  1  0.570910  0.568656  0.607216  1
  Si  Si692  1  0.866616  0.426963  0.690316  1
  Si  Si693  1  0.930661  0.633314  0.730167  1
  Si  Si694  1  0.569215  0.366669  0.590037  1
  Si  Si695  1  0.537028  0.532974  0.645239  1
  Si  Si696  1  0.730901  0.462169  0.700686  1
  Si  Si697  1  0.957218  0.340383  0.714285  1
  Si  Si698  1  0.545674  0.660993  0.574460  1
  Si  Si699  1  0.983331  0.457236  0.664757  1
  Si  Si700  1  0.839825  0.517313  0.722504  1
  Si  Si701  1  0.659300  0.483734  0.582066  1
  Si  Si702  1  0.601406  0.394246  0.709132  1
  Si  Si703  1  0.604701  0.504338  0.681477  1
  Si  Si704  1  0.995926  0.603011  0.598931  1
  Si  Si705  1  0.504606  0.397599  0.739185  1
  Si  Si706  1  0.633506  0.926038  0.690494  1
  Si  Si707  1  0.931027  0.865967  0.589562  1
  Si  Si708  1  0.573319  0.930253  0.747027  1
  Si  Si709  1  0.769065  0.961819  0.700743  1
  Si  Si710  1  0.966372  0.730137  0.580000  1
  Si  Si711  1  0.969080  0.770799  0.720159  1
  Si  Si712  1  0.516383  0.956164  0.664902  1
  Si  Si713  1  0.839436  0.982581  0.582583  1
  Si  Si714  1  0.544901  0.839913  0.714526  1
  Si  Si715  1  0.996920  0.898342  0.739403  1
  Si  Si716  1  0.898670  0.894561  0.708967  1
  H  H717  1  0.428982  0.071286  0.077223  1
  H  H718  1  0.003474  0.078563  0.085789  1
  H  H719  1  0.070920  0.571439  0.077083  1
  H  H720  1  0.496081  0.579419  0.086117  1
  H  H721  1  0.910149  0.001235  0.086257  1
  H  H722  1  0.589058  0.501814  0.086505  1
  H  H723  1  0.994921  0.476422  0.070548  1
  H  H724  1  0.505170  0.977070  0.070739  1
  H  H725  1  0.493117  0.023376  0.788356  1
  H  H726  1  0.408730  0.499569  0.772824  1
  H  H727  1  0.003355  0.522728  0.788134  1
  H  H728  1  0.089051  0.000000  0.772811  1
  H  H729  1  0.928605  0.428248  0.782007  1
  H  H730  1  0.504003  0.420732  0.773004  1
  H  H731  1  0.570489  0.927926  0.781821  1
  H  H732  1  0.995727  0.920859  0.773211  1
