# generated using pymatgen
data_Si15H2O31
_symmetry_space_group_name_H-M   'P 1'
_cell_length_a   6.98625762
_cell_length_b   12.63072671
_cell_length_c   41.66846658
_cell_angle_alpha   90.00000000
_cell_angle_beta   90.00000000
_cell_angle_gamma   90.00000000
_symmetry_Int_Tables_number   1
_chemical_formula_structural   Si15H2O31
_chemical_formula_sum   'Si30 H4 O62'
_cell_volume   3676.88844052
_cell_formula_units_Z   2
loop_
 _symmetry_equiv_pos_site_id
 _symmetry_equiv_pos_as_xyz
  1  'x, y, z'
loop_
 _atom_site_type_symbol
 _atom_site_label
 _atom_site_symmetry_multiplicity
 _atom_site_fract_x
 _atom_site_fract_y
 _atom_site_fract_z
 _atom_site_occupancy
  O  O1  1  0.829897  0.522776  0.246197  1
  O  O2  1  0.172335  0.021673  0.354544  1
  O  O3  1  0.841575  0.976185  0.197118  1
  O  O4  1  0.167704  0.475591  0.195240  1
  O  O5  1  0.825513  0.524501  0.353881  1
  O  O6  1  0.165067  0.022518  0.245340  1
  O  O7  1  0.181899  0.528188  0.252169  1
  O  O8  1  0.820855  0.031076  0.348859  1
  O  O9  1  0.196884  0.965082  0.188390  1
  O  O10  1  0.809148  0.469695  0.188506  1
  O  O11  1  0.180349  0.529175  0.348864  1
  O  O12  1  0.809604  0.033375  0.254289  1
  O  O13  1  0.976133  0.695712  0.247689  1
  O  O14  1  0.025691  0.197371  0.352065  1
  O  O15  1  0.982521  0.804428  0.194284  1
  O  O16  1  0.019821  0.305993  0.195554  1
  O  O17  1  0.970921  0.694422  0.352775  1
  O  O18  1  0.020102  0.196345  0.248752  1
  O  O19  1  0.970299  0.585484  0.300188  1
  O  O20  1  0.024740  0.410638  0.141644  1
  O  O21  1  0.034120  0.084933  0.300382  1
  O  O22  1  0.973817  0.914091  0.141594  1
  O  O23  1  0.734093  0.847074  0.234718  1
  O  O24  1  0.735071  0.656909  0.208441  1
  O  O25  1  0.271993  0.343762  0.367037  1
  O  O26  1  0.727622  0.845218  0.366981  1
  O  O27  1  0.262430  0.152542  0.208329  1
  O  O28  1  0.270965  0.342084  0.233996  1
  O  O29  1  0.504906  0.002292  0.220849  1
  O  O30  1  0.498244  0.500983  0.220924  1
  O  O31  1  0.829897  0.522776  0.564231  1
  O  O32  1  0.170835  0.474875  0.406136  1
  O  O33  1  0.841575  0.976185  0.515152  1
  O  O34  1  0.167704  0.475591  0.513274  1
  O  O35  1  0.834222  0.977904  0.405710  1
  O  O36  1  0.165067  0.022518  0.563375  1
  O  O37  1  0.181899  0.528188  0.570203  1
  O  O38  1  0.816437  0.471885  0.411249  1
  O  O39  1  0.196884  0.965082  0.506424  1
  O  O40  1  0.809148  0.469695  0.506540  1
  O  O41  1  0.191798  0.966118  0.412224  1
  O  O42  1  0.809604  0.033375  0.572323  1
  O  O43  1  0.976133  0.695712  0.565723  1
  O  O44  1  0.021263  0.306014  0.405821  1
  O  O45  1  0.982521  0.804428  0.512318  1
  O  O46  1  0.019821  0.305993  0.513588  1
  O  O47  1  0.973495  0.806073  0.406137  1
  O  O48  1  0.020102  0.196345  0.566786  1
  O  O49  1  0.970299  0.585484  0.618222  1
  O  O50  1  0.024740  0.410638  0.459678  1
  O  O51  1  0.034120  0.084933  0.618416  1
  O  O52  1  0.973817  0.914091  0.459628  1
  O  O53  1  0.261244  0.153367  0.392468  1
  O  O54  1  0.734093  0.847074  0.552752  1
  O  O55  1  0.735071  0.656909  0.526476  1
  O  O56  1  0.262430  0.152542  0.526363  1
  O  O57  1  0.270965  0.342084  0.552030  1
  O  O58  1  0.726537  0.657131  0.392661  1
  O  O59  1  0.503386  0.002474  0.380245  1
  O  O60  1  0.504906  0.002292  0.538883  1
  O  O61  1  0.498244  0.500983  0.538958  1
  O  O62  1  0.497357  0.502065  0.380471  1
  Si  Si63  1  0.994252  0.582857  0.263494  1
  Si  Si64  1  0.010790  0.084755  0.337453  1
  Si  Si65  1  0.005862  0.915212  0.178584  1
  Si  Si66  1  0.997715  0.418197  0.178596  1
  Si  Si67  1  0.993247  0.582345  0.336879  1
  Si  Si68  1  -0.000000  0.084048  0.263494  1
  Si  Si69  1  0.712867  0.967549  0.228258  1
  Si  Si70  1  0.709712  0.533352  0.214808  1
  Si  Si71  1  0.290241  0.463587  0.374703  1
  Si  Si72  1  0.711908  0.964891  0.374790  1
  Si  Si73  1  0.293688  0.030744  0.214449  1
  Si  Si74  1  0.289911  0.461846  0.226179  1
  Si  Si75  1  0.144772  0.251007  0.378898  1
  Si  Si76  1  0.856123  0.755053  0.220971  1
  Si  Si77  1  0.847213  0.750427  0.379468  1
  Si  Si78  1  0.144117  0.248748  0.222306  1
  Si  Si79  1  0.994252  0.582857  0.581528  1
  Si  Si80  1  0.002422  0.416605  0.422797  1
  Si  Si81  1  0.005862  0.915212  0.496619  1
  Si  Si82  1  0.997715  0.418197  0.496630  1
  Si  Si83  1  0.001019  0.918496  0.422555  1
  Si  Si84  1  -0.000000  0.084048  0.581529  1
  Si  Si85  1  0.290128  0.030555  0.386063  1
  Si  Si86  1  0.712867  0.967549  0.546292  1
  Si  Si87  1  0.709712  0.533352  0.532842  1
  Si  Si88  1  0.293688  0.030744  0.532483  1
  Si  Si89  1  0.289911  0.461846  0.544213  1
  Si  Si90  1  0.707085  0.537227  0.385334  1
  Si  Si91  1  0.856123  0.755053  0.539005  1
  Si  Si92  1  0.144117  0.248748  0.540340  1
  H  H93  1  0.024740  0.410638  0.120045  1
  H  H94  1  0.973817  0.914091  0.119995  1
  H  H95  1  0.970299  0.585484  0.639822  1
  H  H96  1  0.034120  0.084933  0.640016  1
