# generated using pymatgen
data_Si8H2O17
_symmetry_space_group_name_H-M   'P 1'
_cell_length_a   6.96337406
_cell_length_b   15.38684673
_cell_length_c   30.48060167
_cell_angle_alpha   96.99200000
_cell_angle_beta   90.00000000
_cell_angle_gamma   90.00000000
_symmetry_Int_Tables_number   1
_chemical_formula_structural   Si8H2O17
_chemical_formula_sum   'Si16 H4 O34'
_cell_volume   3241.53742172
_cell_formula_units_Z   2
loop_
 _symmetry_equiv_pos_site_id
 _symmetry_equiv_pos_as_xyz
  1  'x, y, z'
loop_
 _atom_site_type_symbol
 _atom_site_label
 _atom_site_symmetry_multiplicity
 _atom_site_fract_x
 _atom_site_fract_y
 _atom_site_fract_z
 _atom_site_occupancy
  O  O1  1  0.151311  0.249951  0.194795  1
  O  O2  1  0.848277  0.749951  0.194797  1
  O  O3  1  0.307379  0.202768  0.399238  1
  O  O4  1  0.307381  0.297133  0.270223  1
  O  O5  1  0.692206  0.797133  0.270223  1
  O  O6  1  0.692207  0.702768  0.399239  1
  O  O7  1  0.099204  0.338907  0.407453  1
  O  O8  1  0.099202  0.160996  0.262007  1
  O  O9  1  0.900383  0.660995  0.262008  1
  O  O10  1  0.900384  0.838906  0.407454  1
  O  O11  1  0.952624  0.183008  0.407999  1
  O  O12  1  0.952624  0.316894  0.261461  1
  O  O13  1  0.046962  0.816892  0.261462  1
  O  O14  1  0.046963  0.683007  0.408000  1
  O  O15  1  0.151311  0.249951  0.474668  1
  O  O16  1  0.848277  0.749951  0.474670  1
  O  O17  1  0.883419  0.010864  0.389341  1
  O  O18  1  0.883418  0.489037  0.280120  1
  O  O19  1  0.116169  0.989037  0.280120  1
  O  O20  1  0.116169  0.510864  0.389341  1
  O  O21  1  0.054164  0.891330  0.339229  1
  O  O22  1  0.054163  0.608571  0.330232  1
  O  O23  1  0.945422  0.108571  0.330232  1
  O  O24  1  0.945424  0.391331  0.339229  1
  O  O25  1  0.696475  0.888955  0.344829  1
  O  O26  1  0.696473  0.610946  0.324633  1
  O  O27  1  0.303113  0.110946  0.324632  1
  O  O28  1  0.303114  0.388955  0.344828  1
  O  O29  1  0.371774  0.623742  0.372147  1
  O  O30  1  0.371774  0.876157  0.297315  1
  O  O31  1  0.627813  0.376159  0.297314  1
  O  O32  1  0.627812  0.123743  0.372146  1
  O  O33  1  0.489820  0.249951  0.334730  1
  O  O34  1  0.509767  0.749950  0.334731  1
  Si  Si35  1  0.125395  0.245628  0.423645  1
  Si  Si36  1  0.125395  0.254272  0.245813  1
  Si  Si37  1  0.874190  0.754272  0.245814  1
  Si  Si38  1  0.874193  0.745628  0.423645  1
  Si  Si39  1  0.884537  0.908472  0.373481  1
  Si  Si40  1  0.884536  0.591427  0.295981  1
  Si  Si41  1  0.115050  0.091423  0.295980  1
  Si  Si42  1  0.115051  0.408470  0.373480  1
  Si  Si43  1  0.150108  0.607477  0.377070  1
  Si  Si44  1  0.150111  0.892431  0.292393  1
  Si  Si45  1  0.849477  0.392428  0.292391  1
  Si  Si46  1  0.849479  0.107475  0.377069  1
  Si  Si47  1  0.437009  0.332064  0.310912  1
  Si  Si48  1  0.437012  0.167837  0.358548  1
  Si  Si49  1  0.562577  0.667838  0.358549  1
  Si  Si50  1  0.562578  0.832064  0.310913  1
  H  H51  1  0.151311  0.249951  0.165268  1
  H  H52  1  0.848277  0.749951  0.165270  1
  H  H53  1  0.151311  0.249951  0.504195  1
  H  H54  1  0.848277  0.749951  0.504197  1
