# generated using pymatgen
data_Si8H2O17
_symmetry_space_group_name_H-M   'P 1'
_cell_length_a   21.11999289
_cell_length_b   21.12704298
_cell_length_c   69.62326005
_cell_angle_alpha   134.96125367
_cell_angle_beta   134.98035700
_cell_angle_gamma   60.03370721
_symmetry_Int_Tables_number   1
_chemical_formula_structural   Si8H2O17
_chemical_formula_sum   'Si96 H24 O204'
_cell_volume   15548.8823197
_cell_formula_units_Z   12
loop_
 _symmetry_equiv_pos_site_id
 _symmetry_equiv_pos_as_xyz
  1  'x, y, z'
loop_
 _atom_site_type_symbol
 _atom_site_label
 _atom_site_symmetry_multiplicity
 _atom_site_fract_x
 _atom_site_fract_y
 _atom_site_fract_z
 _atom_site_occupancy
  O  O1  1  0.407687  0.028135  0.228027  1
  O  O2  1  0.752899  0.017636  0.236399  1
  O  O3  1  0.254576  0.017976  0.202846  1
  O  O4  1  0.921333  0.253271  0.195139  1
  O  O5  1  0.421287  0.253661  0.202627  1
  O  O6  1  0.329123  0.180040  0.248875  1
  O  O7  1  0.399642  0.329382  0.248807  1
  O  O8  1  0.932832  0.302261  0.137230  1
  O  O9  1  0.900617  0.331195  0.172683  1
  O  O10  1  0.090541  0.529430  0.267281  1
  O  O11  1  0.873301  0.408860  0.215576  1
  O  O12  1  0.376146  0.408860  0.228215  1
  O  O13  1  0.027154  0.377164  0.228649  1
  O  O14  1  0.528229  0.376388  0.267915  1
  O  O15  1  0.018248  0.421100  0.202735  1
  O  O16  1  0.179815  0.399730  0.249026  1
  O  O17  1  0.850112  0.435578  0.157766  1
  O  O18  1  0.972704  0.877073  0.256061  1
  O  O19  1  0.471950  0.875254  0.216015  1
  O  O20  1  0.078447  0.754150  0.236299  1
  O  O21  1  0.578296  0.753655  0.228764  1
  O  O22  1  0.482966  0.921981  0.195274  1
  O  O23  1  0.600057  0.832058  0.215642  1
  O  O24  1  0.820263  0.901124  0.245326  1
  O  O25  1  0.320884  0.899754  0.171842  1
  O  O26  1  0.152035  0.932655  0.137438  1
  O  O27  1  0.651678  0.936013  0.222611  1
  O  O28  1  0.695935  0.848168  0.185314  1
  O  O29  1  0.197033  0.848369  0.156493  1
  O  O30  1  0.567597  0.804050  0.166342  1
  O  O31  1  0.874990  0.092270  0.255779  1
  O  O32  1  0.375850  0.093567  0.267929  1
  O  O33  1  0.019013  0.076049  0.235624  1
  O  O34  1  0.831443  0.318998  0.214786  1
  O  O35  1  0.331042  0.320630  0.172422  1
  O  O36  1  0.901657  0.167747  0.244901  1
  O  O37  1  0.302754  0.151708  0.137565  1
  O  O38  1  0.934386  0.194734  0.221478  1
  O  O39  1  0.803292  0.150512  0.165853  1
  O  O40  1  0.434626  0.196430  0.157148  1
  O  O41  1  0.849282  0.064829  0.185017  1
  O  O42  1  0.409738  0.471311  0.215981  1
  O  O43  1  0.753411  0.481669  0.228624  1
  O  O44  1  0.253644  0.483121  0.195103  1
  O  O45  1  0.481952  0.579427  0.228813  1
  O  O46  1  0.320227  0.599678  0.215381  1
  O  O47  1  0.151482  0.568008  0.166069  1
  O  O48  1  0.651340  0.567745  0.250373  1
  O  O49  1  0.696256  0.651658  0.250428  1
  O  O50  1  0.196631  0.651165  0.222183  1
  O  O51  1  0.091680  0.972260  0.255687  1
  O  O52  1  0.169902  0.819854  0.245366  1
  O  O53  1  0.067170  0.696333  0.185093  1
  O  O54  1  0.563813  0.697804  0.249887  1
  O  O55  1  0.907502  0.028177  0.281766  1
  O  O56  1  0.407687  0.028135  0.442452  1
  O  O57  1  0.752899  0.017636  0.450824  1
  O  O58  1  0.254576  0.017976  0.417271  1
  O  O59  1  0.921333  0.253271  0.409564  1
  O  O60  1  0.421287  0.253661  0.417052  1
  O  O61  1  0.828399  0.179130  0.291938  1
  O  O62  1  0.329123  0.180040  0.463300  1
  O  O63  1  0.399642  0.329382  0.463232  1
  O  O64  1  0.932832  0.302261  0.351655  1
  O  O65  1  0.433053  0.302721  0.286365  1
  O  O66  1  0.900617  0.331195  0.387108  1
  O  O67  1  0.090541  0.529430  0.481706  1
  O  O68  1  0.873301  0.408860  0.430001  1
  O  O69  1  0.590628  0.529233  0.321244  1
  O  O70  1  0.376146  0.408860  0.442640  1
  O  O71  1  0.027154  0.377164  0.443074  1
  O  O72  1  0.528229  0.376388  0.482340  1
  O  O73  1  0.018248  0.421100  0.417160  1
  O  O74  1  0.517531  0.421534  0.308216  1
  O  O75  1  0.244749  0.516816  0.307660  1
  O  O76  1  0.746943  0.517063  0.342188  1
  O  O77  1  0.179815  0.399730  0.463451  1
  O  O78  1  0.681179  0.402446  0.323093  1
  O  O79  1  0.303014  0.347469  0.286388  1
  O  O80  1  0.804422  0.347261  0.315717  1
  O  O81  1  0.850112  0.435578  0.372191  1
  O  O82  1  0.347529  0.432558  0.286255  1
  O  O83  1  0.972704  0.877073  0.470486  1
  O  O84  1  0.471950  0.875254  0.430440  1
  O  O85  1  0.125779  0.909898  0.282488  1
  O  O86  1  0.623160  0.908661  0.269794  1
  O  O87  1  0.078447  0.754150  0.450724  1
  O  O88  1  0.578296  0.753655  0.443189  1
  O  O89  1  0.982012  0.921468  0.300865  1
  O  O90  1  0.482966  0.921981  0.409699  1
  O  O91  1  0.098596  0.830477  0.291913  1
  O  O92  1  0.600057  0.832058  0.430067  1
  O  O93  1  0.820263  0.901124  0.459751  1
  O  O94  1  0.167865  0.679739  0.321644  1
  O  O95  1  0.320884  0.899754  0.386267  1
  O  O96  1  0.669123  0.679183  0.364581  1
  O  O97  1  0.152035  0.932655  0.351864  1
  O  O98  1  0.651678  0.936013  0.437036  1
  O  O99  1  0.695935  0.848168  0.399739  1
  O  O100  1  0.063912  0.802992  0.314784  1
  O  O101  1  0.197033  0.848369  0.370918  1
  O  O102  1  0.567597  0.804050  0.380767  1
  O  O103  1  0.874990  0.092270  0.470204  1
  O  O104  1  0.375850  0.093567  0.482354  1
  O  O105  1  0.026963  0.124230  0.281082  1
  O  O106  1  0.528243  0.124528  0.321127  1
  O  O107  1  0.019013  0.076049  0.450049  1
  O  O108  1  0.517953  0.078801  0.342377  1
  O  O109  1  0.921178  0.245022  0.300521  1
  O  O110  1  0.421749  0.246229  0.308296  1
  O  O111  1  0.179582  0.099056  0.291877  1
  O  O112  1  0.831443  0.318998  0.429211  1
  O  O113  1  0.680524  0.098837  0.365292  1
  O  O114  1  0.331042  0.320630  0.386847  1
  O  O115  1  0.901657  0.167747  0.459326  1
  O  O116  1  0.400964  0.169635  0.322338  1
  O  O117  1  0.302754  0.151708  0.351990  1
  O  O118  1  0.934386  0.194734  0.435903  1
  O  O119  1  0.803292  0.150512  0.380278  1
  O  O120  1  0.434626  0.196430  0.371573  1
  O  O121  1  0.849282  0.064829  0.399443  1
  O  O122  1  0.348850  0.065372  0.315320  1
  O  O123  1  0.970885  0.626053  0.309147  1
  O  O124  1  0.473186  0.623603  0.269748  1
  O  O125  1  0.907217  0.472607  0.269109  1
  O  O126  1  0.122882  0.592388  0.320547  1
  O  O127  1  0.409738  0.471311  0.430406  1
  O  O128  1  0.624715  0.591670  0.309140  1
  O  O129  1  0.753411  0.481669  0.443049  1
  O  O130  1  0.253644  0.483121  0.409528  1
  O  O131  1  0.982032  0.578627  0.334096  1
  O  O132  1  0.481952  0.579427  0.443238  1
  O  O133  1  0.819518  0.600015  0.288005  1
  O  O134  1  0.320227  0.599678  0.429806  1
  O  O135  1  0.151482  0.568008  0.380494  1
  O  O136  1  0.651340  0.567745  0.464798  1
  O  O137  1  0.696256  0.651658  0.464853  1
  O  O138  1  0.196631  0.651165  0.436608  1
  O  O139  1  0.091680  0.972260  0.470112  1
  O  O140  1  0.591208  0.971710  0.309291  1
  O  O141  1  0.078068  0.747605  0.342109  1
  O  O142  1  0.578690  0.746252  0.334484  1
  O  O143  1  0.246652  0.982825  0.301034  1
  O  O144  1  0.747125  0.981483  0.334335  1
  O  O145  1  0.100041  0.671615  0.365135  1
  O  O146  1  0.598718  0.670348  0.287729  1
  O  O147  1  0.169902  0.819854  0.459791  1
  O  O148  1  0.668184  0.820713  0.287702  1
  O  O149  1  0.067170  0.696333  0.399518  1
  O  O150  1  0.563813  0.697804  0.464313  1
  O  O151  1  0.907502  0.028177  0.496191  1
  O  O152  1  0.828399  0.179130  0.506363  1
  O  O153  1  0.932832  0.302261  0.566080  1
  O  O154  1  0.433053  0.302721  0.500790  1
  O  O155  1  0.590628  0.529233  0.535670  1
  O  O156  1  0.517531  0.421534  0.522641  1
  O  O157  1  0.244749  0.516816  0.522085  1
  O  O158  1  0.746943  0.517063  0.556613  1
  O  O159  1  0.681179  0.402446  0.537518  1
  O  O160  1  0.303014  0.347469  0.500813  1
  O  O161  1  0.804422  0.347261  0.530142  1
  O  O162  1  0.850112  0.435578  0.586616  1
  O  O163  1  0.347529  0.432558  0.500680  1
  O  O164  1  0.125779  0.909898  0.496913  1
  O  O165  1  0.623160  0.908661  0.484220  1
  O  O166  1  0.982012  0.921468  0.515290  1
  O  O167  1  0.098596  0.830477  0.506339  1
  O  O168  1  0.167865  0.679739  0.536069  1
  O  O169  1  0.669123  0.679183  0.579006  1
  O  O170  1  0.152035  0.932655  0.566289  1
  O  O171  1  0.695935  0.848168  0.614165  1
  O  O172  1  0.063912  0.802992  0.529210  1
  O  O173  1  0.197033  0.848369  0.585343  1
  O  O174  1  0.567597  0.804050  0.595192  1
  O  O175  1  0.026963  0.124230  0.495507  1
  O  O176  1  0.528243  0.124528  0.535552  1
  O  O177  1  0.517953  0.078801  0.556802  1
  O  O178  1  0.921178  0.245022  0.514946  1
  O  O179  1  0.421749  0.246229  0.522721  1
  O  O180  1  0.179582  0.099056  0.506302  1
  O  O181  1  0.680524  0.098837  0.579717  1
  O  O182  1  0.400964  0.169635  0.536763  1
  O  O183  1  0.302754  0.151708  0.566415  1
  O  O184  1  0.803292  0.150512  0.594704  1
  O  O185  1  0.434626  0.196430  0.585998  1
  O  O186  1  0.849282  0.064829  0.613868  1
  O  O187  1  0.348850  0.065372  0.529745  1
  O  O188  1  0.970885  0.626053  0.523572  1
  O  O189  1  0.473186  0.623603  0.484173  1
  O  O190  1  0.907217  0.472607  0.483534  1
  O  O191  1  0.122882  0.592388  0.534972  1
  O  O192  1  0.624715  0.591670  0.523565  1
  O  O193  1  0.982032  0.578627  0.548521  1
  O  O194  1  0.819518  0.600015  0.502430  1
  O  O195  1  0.151482  0.568008  0.594919  1
  O  O196  1  0.591208  0.971710  0.523716  1
  O  O197  1  0.078068  0.747605  0.556534  1
  O  O198  1  0.578690  0.746252  0.548909  1
  O  O199  1  0.246652  0.982825  0.515459  1
  O  O200  1  0.747125  0.981483  0.548760  1
  O  O201  1  0.100041  0.671615  0.579560  1
  O  O202  1  0.598718  0.670348  0.502154  1
  O  O203  1  0.668184  0.820713  0.502127  1
  O  O204  1  0.067170  0.696333  0.613943  1
  Si  Si205  1  0.836075  0.081200  0.265780  1
  Si  Si206  1  0.336877  0.082247  0.236452  1
  Si  Si207  1  0.082015  0.432879  0.236920  1
  Si  Si208  1  0.930262  0.337573  0.201943  1
  Si  Si209  1  0.431600  0.337351  0.236333  1
  Si  Si210  1  0.927371  0.374023  0.167796  1
  Si  Si211  1  0.069462  0.838279  0.265735  1
  Si  Si212  1  0.568283  0.837052  0.231182  1
  Si  Si213  1  0.418971  0.931418  0.201368  1
  Si  Si214  1  0.573917  0.875016  0.199405  1
  Si  Si215  1  0.727528  0.927802  0.222122  1
  Si  Si216  1  0.231316  0.927862  0.168157  1
  Si  Si217  1  0.079080  0.068299  0.264844  1
  Si  Si218  1  0.874143  0.227377  0.198639  1
  Si  Si219  1  0.373183  0.227003  0.167142  1
  Si  Si220  1  0.930113  0.124217  0.222102  1
  Si  Si221  1  0.836368  0.418400  0.230319  1
  Si  Si222  1  0.337938  0.421365  0.201867  1
  Si  Si223  1  0.419793  0.567607  0.230993  1
  Si  Si224  1  0.571627  0.628299  0.253026  1
  Si  Si225  1  0.730050  0.571916  0.253287  1
  Si  Si226  1  0.227521  0.573774  0.199055  1
  Si  Si227  1  0.127076  0.727275  0.221822  1
  Si  Si228  1  0.624848  0.728235  0.252782  1
  Si  Si229  1  0.373298  0.269504  0.283573  1
  Si  Si230  1  0.836075  0.081200  0.480205  1
  Si  Si231  1  0.336877  0.082247  0.450877  1
  Si  Si232  1  0.873169  0.268149  0.314530  1
  Si  Si233  1  0.082015  0.432879  0.451345  1
  Si  Si234  1  0.581375  0.433391  0.306731  1
  Si  Si235  1  0.161506  0.579639  0.305326  1
  Si  Si236  1  0.930262  0.337573  0.416368  1
  Si  Si237  1  0.662577  0.578811  0.335327  1
  Si  Si238  1  0.431600  0.337351  0.450758  1
  Si  Si239  1  0.269684  0.427087  0.283480  1
  Si  Si240  1  0.773897  0.427904  0.339270  1
  Si  Si241  1  0.927371  0.374023  0.382221  1
  Si  Si242  1  0.427413  0.372838  0.283420  1
  Si  Si243  1  0.069462  0.838279  0.480160  1
  Si  Si244  1  0.568283  0.837052  0.445607  1
  Si  Si245  1  0.919763  0.931804  0.271876  1
  Si  Si246  1  0.418971  0.931418  0.415793  1
  Si  Si247  1  0.071629  0.872788  0.315105  1
  Si  Si248  1  0.573917  0.875016  0.413830  1
  Si  Si249  1  0.727528  0.927802  0.436547  1
  Si  Si250  1  0.125054  0.772268  0.337975  1
  Si  Si251  1  0.231316  0.927862  0.382582  1
  Si  Si252  1  0.626350  0.770630  0.369143  1
  Si  Si253  1  0.079080  0.068299  0.479269  1
  Si  Si254  1  0.582332  0.067803  0.335863  1
  Si  Si255  1  0.931013  0.162642  0.271486  1
  Si  Si256  1  0.432077  0.163974  0.306424  1
  Si  Si257  1  0.272984  0.073538  0.315791  1
  Si  Si258  1  0.874143  0.227377  0.413064  1
  Si  Si259  1  0.769363  0.069938  0.368497  1
  Si  Si260  1  0.373183  0.227003  0.381567  1
  Si  Si261  1  0.930113  0.124217  0.436527  1
  Si  Si262  1  0.426656  0.126474  0.338620  1
  Si  Si263  1  0.836368  0.418400  0.444744  1
  Si  Si264  1  0.067754  0.664450  0.335662  1
  Si  Si265  1  0.337938  0.421365  0.416292  1
  Si  Si266  1  0.569134  0.663181  0.301271  1
  Si  Si267  1  0.917638  0.568837  0.300550  1
  Si  Si268  1  0.419793  0.567607  0.445418  1
  Si  Si269  1  0.071966  0.627317  0.368818  1
  Si  Si270  1  0.571627  0.628299  0.467451  1
  Si  Si271  1  0.730050  0.571916  0.467712  1
  Si  Si272  1  0.227521  0.573774  0.413480  1
  Si  Si273  1  0.162993  0.919611  0.271930  1
  Si  Si274  1  0.662887  0.922081  0.302009  1
  Si  Si275  1  0.127076  0.727275  0.436247  1
  Si  Si276  1  0.624848  0.728235  0.467207  1
  Si  Si277  1  0.373298  0.269504  0.497998  1
  Si  Si278  1  0.873169  0.268149  0.528955  1
  Si  Si279  1  0.581375  0.433391  0.521156  1
  Si  Si280  1  0.161506  0.579639  0.519751  1
  Si  Si281  1  0.662577  0.578811  0.549752  1
  Si  Si282  1  0.269684  0.427087  0.497905  1
  Si  Si283  1  0.773897  0.427904  0.553695  1
  Si  Si284  1  0.427413  0.372838  0.497845  1
  Si  Si285  1  0.919763  0.931804  0.486301  1
  Si  Si286  1  0.071629  0.872788  0.529530  1
  Si  Si287  1  0.125054  0.772268  0.552400  1
  Si  Si288  1  0.626350  0.770630  0.583568  1
  Si  Si289  1  0.582332  0.067803  0.550288  1
  Si  Si290  1  0.931013  0.162642  0.485911  1
  Si  Si291  1  0.432077  0.163974  0.520849  1
  Si  Si292  1  0.272984  0.073538  0.530216  1
  Si  Si293  1  0.769363  0.069938  0.582922  1
  Si  Si294  1  0.426656  0.126474  0.553045  1
  Si  Si295  1  0.067754  0.664450  0.550087  1
  Si  Si296  1  0.569134  0.663181  0.515696  1
  Si  Si297  1  0.917638  0.568837  0.514975  1
  Si  Si298  1  0.071966  0.627317  0.583243  1
  Si  Si299  1  0.162993  0.919611  0.486355  1
  Si  Si300  1  0.662887  0.922081  0.516435  1
  H  H301  1  0.932832  0.302261  0.124303  1
  H  H302  1  0.850112  0.435578  0.144839  1
  H  H303  1  0.152035  0.932655  0.124512  1
  H  H304  1  0.695935  0.848168  0.172388  1
  H  H305  1  0.197033  0.848369  0.143566  1
  H  H306  1  0.567597  0.804050  0.153415  1
  H  H307  1  0.302754  0.151708  0.124638  1
  H  H308  1  0.803292  0.150512  0.152927  1
  H  H309  1  0.434626  0.196430  0.144221  1
  H  H310  1  0.849282  0.064829  0.172091  1
  H  H311  1  0.151482  0.568008  0.153142  1
  H  H312  1  0.067170  0.696333  0.172167  1
  H  H313  1  0.932832  0.302261  0.579006  1
  H  H314  1  0.850112  0.435578  0.599542  1
  H  H315  1  0.152035  0.932655  0.579215  1
  H  H316  1  0.695935  0.848168  0.627091  1
  H  H317  1  0.197033  0.848369  0.598269  1
  H  H318  1  0.567597  0.804050  0.608118  1
  H  H319  1  0.302754  0.151708  0.579342  1
  H  H320  1  0.803292  0.150512  0.607630  1
  H  H321  1  0.434626  0.196430  0.598925  1
  H  H322  1  0.849282  0.064829  0.626794  1
  H  H323  1  0.151482  0.568008  0.607845  1
  H  H324  1  0.067170  0.696333  0.626870  1
