# generated using pymatgen
data_Si23H6O49
_symmetry_space_group_name_H-M   'P 1'
_cell_length_a   21.11999289
_cell_length_b   21.12704298
_cell_length_c   69.58804261
_cell_angle_alpha   134.96125367
_cell_angle_beta   134.98035700
_cell_angle_gamma   60.03370721
_symmetry_Int_Tables_number   1
_chemical_formula_structural   Si23H6O49
_chemical_formula_sum   'Si92 H24 O196'
_cell_volume   15541.0172498
_cell_formula_units_Z   4
loop_
 _symmetry_equiv_pos_site_id
 _symmetry_equiv_pos_as_xyz
  1  'x, y, z'
loop_
 _atom_site_type_symbol
 _atom_site_label
 _atom_site_symmetry_multiplicity
 _atom_site_fract_x
 _atom_site_fract_y
 _atom_site_fract_z
 _atom_site_occupancy
  O  O1  1  0.407687  0.028135  0.227933  1
  O  O2  1  0.752899  0.017636  0.236310  1
  O  O3  1  0.254576  0.017976  0.202739  1
  O  O4  1  0.921333  0.253271  0.195029  1
  O  O5  1  0.421287  0.253661  0.202521  1
  O  O6  1  0.329123  0.180040  0.248792  1
  O  O7  1  0.399642  0.329382  0.248724  1
  O  O8  1  0.900617  0.331195  0.172562  1
  O  O9  1  0.090541  0.529430  0.267207  1
  O  O10  1  0.873301  0.408860  0.215476  1
  O  O11  1  0.376146  0.408860  0.228121  1
  O  O12  1  0.027154  0.377164  0.228555  1
  O  O13  1  0.528229  0.376388  0.267841  1
  O  O14  1  0.018248  0.421100  0.202629  1
  O  O15  1  0.179815  0.399730  0.248943  1
  O  O16  1  0.972704  0.877073  0.255982  1
  O  O17  1  0.471950  0.875254  0.215916  1
  O  O18  1  0.078447  0.754150  0.236210  1
  O  O19  1  0.578296  0.753655  0.228671  1
  O  O20  1  0.482966  0.921981  0.195164  1
  O  O21  1  0.600057  0.832058  0.215542  1
  O  O22  1  0.820263  0.901124  0.245241  1
  O  O23  1  0.320884  0.899754  0.171720  1
  O  O24  1  0.152035  0.932655  0.137299  1
  O  O25  1  0.651678  0.936013  0.222515  1
  O  O26  1  0.695935  0.848168  0.185199  1
  O  O27  1  0.197033  0.848369  0.156363  1
  O  O28  1  0.567597  0.804050  0.166217  1
  O  O29  1  0.874990  0.092270  0.255699  1
  O  O30  1  0.375850  0.093567  0.267855  1
  O  O31  1  0.019013  0.076049  0.235534  1
  O  O32  1  0.831443  0.318998  0.214686  1
  O  O33  1  0.331042  0.320630  0.172300  1
  O  O34  1  0.901657  0.167747  0.244816  1
  O  O35  1  0.934386  0.194734  0.221381  1
  O  O36  1  0.803292  0.150512  0.165728  1
  O  O37  1  0.849282  0.064829  0.184902  1
  O  O38  1  0.409738  0.471311  0.215882  1
  O  O39  1  0.753411  0.481669  0.228531  1
  O  O40  1  0.253644  0.483121  0.194992  1
  O  O41  1  0.481952  0.579427  0.228720  1
  O  O42  1  0.320227  0.599678  0.215281  1
  O  O43  1  0.151482  0.568008  0.165944  1
  O  O44  1  0.651340  0.567745  0.250291  1
  O  O45  1  0.696256  0.651658  0.250345  1
  O  O46  1  0.196631  0.651165  0.222086  1
  O  O47  1  0.091680  0.972260  0.255607  1
  O  O48  1  0.169902  0.819854  0.245281  1
  O  O49  1  0.067170  0.696333  0.184978  1
  O  O50  1  0.563813  0.697804  0.249805  1
  O  O51  1  0.907502  0.028177  0.281699  1
  O  O52  1  0.407687  0.028135  0.442467  1
  O  O53  1  0.752899  0.017636  0.450844  1
  O  O54  1  0.254576  0.017976  0.417273  1
  O  O55  1  0.921333  0.253271  0.409562  1
  O  O56  1  0.421287  0.253661  0.417054  1
  O  O57  1  0.828399  0.179130  0.291877  1
  O  O58  1  0.329123  0.180040  0.463326  1
  O  O59  1  0.399642  0.329382  0.463258  1
  O  O60  1  0.932832  0.302261  0.351624  1
  O  O61  1  0.433053  0.302721  0.286301  1
  O  O62  1  0.900617  0.331195  0.387095  1
  O  O63  1  0.090541  0.529430  0.481741  1
  O  O64  1  0.873301  0.408860  0.430010  1
  O  O65  1  0.590628  0.529233  0.321198  1
  O  O66  1  0.376146  0.408860  0.442655  1
  O  O67  1  0.027154  0.377164  0.443089  1
  O  O68  1  0.528229  0.376388  0.482375  1
  O  O69  1  0.018248  0.421100  0.417162  1
  O  O70  1  0.517531  0.421534  0.308163  1
  O  O71  1  0.244749  0.516816  0.307606  1
  O  O72  1  0.746943  0.517063  0.342152  1
  O  O73  1  0.179815  0.399730  0.463476  1
  O  O74  1  0.681179  0.402446  0.323048  1
  O  O75  1  0.303014  0.347469  0.286324  1
  O  O76  1  0.804422  0.347261  0.315668  1
  O  O77  1  0.850112  0.435578  0.372170  1
  O  O78  1  0.347529  0.432558  0.286191  1
  O  O79  1  0.972704  0.877073  0.470515  1
  O  O80  1  0.471950  0.875254  0.430449  1
  O  O81  1  0.125779  0.909898  0.282422  1
  O  O82  1  0.623160  0.908661  0.269722  1
  O  O83  1  0.078447  0.754150  0.450743  1
  O  O84  1  0.578296  0.753655  0.443204  1
  O  O85  1  0.982012  0.921468  0.300808  1
  O  O86  1  0.482966  0.921981  0.409698  1
  O  O87  1  0.098596  0.830477  0.291852  1
  O  O88  1  0.600057  0.832058  0.430075  1
  O  O89  1  0.820263  0.901124  0.459775  1
  O  O90  1  0.167865  0.679739  0.321598  1
  O  O91  1  0.320884  0.899754  0.386253  1
  O  O92  1  0.669123  0.679183  0.364556  1
  O  O93  1  0.152035  0.932655  0.351833  1
  O  O94  1  0.651678  0.936013  0.437048  1
  O  O95  1  0.695935  0.848168  0.399733  1
  O  O96  1  0.063912  0.802992  0.314735  1
  O  O97  1  0.197033  0.848369  0.370896  1
  O  O98  1  0.567597  0.804050  0.380750  1
  O  O99  1  0.874990  0.092270  0.470233  1
  O  O100  1  0.375850  0.093567  0.482389  1
  O  O101  1  0.026963  0.124230  0.281015  1
  O  O102  1  0.528243  0.124528  0.321081  1
  O  O103  1  0.019013  0.076049  0.450068  1
  O  O104  1  0.517953  0.078801  0.342341  1
  O  O105  1  0.921178  0.245022  0.300464  1
  O  O106  1  0.421749  0.246229  0.308243  1
  O  O107  1  0.179582  0.099056  0.291816  1
  O  O108  1  0.831443  0.318998  0.429219  1
  O  O109  1  0.680524  0.098837  0.365268  1
  O  O110  1  0.331042  0.320630  0.386834  1
  O  O111  1  0.901657  0.167747  0.459350  1
  O  O112  1  0.400964  0.169635  0.322292  1
  O  O113  1  0.302754  0.151708  0.351959  1
  O  O114  1  0.934386  0.194734  0.435915  1
  O  O115  1  0.803292  0.150512  0.380262  1
  O  O116  1  0.434626  0.196430  0.371552  1
  O  O117  1  0.849282  0.064829  0.399436  1
  O  O118  1  0.348850  0.065372  0.315270  1
  O  O119  1  0.970885  0.626053  0.309095  1
  O  O120  1  0.473186  0.623603  0.269676  1
  O  O121  1  0.907217  0.472607  0.269036  1
  O  O122  1  0.122882  0.592388  0.320500  1
  O  O123  1  0.409738  0.471311  0.430415  1
  O  O124  1  0.624715  0.591670  0.309087  1
  O  O125  1  0.753411  0.481669  0.443064  1
  O  O126  1  0.253644  0.483121  0.409526  1
  O  O127  1  0.982032  0.578627  0.334056  1
  O  O128  1  0.481952  0.579427  0.443254  1
  O  O129  1  0.819518  0.600015  0.287941  1
  O  O130  1  0.320227  0.599678  0.429815  1
  O  O131  1  0.151482  0.568008  0.380477  1
  O  O132  1  0.651340  0.567745  0.464824  1
  O  O133  1  0.696256  0.651658  0.464879  1
  O  O134  1  0.196631  0.651165  0.436620  1
  O  O135  1  0.091680  0.972260  0.470141  1
  O  O136  1  0.591208  0.971710  0.309238  1
  O  O137  1  0.078068  0.747605  0.342073  1
  O  O138  1  0.578690  0.746252  0.334444  1
  O  O139  1  0.246652  0.982825  0.300977  1
  O  O140  1  0.747125  0.981483  0.334295  1
  O  O141  1  0.100041  0.671615  0.365111  1
  O  O142  1  0.598718  0.670348  0.287666  1
  O  O143  1  0.169902  0.819854  0.459815  1
  O  O144  1  0.668184  0.820713  0.287638  1
  O  O145  1  0.067170  0.696333  0.399512  1
  O  O146  1  0.563813  0.697804  0.464339  1
  O  O147  1  0.907502  0.028177  0.496233  1
  O  O148  1  0.828399  0.179130  0.506410  1
  O  O149  1  0.932832  0.302261  0.566157  1
  O  O150  1  0.433053  0.302721  0.500834  1
  O  O151  1  0.590628  0.529233  0.535732  1
  O  O152  1  0.517531  0.421534  0.522696  1
  O  O153  1  0.244749  0.516816  0.522140  1
  O  O154  1  0.746943  0.517063  0.556685  1
  O  O155  1  0.681179  0.402446  0.537581  1
  O  O156  1  0.303014  0.347469  0.500858  1
  O  O157  1  0.804422  0.347261  0.530201  1
  O  O158  1  0.850112  0.435578  0.586704  1
  O  O159  1  0.347529  0.432558  0.500725  1
  O  O160  1  0.125779  0.909898  0.496955  1
  O  O161  1  0.623160  0.908661  0.484256  1
  O  O162  1  0.982012  0.921468  0.515342  1
  O  O163  1  0.098596  0.830477  0.506386  1
  O  O164  1  0.167865  0.679739  0.536132  1
  O  O165  1  0.669123  0.679183  0.579090  1
  O  O166  1  0.152035  0.932655  0.566366  1
  O  O167  1  0.063912  0.802992  0.529268  1
  O  O168  1  0.197033  0.848369  0.585430  1
  O  O169  1  0.026963  0.124230  0.495548  1
  O  O170  1  0.528243  0.124528  0.535614  1
  O  O171  1  0.517953  0.078801  0.556875  1
  O  O172  1  0.921178  0.245022  0.514997  1
  O  O173  1  0.421749  0.246229  0.522777  1
  O  O174  1  0.179582  0.099056  0.506349  1
  O  O175  1  0.680524  0.098837  0.579802  1
  O  O176  1  0.400964  0.169635  0.536826  1
  O  O177  1  0.302754  0.151708  0.566493  1
  O  O178  1  0.803292  0.150512  0.594796  1
  O  O179  1  0.434626  0.196430  0.586086  1
  O  O180  1  0.849282  0.064829  0.613969  1
  O  O181  1  0.348850  0.065372  0.529804  1
  O  O182  1  0.970885  0.626053  0.523628  1
  O  O183  1  0.473186  0.623603  0.484209  1
  O  O184  1  0.907217  0.472607  0.483570  1
  O  O185  1  0.122882  0.592388  0.535034  1
  O  O186  1  0.624715  0.591670  0.523621  1
  O  O187  1  0.982032  0.578627  0.548590  1
  O  O188  1  0.819518  0.600015  0.502475  1
  O  O189  1  0.591208  0.971710  0.523772  1
  O  O190  1  0.078068  0.747605  0.556607  1
  O  O191  1  0.578690  0.746252  0.548978  1
  O  O192  1  0.246652  0.982825  0.515511  1
  O  O193  1  0.747125  0.981483  0.548828  1
  O  O194  1  0.100041  0.671615  0.579644  1
  O  O195  1  0.598718  0.670348  0.502199  1
  O  O196  1  0.668184  0.820713  0.502172  1
  Si  Si197  1  0.836075  0.081200  0.265706  1
  Si  Si198  1  0.336877  0.082247  0.236363  1
  Si  Si199  1  0.082015  0.432879  0.236831  1
  Si  Si200  1  0.930262  0.337573  0.201836  1
  Si  Si201  1  0.431600  0.337351  0.236244  1
  Si  Si202  1  0.069462  0.838279  0.265661  1
  Si  Si203  1  0.568283  0.837052  0.231090  1
  Si  Si204  1  0.418971  0.931418  0.201261  1
  Si  Si205  1  0.573917  0.875016  0.199297  1
  Si  Si206  1  0.727528  0.927802  0.222026  1
  Si  Si207  1  0.231316  0.927862  0.168033  1
  Si  Si208  1  0.079080  0.068299  0.264769  1
  Si  Si209  1  0.874143  0.227377  0.198530  1
  Si  Si210  1  0.930113  0.124217  0.222005  1
  Si  Si211  1  0.836368  0.418400  0.230227  1
  Si  Si212  1  0.337938  0.421365  0.201760  1
  Si  Si213  1  0.419793  0.567607  0.230901  1
  Si  Si214  1  0.571627  0.628299  0.252945  1
  Si  Si215  1  0.730050  0.571916  0.253206  1
  Si  Si216  1  0.227521  0.573774  0.198947  1
  Si  Si217  1  0.127076  0.727275  0.221726  1
  Si  Si218  1  0.624848  0.728235  0.252701  1
  Si  Si219  1  0.373298  0.269504  0.283508  1
  Si  Si220  1  0.836075  0.081200  0.480239  1
  Si  Si221  1  0.336877  0.082247  0.450896  1
  Si  Si222  1  0.873169  0.268149  0.314480  1
  Si  Si223  1  0.082015  0.432879  0.451365  1
  Si  Si224  1  0.581375  0.433391  0.306677  1
  Si  Si225  1  0.161506  0.579639  0.305272  1
  Si  Si226  1  0.930262  0.337573  0.416370  1
  Si  Si227  1  0.662577  0.578811  0.335287  1
  Si  Si228  1  0.431600  0.337351  0.450777  1
  Si  Si229  1  0.269684  0.427087  0.283414  1
  Si  Si230  1  0.773897  0.427904  0.339232  1
  Si  Si231  1  0.927371  0.374023  0.382206  1
  Si  Si232  1  0.427413  0.372838  0.283355  1
  Si  Si233  1  0.069462  0.838279  0.480194  1
  Si  Si234  1  0.568283  0.837052  0.445624  1
  Si  Si235  1  0.919763  0.931804  0.271805  1
  Si  Si236  1  0.418971  0.931418  0.415795  1
  Si  Si237  1  0.071629  0.872788  0.315056  1
  Si  Si238  1  0.573917  0.875016  0.413830  1
  Si  Si239  1  0.727528  0.927802  0.436559  1
  Si  Si240  1  0.125054  0.772268  0.337937  1
  Si  Si241  1  0.231316  0.927862  0.382566  1
  Si  Si242  1  0.626350  0.770630  0.369121  1
  Si  Si243  1  0.079080  0.068299  0.479303  1
  Si  Si244  1  0.582332  0.067803  0.335824  1
  Si  Si245  1  0.931013  0.162642  0.271414  1
  Si  Si246  1  0.432077  0.163974  0.306370  1
  Si  Si247  1  0.272984  0.073538  0.315742  1
  Si  Si248  1  0.874143  0.227377  0.413064  1
  Si  Si249  1  0.769363  0.069938  0.368474  1
  Si  Si250  1  0.373183  0.227003  0.381551  1
  Si  Si251  1  0.930113  0.124217  0.436539  1
  Si  Si252  1  0.426656  0.126474  0.338582  1
  Si  Si253  1  0.836368  0.418400  0.444760  1
  Si  Si254  1  0.067754  0.664450  0.335623  1
  Si  Si255  1  0.337938  0.421365  0.416293  1
  Si  Si256  1  0.569134  0.663181  0.301214  1
  Si  Si257  1  0.917638  0.568837  0.300493  1
  Si  Si258  1  0.419793  0.567607  0.445435  1
  Si  Si259  1  0.071966  0.627317  0.368796  1
  Si  Si260  1  0.571627  0.628299  0.467479  1
  Si  Si261  1  0.730050  0.571916  0.467739  1
  Si  Si262  1  0.227521  0.573774  0.413481  1
  Si  Si263  1  0.162993  0.919611  0.271859  1
  Si  Si264  1  0.662887  0.922081  0.301953  1
  Si  Si265  1  0.127076  0.727275  0.436259  1
  Si  Si266  1  0.624848  0.728235  0.467235  1
  Si  Si267  1  0.373298  0.269504  0.498041  1
  Si  Si268  1  0.873169  0.268149  0.529013  1
  Si  Si269  1  0.581375  0.433391  0.521211  1
  Si  Si270  1  0.161506  0.579639  0.519805  1
  Si  Si271  1  0.662577  0.578811  0.549821  1
  Si  Si272  1  0.269684  0.427087  0.497948  1
  Si  Si273  1  0.773897  0.427904  0.553766  1
  Si  Si274  1  0.427413  0.372838  0.497888  1
  Si  Si275  1  0.919763  0.931804  0.486339  1
  Si  Si276  1  0.071629  0.872788  0.529589  1
  Si  Si277  1  0.125054  0.772268  0.552470  1
  Si  Si278  1  0.582332  0.067803  0.550357  1
  Si  Si279  1  0.931013  0.162642  0.485948  1
  Si  Si280  1  0.432077  0.163974  0.520904  1
  Si  Si281  1  0.272984  0.073538  0.530276  1
  Si  Si282  1  0.769363  0.069938  0.583008  1
  Si  Si283  1  0.426656  0.126474  0.553116  1
  Si  Si284  1  0.067754  0.664450  0.550157  1
  Si  Si285  1  0.569134  0.663181  0.515748  1
  Si  Si286  1  0.917638  0.568837  0.515027  1
  Si  Si287  1  0.162993  0.919611  0.486392  1
  Si  Si288  1  0.662887  0.922081  0.516487  1
  H  H289  1  0.421287  0.253661  0.189588  1
  H  H290  1  0.900617  0.331195  0.159628  1
  H  H291  1  0.018248  0.421100  0.189695  1
  H  H292  1  0.152035  0.932655  0.124366  1
  H  H293  1  0.695935  0.848168  0.172266  1
  H  H294  1  0.197033  0.848369  0.143429  1
  H  H295  1  0.567597  0.804050  0.153284  1
  H  H296  1  0.331042  0.320630  0.159367  1
  H  H297  1  0.803292  0.150512  0.152795  1
  H  H298  1  0.849282  0.064829  0.171969  1
  H  H299  1  0.151482  0.568008  0.153010  1
  H  H300  1  0.067170  0.696333  0.172045  1
  H  H301  1  0.932832  0.302261  0.579090  1
  H  H302  1  0.850112  0.435578  0.599637  1
  H  H303  1  0.669123  0.679183  0.592023  1
  H  H304  1  0.152035  0.932655  0.579299  1
  H  H305  1  0.197033  0.848369  0.598363  1
  H  H306  1  0.302754  0.151708  0.579426  1
  H  H307  1  0.803292  0.150512  0.607729  1
  H  H308  1  0.434626  0.196430  0.599019  1
  H  H309  1  0.849282  0.064829  0.626902  1
  H  H310  1  0.982032  0.578627  0.561523  1
  H  H311  1  0.578690  0.746252  0.561911  1
  H  H312  1  0.100041  0.671615  0.592578  1
