# generated using pymatgen
data_Si30H2O61
_symmetry_space_group_name_H-M   'P 1'
_cell_length_a   8.11619714
_cell_length_b   9.02515124
_cell_length_c   64.57323461
_cell_angle_alpha   90.00000000
_cell_angle_beta   90.00000000
_cell_angle_gamma   90.00000000
_symmetry_Int_Tables_number   1
_chemical_formula_structural   Si30H2O61
_chemical_formula_sum   'Si60 H4 O122'
_cell_volume   4729.98340969
_cell_formula_units_Z   2
loop_
 _symmetry_equiv_pos_site_id
 _symmetry_equiv_pos_as_xyz
  1  'x, y, z'
loop_
 _atom_site_type_symbol
 _atom_site_label
 _atom_site_symmetry_multiplicity
 _atom_site_fract_x
 _atom_site_fract_y
 _atom_site_fract_z
 _atom_site_occupancy
  O  O1  1  0.250089  0.675098  0.157607  1
  O  O2  1  0.750077  0.824642  0.157609  1
  O  O3  1  0.037746  0.489099  0.167116  1
  O  O4  1  0.962410  0.010655  0.167117  1
  O  O5  1  0.462422  0.489084  0.148102  1
  O  O6  1  0.962375  0.989062  0.280585  1
  O  O7  1  0.037750  0.510618  0.280582  1
  O  O8  1  0.537730  0.010636  0.148101  1
  O  O9  1  0.258415  0.592033  0.194299  1
  O  O10  1  0.741747  0.907709  0.194301  1
  O  O11  1  0.241749  0.592011  0.120917  1
  O  O12  1  0.741738  0.092023  0.253400  1
  O  O13  1  0.258407  0.407674  0.253399  1
  O  O14  1  0.758424  0.907713  0.120919  1
  O  O15  1  0.000000  0.749878  0.180897  1
  O  O16  1  0.500090  0.749858  0.134318  1
  O  O17  1  -0.000000  0.249835  0.266805  1
  O  O18  1  0.544130  0.503995  0.185736  1
  O  O19  1  0.456031  0.995731  0.185736  1
  O  O20  1  0.956022  0.504007  0.129484  1
  O  O21  1  0.456021  0.004010  0.261964  1
  O  O22  1  0.544111  0.495736  0.261963  1
  O  O23  1  0.044147  0.995734  0.129485  1
  O  O24  1  0.750084  0.404012  0.157611  1
  O  O25  1  0.250077  0.095737  0.157613  1
  O  O26  1  0.500095  0.249861  0.168879  1
  O  O27  1  -0.000000  0.249874  0.146340  1
  O  O28  1  0.500079  0.749875  0.278820  1
  O  O29  1  -0.000000  0.749869  0.109876  1
  O  O30  1  0.500089  0.249868  0.242354  1
  O  O31  1  0.500084  0.749862  0.205344  1
  O  O32  1  0.952999  -0.000000  0.091371  1
  O  O33  1  0.452956  0.499867  0.223849  1
  O  O34  1  0.547178  -0.000000  0.223850  1
  O  O35  1  0.047153  0.499866  0.091369  1
  O  O36  1  0.750056  0.175083  0.290092  1
  O  O37  1  0.250089  0.675098  0.422566  1
  O  O38  1  0.750077  0.824642  0.422568  1
  O  O39  1  0.250099  0.324628  0.290092  1
  O  O40  1  0.537698  0.989095  0.299600  1
  O  O41  1  0.037746  0.489099  0.432075  1
  O  O42  1  0.962410  0.010655  0.432076  1
  O  O43  1  0.462429  0.510649  0.299598  1
  O  O44  1  0.462422  0.489084  0.413060  1
  O  O45  1  0.962375  0.989062  0.545543  1
  O  O46  1  0.037750  0.510618  0.545541  1
  O  O47  1  0.537730  0.010636  0.413060  1
  O  O48  1  0.758412  0.092004  0.326782  1
  O  O49  1  0.258415  0.592033  0.459258  1
  O  O50  1  0.741747  0.907709  0.459259  1
  O  O51  1  0.241738  0.407727  0.326781  1
  O  O52  1  0.241749  0.592011  0.385876  1
  O  O53  1  0.741738  0.092023  0.518359  1
  O  O54  1  0.258407  0.407674  0.518358  1
  O  O55  1  0.758424  0.907713  0.385878  1
  O  O56  1  0.500084  0.249876  0.313384  1
  O  O57  1  -0.000000  0.749878  0.445856  1
  O  O58  1  0.500090  0.749858  0.399277  1
  O  O59  1  -0.000000  0.249835  0.531764  1
  O  O60  1  0.044137  0.003980  0.318215  1
  O  O61  1  0.544130  0.503995  0.450695  1
  O  O62  1  0.456031  0.995731  0.450695  1
  O  O63  1  0.956001  0.495709  0.318214  1
  O  O64  1  0.956022  0.504007  0.394442  1
  O  O65  1  0.456021  0.004010  0.526923  1
  O  O66  1  0.544111  0.495736  0.526922  1
  O  O67  1  0.044147  0.995734  0.394444  1
  O  O68  1  0.250052  0.903995  0.290083  1
  O  O69  1  0.750084  0.404012  0.422569  1
  O  O70  1  0.250077  0.095737  0.422572  1
  O  O71  1  0.750084  0.595721  0.290083  1
  O  O72  1  0.000000  0.749839  0.301360  1
  O  O73  1  0.500095  0.249861  0.433838  1
  O  O74  1  0.000000  0.249874  0.411298  1
  O  O75  1  0.500079  0.749875  0.543779  1
  O  O76  1  -0.000000  0.749869  0.374834  1
  O  O77  1  0.500089  0.249868  0.507312  1
  O  O78  1  -0.000000  0.249855  0.337822  1
  O  O79  1  0.500084  0.749862  0.470302  1
  O  O80  1  0.952999  0.000000  0.356330  1
  O  O81  1  0.452956  0.499867  0.488808  1
  O  O82  1  0.547178  -0.000000  0.488809  1
  O  O83  1  0.047153  0.499866  0.356328  1
  O  O84  1  0.750056  0.175083  0.555051  1
  O  O85  1  0.250089  0.675098  0.687525  1
  O  O86  1  0.750077  0.824642  0.687527  1
  O  O87  1  0.250099  0.324628  0.555050  1
  O  O88  1  0.537698  0.989095  0.564559  1
  O  O89  1  0.037746  0.489099  0.697034  1
  O  O90  1  0.962410  0.010655  0.697035  1
  O  O91  1  0.462429  0.510649  0.564556  1
  O  O92  1  0.462422  0.489084  0.678019  1
  O  O93  1  0.537730  0.010636  0.678019  1
  O  O94  1  0.758412  0.092004  0.591740  1
  O  O95  1  0.258415  0.592033  0.724217  1
  O  O96  1  0.741747  0.907709  0.724218  1
  O  O97  1  0.241738  0.407727  0.591739  1
  O  O98  1  0.241749  0.592011  0.650835  1
  O  O99  1  0.758424  0.907713  0.650837  1
  O  O100  1  0.500084  0.249876  0.578342  1
  O  O101  1  -0.000000  0.749878  0.710815  1
  O  O102  1  0.500090  0.749858  0.664236  1
  O  O103  1  0.044137  0.003980  0.583174  1
  O  O104  1  0.544130  0.503995  0.715653  1
  O  O105  1  0.456031  0.995731  0.715653  1
  O  O106  1  0.956001  0.495709  0.583172  1
  O  O107  1  0.956022  0.504007  0.659401  1
  O  O108  1  0.044147  0.995734  0.659403  1
  O  O109  1  0.250052  0.903995  0.555042  1
  O  O110  1  0.750084  0.404012  0.687528  1
  O  O111  1  0.250077  0.095737  0.687530  1
  O  O112  1  0.750084  0.595721  0.555042  1
  O  O113  1  -0.000000  0.749839  0.566319  1
  O  O114  1  0.500095  0.249861  0.698796  1
  O  O115  1  0.000000  0.249874  0.676257  1
  O  O116  1  -0.000000  0.749869  0.639793  1
  O  O117  1  -0.000000  0.249855  0.602781  1
  O  O118  1  0.500084  0.749862  0.735261  1
  O  O119  1  0.952999  -0.000000  0.621289  1
  O  O120  1  0.452956  0.499867  0.753767  1
  O  O121  1  0.547178  -0.000000  0.753768  1
  O  O122  1  0.047153  0.499866  0.621287  1
  Si  Si123  1  0.133186  0.627204  0.176145  1
  Si  Si124  1  0.866978  0.872546  0.176146  1
  Si  Si125  1  0.366987  0.627186  0.139071  1
  Si  Si126  1  0.866961  0.127179  0.271555  1
  Si  Si127  1  0.133188  0.372508  0.271554  1
  Si  Si128  1  0.633180  0.872539  0.139072  1
  Si  Si129  1  0.568096  0.409875  0.165335  1
  Si  Si130  1  0.432070  0.089853  0.165335  1
  Si  Si131  1  0.932067  0.409883  0.149884  1
  Si  Si132  1  0.432052  0.909882  0.282364  1
  Si  Si133  1  0.568085  0.589859  0.282363  1
  Si  Si134  1  0.068098  0.089865  0.149886  1
  Si  Si135  1  0.940675  0.913877  0.112222  1
  Si  Si136  1  0.440648  0.413869  0.244700  1
  Si  Si137  1  0.559495  0.085857  0.244701  1
  Si  Si138  1  0.059498  0.585857  0.112220  1
  Si  Si139  1  0.559500  0.913873  0.202998  1
  Si  Si140  1  0.440657  0.585857  0.202998  1
  Si  Si141  1  0.633162  0.127185  0.308630  1
  Si  Si142  1  0.133186  0.627204  0.441104  1
  Si  Si143  1  0.866978  0.872546  0.441105  1
  Si  Si144  1  0.366989  0.372550  0.308629  1
  Si  Si145  1  0.366987  0.627186  0.404030  1
  Si  Si146  1  0.866961  0.127179  0.536514  1
  Si  Si147  1  0.133188  0.372508  0.536513  1
  Si  Si148  1  0.633180  0.872539  0.404030  1
  Si  Si149  1  0.068081  0.909854  0.297814  1
  Si  Si150  1  0.568096  0.409875  0.430294  1
  Si  Si151  1  0.432070  0.089853  0.430294  1
  Si  Si152  1  0.932058  0.589834  0.297813  1
  Si  Si153  1  0.932067  0.409883  0.414843  1
  Si  Si154  1  0.432052  0.909882  0.547323  1
  Si  Si155  1  0.568085  0.589859  0.547322  1
  Si  Si156  1  0.068098  0.089865  0.414844  1
  Si  Si157  1  0.940675  0.913877  0.377181  1
  Si  Si158  1  0.440648  0.413869  0.509659  1
  Si  Si159  1  0.559495  0.085857  0.509660  1
  Si  Si160  1  0.059498  0.585857  0.377179  1
  Si  Si161  1  0.059485  0.413869  0.335477  1
  Si  Si162  1  0.559500  0.913873  0.467957  1
  Si  Si163  1  0.440657  0.585857  0.467957  1
  Si  Si164  1  0.940666  0.085846  0.335478  1
  Si  Si165  1  0.633162  0.127185  0.573589  1
  Si  Si166  1  0.133186  0.627204  0.706063  1
  Si  Si167  1  0.866978  0.872546  0.706064  1
  Si  Si168  1  0.366989  0.372550  0.573588  1
  Si  Si169  1  0.366987  0.627186  0.668988  1
  Si  Si170  1  0.633180  0.872539  0.668989  1
  Si  Si171  1  0.068081  0.909854  0.562773  1
  Si  Si172  1  0.568096  0.409875  0.695252  1
  Si  Si173  1  0.432070  0.089853  0.695252  1
  Si  Si174  1  0.932058  0.589834  0.562771  1
  Si  Si175  1  0.932067  0.409883  0.679802  1
  Si  Si176  1  0.068098  0.089865  0.679803  1
  Si  Si177  1  0.940675  0.913877  0.642140  1
  Si  Si178  1  0.059498  0.585857  0.642138  1
  Si  Si179  1  0.059485  0.413869  0.600436  1
  Si  Si180  1  0.559500  0.913873  0.732916  1
  Si  Si181  1  0.440657  0.585857  0.732915  1
  Si  Si182  1  0.940666  0.085846  0.600437  1
  H  H183  1  0.952999  -0.000000  0.077434  1
  H  H184  1  0.047153  0.499866  0.077431  1
  H  H185  1  0.452956  0.499867  0.767705  1
  H  H186  1  0.547178  0.000000  0.767706  1
