# generated using pymatgen
data_Si25H6O53
_symmetry_space_group_name_H-M   'P 1'
_cell_length_a   21.11999289
_cell_length_b   21.12704298
_cell_length_c   72.05860790
_cell_angle_alpha   134.96125367
_cell_angle_beta   134.98035700
_cell_angle_gamma   60.03370721
_symmetry_Int_Tables_number   1
_chemical_formula_structural   Si25H6O53
_chemical_formula_sum   'Si100 H24 O212'
_cell_volume   16092.7657437
_cell_formula_units_Z   4
loop_
 _symmetry_equiv_pos_site_id
 _symmetry_equiv_pos_as_xyz
  1  'x, y, z'
loop_
 _atom_site_type_symbol
 _atom_site_label
 _atom_site_symmetry_multiplicity
 _atom_site_fract_x
 _atom_site_fract_y
 _atom_site_fract_z
 _atom_site_occupancy
  O  O1  1  0.407687  0.028135  0.237285  1
  O  O2  1  0.752899  0.017636  0.245375  1
  O  O3  1  0.254576  0.017976  0.212955  1
  O  O4  1  0.921333  0.253271  0.205509  1
  O  O5  1  0.421287  0.253661  0.212744  1
  O  O6  1  0.329123  0.180040  0.257429  1
  O  O7  1  0.399642  0.329382  0.257363  1
  O  O8  1  0.932832  0.302261  0.149557  1
  O  O9  1  0.900617  0.331195  0.183812  1
  O  O10  1  0.090541  0.529430  0.275213  1
  O  O11  1  0.873301  0.408860  0.225255  1
  O  O12  1  0.376146  0.408860  0.237467  1
  O  O13  1  0.027154  0.377164  0.237886  1
  O  O14  1  0.528229  0.376388  0.275825  1
  O  O15  1  0.018248  0.421100  0.212848  1
  O  O16  1  0.179815  0.399730  0.257574  1
  O  O17  1  0.850112  0.435578  0.169399  1
  O  O18  1  0.972704  0.877073  0.264372  1
  O  O19  1  0.471950  0.875254  0.225680  1
  O  O20  1  0.078447  0.754150  0.245278  1
  O  O21  1  0.578296  0.753655  0.237998  1
  O  O22  1  0.482966  0.921981  0.205640  1
  O  O23  1  0.600057  0.832058  0.225319  1
  O  O24  1  0.820263  0.901124  0.254000  1
  O  O25  1  0.320884  0.899754  0.182999  1
  O  O26  1  0.669123  0.679183  0.162046  1
  O  O27  1  0.152035  0.932655  0.149759  1
  O  O28  1  0.651678  0.936013  0.232052  1
  O  O29  1  0.695935  0.848168  0.196016  1
  O  O30  1  0.197033  0.848369  0.168169  1
  O  O31  1  0.567597  0.804050  0.177685  1
  O  O32  1  0.874990  0.092270  0.264099  1
  O  O33  1  0.375850  0.093567  0.275839  1
  O  O34  1  0.019013  0.076049  0.244625  1
  O  O35  1  0.831443  0.318998  0.224492  1
  O  O36  1  0.331042  0.320630  0.183560  1
  O  O37  1  0.901657  0.167747  0.253590  1
  O  O38  1  0.302754  0.151708  0.149881  1
  O  O39  1  0.934386  0.194734  0.230958  1
  O  O40  1  0.803292  0.150512  0.177213  1
  O  O41  1  0.434626  0.196430  0.168802  1
  O  O42  1  0.849282  0.064829  0.195729  1
  O  O43  1  0.409738  0.471311  0.225647  1
  O  O44  1  0.753411  0.481669  0.237862  1
  O  O45  1  0.253644  0.483121  0.205474  1
  O  O46  1  0.982032  0.578627  0.132592  1
  O  O47  1  0.481952  0.579427  0.238045  1
  O  O48  1  0.320227  0.599678  0.225067  1
  O  O49  1  0.151482  0.568008  0.177421  1
  O  O50  1  0.651340  0.567745  0.258876  1
  O  O51  1  0.696256  0.651658  0.258929  1
  O  O52  1  0.196631  0.651165  0.231639  1
  O  O53  1  0.091680  0.972260  0.264010  1
  O  O54  1  0.578690  0.746252  0.132967  1
  O  O55  1  0.100041  0.671615  0.162581  1
  O  O56  1  0.169902  0.819854  0.254038  1
  O  O57  1  0.067170  0.696333  0.195803  1
  O  O58  1  0.563813  0.697804  0.258407  1
  O  O59  1  0.907502  0.028177  0.289208  1
  O  O60  1  0.407687  0.028135  0.444463  1
  O  O61  1  0.752899  0.017636  0.452553  1
  O  O62  1  0.254576  0.017976  0.420133  1
  O  O63  1  0.921333  0.253271  0.412687  1
  O  O64  1  0.421287  0.253661  0.419922  1
  O  O65  1  0.828399  0.179130  0.299036  1
  O  O66  1  0.329123  0.180040  0.464607  1
  O  O67  1  0.399642  0.329382  0.464541  1
  O  O68  1  0.932832  0.302261  0.356735  1
  O  O69  1  0.433053  0.302721  0.293652  1
  O  O70  1  0.900617  0.331195  0.390990  1
  O  O71  1  0.090541  0.529430  0.482391  1
  O  O72  1  0.873301  0.408860  0.432434  1
  O  O73  1  0.590628  0.529233  0.327352  1
  O  O74  1  0.376146  0.408860  0.444645  1
  O  O75  1  0.027154  0.377164  0.445064  1
  O  O76  1  0.528229  0.376388  0.483003  1
  O  O77  1  0.018248  0.421100  0.420026  1
  O  O78  1  0.517531  0.421534  0.314764  1
  O  O79  1  0.244749  0.516816  0.314227  1
  O  O80  1  0.746943  0.517063  0.347588  1
  O  O81  1  0.179815  0.399730  0.464753  1
  O  O82  1  0.681179  0.402446  0.329139  1
  O  O83  1  0.303014  0.347469  0.293674  1
  O  O84  1  0.804422  0.347261  0.322012  1
  O  O85  1  0.850112  0.435578  0.376577  1
  O  O86  1  0.347529  0.432558  0.293546  1
  O  O87  1  0.972704  0.877073  0.471550  1
  O  O88  1  0.471950  0.875254  0.432858  1
  O  O89  1  0.125779  0.909898  0.289906  1
  O  O90  1  0.623160  0.908661  0.277641  1
  O  O91  1  0.078447  0.754150  0.452456  1
  O  O92  1  0.578296  0.753655  0.445176  1
  O  O93  1  0.982012  0.921468  0.307662  1
  O  O94  1  0.482966  0.921981  0.412818  1
  O  O95  1  0.098596  0.830477  0.299013  1
  O  O96  1  0.600057  0.832058  0.432497  1
  O  O97  1  0.820263  0.901124  0.461178  1
  O  O98  1  0.167865  0.679739  0.327739  1
  O  O99  1  0.320884  0.899754  0.390177  1
  O  O100  1  0.669123  0.679183  0.369224  1
  O  O101  1  0.152035  0.932655  0.356937  1
  O  O102  1  0.651678  0.936013  0.439231  1
  O  O103  1  0.695935  0.848168  0.403195  1
  O  O104  1  0.063912  0.802992  0.321111  1
  O  O105  1  0.197033  0.848369  0.375347  1
  O  O106  1  0.567597  0.804050  0.384863  1
  O  O107  1  0.874990  0.092270  0.471277  1
  O  O108  1  0.375850  0.093567  0.483017  1
  O  O109  1  0.026963  0.124230  0.288547  1
  O  O110  1  0.528243  0.124528  0.327239  1
  O  O111  1  0.019013  0.076049  0.451804  1
  O  O112  1  0.517953  0.078801  0.347771  1
  O  O113  1  0.921178  0.245022  0.307329  1
  O  O114  1  0.421749  0.246229  0.314842  1
  O  O115  1  0.179582  0.099056  0.298977  1
  O  O116  1  0.831443  0.318998  0.431670  1
  O  O117  1  0.680524  0.098837  0.369911  1
  O  O118  1  0.331042  0.320630  0.390738  1
  O  O119  1  0.901657  0.167747  0.460768  1
  O  O120  1  0.400964  0.169635  0.328409  1
  O  O121  1  0.302754  0.151708  0.357059  1
  O  O122  1  0.934386  0.194734  0.438136  1
  O  O123  1  0.803292  0.150512  0.384391  1
  O  O124  1  0.434626  0.196430  0.375980  1
  O  O125  1  0.849282  0.064829  0.402908  1
  O  O126  1  0.348850  0.065372  0.321628  1
  O  O127  1  0.970885  0.626053  0.315664  1
  O  O128  1  0.473186  0.623603  0.277597  1
  O  O129  1  0.907217  0.472607  0.276979  1
  O  O130  1  0.122882  0.592388  0.326678  1
  O  O131  1  0.409738  0.471311  0.432825  1
  O  O132  1  0.624715  0.591670  0.315657  1
  O  O133  1  0.753411  0.481669  0.445040  1
  O  O134  1  0.253644  0.483121  0.412652  1
  O  O135  1  0.982032  0.578627  0.339770  1
  O  O136  1  0.481952  0.579427  0.445223  1
  O  O137  1  0.819518  0.600015  0.295236  1
  O  O138  1  0.320227  0.599678  0.432245  1
  O  O139  1  0.151482  0.568008  0.384599  1
  O  O140  1  0.651340  0.567745  0.466054  1
  O  O141  1  0.696256  0.651658  0.466107  1
  O  O142  1  0.196631  0.651165  0.438817  1
  O  O143  1  0.091680  0.972260  0.471188  1
  O  O144  1  0.591208  0.971710  0.315802  1
  O  O145  1  0.078068  0.747605  0.347512  1
  O  O146  1  0.578690  0.746252  0.340145  1
  O  O147  1  0.246652  0.982825  0.307825  1
  O  O148  1  0.747125  0.981483  0.340000  1
  O  O149  1  0.100041  0.671615  0.369760  1
  O  O150  1  0.598718  0.670348  0.294970  1
  O  O151  1  0.169902  0.819854  0.461216  1
  O  O152  1  0.668184  0.820713  0.294943  1
  O  O153  1  0.067170  0.696333  0.402981  1
  O  O154  1  0.563813  0.697804  0.465585  1
  O  O155  1  0.907502  0.028177  0.496386  1
  O  O156  1  0.421287  0.253661  0.627100  1
  O  O157  1  0.828399  0.179130  0.506215  1
  O  O158  1  0.932832  0.302261  0.563913  1
  O  O159  1  0.433053  0.302721  0.500830  1
  O  O160  1  0.900617  0.331195  0.598168  1
  O  O161  1  0.590628  0.529233  0.534531  1
  O  O162  1  0.018248  0.421100  0.627204  1
  O  O163  1  0.517531  0.421534  0.521942  1
  O  O164  1  0.244749  0.516816  0.521405  1
  O  O165  1  0.746943  0.517063  0.554766  1
  O  O166  1  0.681179  0.402446  0.536317  1
  O  O167  1  0.303014  0.347469  0.500853  1
  O  O168  1  0.804422  0.347261  0.529190  1
  O  O169  1  0.850112  0.435578  0.583755  1
  O  O170  1  0.347529  0.432558  0.500724  1
  O  O171  1  0.125779  0.909898  0.497084  1
  O  O172  1  0.623160  0.908661  0.484819  1
  O  O173  1  0.982012  0.921468  0.514840  1
  O  O174  1  0.098596  0.830477  0.506191  1
  O  O175  1  0.167865  0.679739  0.534917  1
  O  O176  1  0.669123  0.679183  0.576402  1
  O  O177  1  0.152035  0.932655  0.564115  1
  O  O178  1  0.695935  0.848168  0.610373  1
  O  O179  1  0.063912  0.802992  0.528289  1
  O  O180  1  0.197033  0.848369  0.582525  1
  O  O181  1  0.567597  0.804050  0.592041  1
  O  O182  1  0.026963  0.124230  0.495725  1
  O  O183  1  0.528243  0.124528  0.534417  1
  O  O184  1  0.517953  0.078801  0.554949  1
  O  O185  1  0.921178  0.245022  0.514507  1
  O  O186  1  0.421749  0.246229  0.522020  1
  O  O187  1  0.179582  0.099056  0.506155  1
  O  O188  1  0.680524  0.098837  0.577090  1
  O  O189  1  0.331042  0.320630  0.597916  1
  O  O190  1  0.400964  0.169635  0.535587  1
  O  O191  1  0.302754  0.151708  0.564237  1
  O  O192  1  0.803292  0.150512  0.591569  1
  O  O193  1  0.434626  0.196430  0.583158  1
  O  O194  1  0.849282  0.064829  0.610086  1
  O  O195  1  0.348850  0.065372  0.528806  1
  O  O196  1  0.970885  0.626053  0.522842  1
  O  O197  1  0.473186  0.623603  0.484775  1
  O  O198  1  0.907217  0.472607  0.484157  1
  O  O199  1  0.122882  0.592388  0.533857  1
  O  O200  1  0.624715  0.591670  0.522835  1
  O  O201  1  0.982032  0.578627  0.546948  1
  O  O202  1  0.819518  0.600015  0.502414  1
  O  O203  1  0.151482  0.568008  0.591777  1
  O  O204  1  0.591208  0.971710  0.522981  1
  O  O205  1  0.078068  0.747605  0.554690  1
  O  O206  1  0.578690  0.746252  0.547323  1
  O  O207  1  0.246652  0.982825  0.515003  1
  O  O208  1  0.747125  0.981483  0.547178  1
  O  O209  1  0.100041  0.671615  0.576938  1
  O  O210  1  0.598718  0.670348  0.502148  1
  O  O211  1  0.668184  0.820713  0.502122  1
  O  O212  1  0.067170  0.696333  0.610159  1
  Si  Si213  1  0.836075  0.081200  0.273763  1
  Si  Si214  1  0.336877  0.082247  0.245426  1
  Si  Si215  1  0.082015  0.432879  0.245878  1
  Si  Si216  1  0.930262  0.337573  0.212083  1
  Si  Si217  1  0.431600  0.337351  0.245311  1
  Si  Si218  1  0.927371  0.374023  0.179090  1
  Si  Si219  1  0.069462  0.838279  0.273719  1
  Si  Si220  1  0.568283  0.837052  0.240334  1
  Si  Si221  1  0.418971  0.931418  0.211527  1
  Si  Si222  1  0.573917  0.875016  0.209631  1
  Si  Si223  1  0.727528  0.927802  0.231580  1
  Si  Si224  1  0.231316  0.927862  0.179439  1
  Si  Si225  1  0.626350  0.770630  0.166454  1
  Si  Si226  1  0.079080  0.068299  0.272858  1
  Si  Si227  1  0.874143  0.227377  0.208890  1
  Si  Si228  1  0.373183  0.227003  0.178458  1
  Si  Si229  1  0.930113  0.124217  0.231560  1
  Si  Si230  1  0.836368  0.418400  0.239500  1
  Si  Si231  1  0.337938  0.421365  0.212009  1
  Si  Si232  1  0.419793  0.567607  0.240151  1
  Si  Si233  1  0.071966  0.627317  0.166140  1
  Si  Si234  1  0.571627  0.628299  0.261440  1
  Si  Si235  1  0.730050  0.571916  0.261691  1
  Si  Si236  1  0.227521  0.573774  0.209293  1
  Si  Si237  1  0.127076  0.727275  0.231290  1
  Si  Si238  1  0.624848  0.728235  0.261204  1
  Si  Si239  1  0.373298  0.269504  0.290954  1
  Si  Si240  1  0.836075  0.081200  0.480941  1
  Si  Si241  1  0.336877  0.082247  0.452604  1
  Si  Si242  1  0.873169  0.268149  0.320864  1
  Si  Si243  1  0.082015  0.432879  0.453056  1
  Si  Si244  1  0.581375  0.433391  0.313330  1
  Si  Si245  1  0.161506  0.579639  0.311972  1
  Si  Si246  1  0.930262  0.337573  0.419261  1
  Si  Si247  1  0.662577  0.578811  0.340959  1
  Si  Si248  1  0.431600  0.337351  0.452489  1
  Si  Si249  1  0.269684  0.427087  0.290864  1
  Si  Si250  1  0.773897  0.427904  0.344768  1
  Si  Si251  1  0.927371  0.374023  0.386269  1
  Si  Si252  1  0.427413  0.372838  0.290807  1
  Si  Si253  1  0.069462  0.838279  0.480897  1
  Si  Si254  1  0.568283  0.837052  0.447512  1
  Si  Si255  1  0.919763  0.931804  0.279653  1
  Si  Si256  1  0.418971  0.931418  0.418706  1
  Si  Si257  1  0.071629  0.872788  0.321421  1
  Si  Si258  1  0.573917  0.875016  0.416809  1
  Si  Si259  1  0.727528  0.927802  0.438759  1
  Si  Si260  1  0.125054  0.772268  0.343517  1
  Si  Si261  1  0.231316  0.927862  0.386617  1
  Si  Si262  1  0.626350  0.770630  0.373632  1
  Si  Si263  1  0.079080  0.068299  0.480036  1
  Si  Si264  1  0.582332  0.067803  0.341477  1
  Si  Si265  1  0.931013  0.162642  0.279275  1
  Si  Si266  1  0.432077  0.163974  0.313033  1
  Si  Si267  1  0.272984  0.073538  0.322084  1
  Si  Si268  1  0.874143  0.227377  0.416069  1
  Si  Si269  1  0.769363  0.069938  0.373008  1
  Si  Si270  1  0.373183  0.227003  0.385636  1
  Si  Si271  1  0.930113  0.124217  0.438738  1
  Si  Si272  1  0.426656  0.126474  0.344141  1
  Si  Si273  1  0.836368  0.418400  0.446678  1
  Si  Si274  1  0.067754  0.664450  0.341283  1
  Si  Si275  1  0.337938  0.421365  0.419187  1
  Si  Si276  1  0.569134  0.663181  0.308054  1
  Si  Si277  1  0.917638  0.568837  0.307358  1
  Si  Si278  1  0.419793  0.567607  0.447330  1
  Si  Si279  1  0.071966  0.627317  0.373318  1
  Si  Si280  1  0.571627  0.628299  0.468618  1
  Si  Si281  1  0.730050  0.571916  0.468869  1
  Si  Si282  1  0.227521  0.573774  0.416471  1
  Si  Si283  1  0.162993  0.919611  0.279705  1
  Si  Si284  1  0.662887  0.922081  0.308768  1
  Si  Si285  1  0.127076  0.727275  0.438469  1
  Si  Si286  1  0.624848  0.728235  0.468382  1
  Si  Si287  1  0.373298  0.269504  0.498133  1
  Si  Si288  1  0.873169  0.268149  0.528043  1
  Si  Si289  1  0.581375  0.433391  0.520508  1
  Si  Si290  1  0.161506  0.579639  0.519150  1
  Si  Si291  1  0.662577  0.578811  0.548137  1
  Si  Si292  1  0.269684  0.427087  0.498042  1
  Si  Si293  1  0.773897  0.427904  0.551947  1
  Si  Si294  1  0.927371  0.374023  0.593447  1
  Si  Si295  1  0.427413  0.372838  0.497985  1
  Si  Si296  1  0.919763  0.931804  0.486831  1
  Si  Si297  1  0.071629  0.872788  0.528599  1
  Si  Si298  1  0.125054  0.772268  0.550695  1
  Si  Si299  1  0.626350  0.770630  0.580810  1
  Si  Si300  1  0.582332  0.067803  0.548655  1
  Si  Si301  1  0.931013  0.162642  0.486453  1
  Si  Si302  1  0.432077  0.163974  0.520211  1
  Si  Si303  1  0.272984  0.073538  0.529262  1
  Si  Si304  1  0.769363  0.069938  0.580186  1
  Si  Si305  1  0.373183  0.227003  0.592815  1
  Si  Si306  1  0.426656  0.126474  0.551319  1
  Si  Si307  1  0.067754  0.664450  0.548461  1
  Si  Si308  1  0.569134  0.663181  0.515232  1
  Si  Si309  1  0.917638  0.568837  0.514536  1
  Si  Si310  1  0.071966  0.627317  0.580496  1
  Si  Si311  1  0.162993  0.919611  0.486883  1
  Si  Si312  1  0.662887  0.922081  0.515946  1
  H  H313  1  0.932832  0.302261  0.137067  1
  H  H314  1  0.850112  0.435578  0.156909  1
  H  H315  1  0.669123  0.679183  0.149556  1
  H  H316  1  0.152035  0.932655  0.137269  1
  H  H317  1  0.197033  0.848369  0.155679  1
  H  H318  1  0.302754  0.151708  0.137391  1
  H  H319  1  0.803292  0.150512  0.164723  1
  H  H320  1  0.434626  0.196430  0.156312  1
  H  H321  1  0.849282  0.064829  0.183240  1
  H  H322  1  0.982032  0.578627  0.120102  1
  H  H323  1  0.578690  0.746252  0.120477  1
  H  H324  1  0.100041  0.671615  0.150092  1
  H  H325  1  0.421287  0.253661  0.639590  1
  H  H326  1  0.900617  0.331195  0.610658  1
  H  H327  1  0.018248  0.421100  0.639694  1
  H  H328  1  0.152035  0.932655  0.576605  1
  H  H329  1  0.695935  0.848168  0.622863  1
  H  H330  1  0.197033  0.848369  0.595015  1
  H  H331  1  0.567597  0.804050  0.604531  1
  H  H332  1  0.331042  0.320630  0.610406  1
  H  H333  1  0.803292  0.150512  0.604059  1
  H  H334  1  0.849282  0.064829  0.622576  1
  H  H335  1  0.151482  0.568008  0.604267  1
  H  H336  1  0.067170  0.696333  0.622649  1
