# generated using pymatgen
data_Si37(HO19)4
_symmetry_space_group_name_H-M   'P 1'
_cell_length_a   19.80640796
_cell_length_b   19.84885801
_cell_length_c   54.43825564
_cell_angle_alpha   90.00000000
_cell_angle_beta   90.00000000
_cell_angle_gamma   90.00000000
_symmetry_Int_Tables_number   1
_chemical_formula_structural   Si37(HO19)4
_chemical_formula_sum   'Si148 H16 O304'
_cell_volume   21401.5607277
_cell_formula_units_Z   4
loop_
 _symmetry_equiv_pos_site_id
 _symmetry_equiv_pos_as_xyz
  1  'x, y, z'
loop_
 _atom_site_type_symbol
 _atom_site_label
 _atom_site_symmetry_multiplicity
 _atom_site_fract_x
 _atom_site_fract_y
 _atom_site_fract_z
 _atom_site_occupancy
  O  O1  1  0.488365  0.019083  0.181137  1
  O  O2  1  0.376780  0.012727  0.232124  1
  O  O3  1  0.017550  0.121031  0.403616  1
  O  O4  1  0.441599  0.131633  0.193490  1
  O  O5  1  0.410663  0.056350  0.274068  1
  O  O6  1  0.131733  0.089078  0.387082  1
  O  O7  1  0.366582  0.027576  0.187871  1
  O  O8  1  0.395373  0.134140  0.237110  1
  O  O9  1  0.028745  0.103311  0.359121  1
  O  O10  1  0.071415  0.288580  0.200174  1
  O  O11  1  0.428982  0.071286  0.148461  1
  O  O12  1  0.288023  0.071751  0.252771  1
  O  O13  1  0.073358  0.211676  0.381936  1
  O  O14  1  0.000000  0.177987  0.193557  1
  O  O15  1  0.410859  -0.000000  0.108380  1
  O  O16  1  0.079260  0.061477  0.249255  1
  O  O17  1  0.179063  0.090521  0.226561  1
  O  O18  1  0.002899  0.320810  0.375594  1
  O  O19  1  0.080227  0.181681  0.228223  1
  O  O20  1  0.003474  0.078563  0.159614  1
  O  O21  1  0.475856  0.233096  0.224246  1
  O  O22  1  0.234460  0.004667  0.400036  1
  O  O23  1  0.475962  0.266302  0.406239  1
  O  O24  1  0.493117  0.023376  0.311456  1
  O  O25  1  0.063301  0.079971  0.203781  1
  O  O26  1  0.123097  0.513833  0.231976  1
  O  O27  1  0.019473  0.379093  0.221350  1
  O  O28  1  0.482526  0.624425  0.403069  1
  O  O29  1  0.011373  0.520210  0.180893  1
  O  O30  1  0.486732  0.482665  0.363731  1
  O  O31  1  0.089108  0.557764  0.273872  1
  O  O32  1  0.134988  0.408874  0.205230  1
  O  O33  1  0.367243  0.590113  0.387658  1
  O  O34  1  0.058334  0.632953  0.193350  1
  O  O35  1  0.441855  0.368640  0.375611  1
  O  O36  1  0.104490  0.635411  0.236922  1
  O  O37  1  0.031635  0.399523  0.176936  1
  O  O38  1  0.468287  0.603481  0.359056  1
  O  O39  1  0.133124  0.528343  0.187782  1
  O  O40  1  0.364837  0.471134  0.370340  1
  O  O41  1  0.211998  0.572470  0.252636  1
  O  O42  1  0.070920  0.571439  0.148279  1
  O  O43  1  0.428069  0.428750  0.330741  1
  O  O44  1  0.320960  0.590498  0.226553  1
  O  O45  1  0.090464  0.499677  0.108810  1
  O  O46  1  0.408730  0.499569  0.291234  1
  O  O47  1  0.319144  0.496103  0.254807  1
  O  O48  1  0.004720  0.421025  0.342496  1
  O  O49  1  0.496081  0.579419  0.160041  1
  O  O50  1  0.265506  0.505486  0.399758  1
  O  O51  1  0.233235  0.496709  0.217487  1
  O  O52  1  0.003355  0.522728  0.311166  1
  O  O53  1  0.495089  0.477184  0.128732  1
  O  O54  1  0.420492  0.561416  0.249512  1
  O  O55  1  0.436492  0.579707  0.204136  1
  O  O56  1  0.065872  0.421971  0.385837  1
  O  O57  1  0.440131  0.436356  0.254782  1
  O  O58  1  0.014024  0.981733  0.363360  1
  O  O59  1  0.481931  0.877296  0.220563  1
  O  O60  1  0.057995  0.865587  0.374718  1
  O  O61  1  0.364985  0.908261  0.205285  1
  O  O62  1  0.135096  0.968640  0.371071  1
  O  O63  1  0.466993  0.898904  0.176554  1
  O  O64  1  0.426779  0.712009  0.381564  1
  O  O65  1  0.071882  0.928572  0.331131  1
  O  O66  1  0.428061  0.788809  0.199653  1
  O  O67  1  0.498379  0.821053  0.374781  1
  O  O68  1  0.180556  0.996503  0.255035  1
  O  O69  1  0.420639  0.681258  0.227560  1
  O  O70  1  0.492397  0.919875  0.341500  1
  O  O71  1  0.022996  0.767063  0.406444  1
  O  O72  1  0.266421  0.996167  0.217644  1
  O  O73  1  0.024907  0.735021  0.224047  1
  O  O74  1  0.003956  0.976145  0.128074  1
  O  O75  1  0.435189  0.920436  0.385416  1
  O  O76  1  0.060769  0.936754  0.254928  1
  O  O77  1  0.499435  0.679226  0.193462  1
  O  O78  1  0.089051  0.000000  0.291217  1
  O  O79  1  0.876143  0.013489  0.401983  1
  O  O80  1  0.516521  0.122695  0.231289  1
  O  O81  1  0.909933  0.055621  0.359906  1
  O  O82  1  0.631771  0.088345  0.246874  1
  O  O83  1  0.896637  0.133947  0.396785  1
  O  O84  1  0.530252  0.103045  0.275419  1
  O  O85  1  0.788133  0.071754  0.381518  1
  O  O86  1  0.573179  0.210522  0.252324  1
  O  O87  1  0.927801  0.072409  0.120437  1
  O  O88  1  0.679507  0.089458  0.407785  1
  O  O89  1  0.501763  0.319961  0.258387  1
  O  O90  1  0.910149  0.001235  0.160222  1
  O  O91  1  0.818626  0.003561  0.196744  1
  O  O92  1  0.578981  0.318248  0.224328  1
  O  O93  1  0.504618  0.079483  0.109129  1
  O  O94  1  0.579200  0.181291  0.406760  1
  O  O95  1  0.734129  0.004162  0.234410  1
  O  O96  1  0.977450  0.265493  0.227965  1
  O  O97  1  0.994516  0.023198  0.322722  1
  O  O98  1  0.578933  0.060487  0.385210  1
  O  O99  1  0.937918  0.064356  0.197023  1
  O  O100  1  0.987173  0.482421  0.270214  1
  O  O101  1  0.621466  0.513056  0.401656  1
  O  O102  1  0.876481  0.485814  0.219353  1
  O  O103  1  0.983123  0.623694  0.230944  1
  O  O104  1  0.942704  0.368546  0.258108  1
  O  O105  1  0.588664  0.558089  0.360155  1
  O  O106  1  0.910436  0.443372  0.177273  1
  O  O107  1  0.867729  0.589780  0.246279  1
  O  O108  1  0.865327  0.470786  0.263564  1
  O  O109  1  0.604039  0.634929  0.397467  1
  O  O110  1  0.898322  0.365097  0.214139  1
  O  O111  1  0.968480  0.603131  0.274822  1
  O  O112  1  0.928605  0.428248  0.303189  1
  O  O113  1  0.571664  0.572973  0.120616  1
  O  O114  1  0.712291  0.571072  0.381928  1
  O  O115  1  0.788519  0.427001  0.199113  1
  O  O116  1  0.908922  0.499262  0.342600  1
  O  O117  1  0.589058  0.501814  0.160546  1
  O  O118  1  0.821542  0.590044  0.407424  1
  O  O119  1  0.679283  0.409728  0.225263  1
  O  O120  1  0.819991  0.495569  0.379206  1
  O  O121  1  0.681063  0.503953  0.196843  1
  O  O122  1  0.995211  0.578809  0.108685  1
  O  O123  1  0.504003  0.420732  0.291468  1
  O  O124  1  0.765892  0.504545  0.234322  1
  O  O125  1  0.994921  0.476422  0.139771  1
  O  O126  1  0.503179  0.522879  0.322741  1
  O  O127  1  0.565532  0.420773  0.248269  1
  O  O128  1  0.940763  0.436532  0.379119  1
  O  O129  1  0.561859  0.565226  0.197411  1
  O  O130  1  0.920873  0.561424  0.384315  1
  O  O131  1  0.578680  0.439955  0.202796  1
  O  O132  1  0.623532  0.985033  0.219534  1
  O  O133  1  0.514447  0.982272  0.270723  1
  O  O134  1  0.589137  0.941876  0.177573  1
  O  O135  1  0.557176  0.867624  0.258227  1
  O  O136  1  0.603259  0.864195  0.214609  1
  O  O137  1  0.635488  0.968558  0.263589  1
  O  O138  1  0.711558  0.926564  0.199190  1
  O  O139  1  0.928754  0.711922  0.251772  1
  O  O140  1  0.570489  0.927926  0.302947  1
  O  O141  1  0.821149  0.909728  0.225298  1
  O  O142  1  0.000000  0.821395  0.258398  1
  O  O143  1  0.560146  0.936104  0.378541  1
  O  O144  1  0.587515  0.000000  0.343039  1
  O  O145  1  0.680663  0.995750  0.379165  1
  O  O146  1  0.920567  0.681292  0.406201  1
  O  O147  1  0.995727  0.920859  0.291737  1
  O  O148  1  0.921978  0.819446  0.224132  1
  O  O149  1  0.505170  0.977070  0.140019  1
  O  O150  1  0.523093  0.765829  0.227737  1
  O  O151  1  0.920917  0.939483  0.202516  1
  O  O152  1  0.936079  0.920489  0.248014  1
  O  O153  1  0.488365  0.019083  0.546024  1
  O  O154  1  0.376780  0.012727  0.597012  1
  O  O155  1  0.441599  0.131633  0.558378  1
  O  O156  1  0.410663  0.056350  0.638955  1
  O  O157  1  0.366582  0.027576  0.552758  1
  O  O158  1  0.395373  0.134140  0.601997  1
  O  O159  1  0.071415  0.288580  0.565061  1
  O  O160  1  0.428982  0.071286  0.513348  1
  O  O161  1  0.288023  0.071751  0.617658  1
  O  O162  1  0.000000  0.177987  0.558444  1
  O  O163  1  0.410859  0.000000  0.473267  1
  O  O164  1  0.079260  0.061477  0.614142  1
  O  O165  1  0.179063  0.090521  0.591448  1
  O  O166  1  0.080227  0.181681  0.593110  1
  O  O167  1  0.319438  0.005705  0.437299  1
  O  O168  1  0.079806  0.319337  0.409648  1
  O  O169  1  0.003474  0.078563  0.524501  1
  O  O170  1  0.475856  0.233096  0.589134  1
  O  O171  1  0.493117  0.023376  0.676343  1
  O  O172  1  0.063301  0.079971  0.568668  1
  O  O173  1  0.440007  0.063623  0.436936  1
  O  O174  1  0.376151  0.485809  0.414492  1
  O  O175  1  0.123097  0.513833  0.596863  1
  O  O176  1  0.019473  0.379093  0.586238  1
  O  O177  1  0.011373  0.520210  0.545780  1
  O  O178  1  0.410616  0.442151  0.456342  1
  O  O179  1  0.089108  0.557764  0.638759  1
  O  O180  1  0.134988  0.408874  0.570117  1
  O  O181  1  0.058334  0.632953  0.558237  1
  O  O182  1  0.395408  0.364619  0.419219  1
  O  O183  1  0.104490  0.635411  0.601809  1
  O  O184  1  0.031635  0.399523  0.541823  1
  O  O185  1  0.133124  0.528343  0.552669  1
  O  O186  1  0.288032  0.427907  0.434969  1
  O  O187  1  0.211998  0.572470  0.617523  1
  O  O188  1  0.070920  0.571439  0.513166  1
  O  O189  1  0.428069  0.428750  0.695628  1
  O  O190  1  0.179282  0.410940  0.408777  1
  O  O191  1  0.320960  0.590498  0.591440  1
  O  O192  1  0.090464  0.499677  0.473697  1
  O  O193  1  0.408730  0.499569  0.656121  1
  O  O194  1  0.180708  0.504674  0.437435  1
  O  O195  1  0.319144  0.496103  0.619694  1
  O  O196  1  0.004720  0.421025  0.707383  1
  O  O197  1  0.496081  0.579419  0.524928  1
  O  O198  1  0.233235  0.496709  0.582374  1
  O  O199  1  0.003355  0.522728  0.676053  1
  O  O200  1  0.495089  0.477184  0.493619  1
  O  O201  1  0.078884  0.440210  0.431480  1
  O  O202  1  0.420492  0.561416  0.614400  1
  O  O203  1  0.436492  0.579707  0.569024  1
  O  O204  1  0.060593  0.565142  0.437418  1
  O  O205  1  0.440131  0.436356  0.619669  1
  O  O206  1  0.123196  0.987317  0.414924  1
  O  O207  1  0.481931  0.877296  0.585450  1
  O  O208  1  0.091579  0.942269  0.457063  1
  O  O209  1  0.364985  0.908261  0.570172  1
  O  O210  1  0.103263  0.866736  0.418947  1
  O  O211  1  0.466993  0.898904  0.541441  1
  O  O212  1  0.071882  0.928572  0.696018  1
  O  O213  1  0.212423  0.928824  0.434633  1
  O  O214  1  0.428061  0.788809  0.564540  1
  O  O215  1  0.320470  0.909510  0.408221  1
  O  O216  1  0.420540  0.819054  0.409279  1
  O  O217  1  0.180556  0.996503  0.619922  1
  O  O218  1  0.420639  0.681258  0.592447  1
  O  O219  1  0.492397  0.919875  0.706387  1
  O  O220  1  0.266421  0.996167  0.582531  1
  O  O221  1  0.024907  0.735021  0.588934  1
  O  O222  1  0.003956  0.976145  0.492961  1
  O  O223  1  0.060769  0.936754  0.619815  1
  O  O224  1  0.419553  0.939160  0.431093  1
  O  O225  1  0.499435  0.679226  0.558350  1
  O  O226  1  0.089051  0.000000  0.656104  1
  O  O227  1  0.516521  0.122695  0.596176  1
  O  O228  1  0.986580  0.015965  0.452908  1
  O  O229  1  0.631771  0.088345  0.611761  1
  O  O230  1  0.942219  0.130916  0.440661  1
  O  O231  1  0.530252  0.103045  0.640306  1
  O  O232  1  0.864819  0.029410  0.446178  1
  O  O233  1  0.573179  0.210522  0.617212  1
  O  O234  1  0.572920  0.288811  0.434540  1
  O  O235  1  0.927801  0.072409  0.485324  1
  O  O236  1  0.501763  0.319961  0.623274  1
  O  O237  1  0.501429  0.179618  0.440662  1
  O  O238  1  0.910149  0.001235  0.525110  1
  O  O239  1  0.818626  0.003561  0.561632  1
  O  O240  1  0.578981  0.318248  0.589216  1
  O  O241  1  0.504618  0.079483  0.474016  1
  O  O242  1  0.734129  0.004162  0.599297  1
  O  O243  1  0.977450  0.265493  0.592853  1
  O  O244  1  0.994516  0.023198  0.687609  1
  O  O245  1  0.978131  0.232610  0.409486  1
  O  O246  1  0.565391  0.078799  0.430708  1
  O  O247  1  0.937918  0.064356  0.561910  1
  O  O248  1  0.987173  0.482421  0.635101  1
  O  O249  1  0.511619  0.518715  0.452814  1
  O  O250  1  0.876481  0.485814  0.584240  1
  O  O251  1  0.983123  0.623694  0.595832  1
  O  O252  1  0.516644  0.376654  0.413355  1
  O  O253  1  0.942704  0.368546  0.622995  1
  O  O254  1  0.556634  0.632769  0.440884  1
  O  O255  1  0.910436  0.443372  0.542160  1
  O  O256  1  0.867729  0.589780  0.611166  1
  O  O257  1  0.632253  0.410766  0.428755  1
  O  O258  1  0.865327  0.470786  0.628451  1
  O  O259  1  0.633561  0.530166  0.445810  1
  O  O260  1  0.898322  0.365097  0.579027  1
  O  O261  1  0.968480  0.603131  0.639709  1
  O  O262  1  0.531433  0.397566  0.457352  1
  O  O263  1  0.928605  0.428248  0.668076  1
  O  O264  1  0.571664  0.572973  0.485503  1
  O  O265  1  0.788519  0.427001  0.564001  1
  O  O266  1  0.908922  0.499262  0.707487  1
  O  O267  1  0.589058  0.501814  0.525433  1
  O  O268  1  0.679283  0.409728  0.590151  1
  O  O269  1  0.681063  0.503953  0.561731  1
  O  O270  1  0.995211  0.578809  0.473572  1
  O  O271  1  0.504003  0.420732  0.656356  1
  O  O272  1  0.734178  0.496610  0.416273  1
  O  O273  1  0.765892  0.504545  0.599209  1
  O  O274  1  0.994921  0.476422  0.504658  1
  O  O275  1  0.503179  0.522879  0.687628  1
  O  O276  1  0.565532  0.420773  0.613157  1
  O  O277  1  0.936154  0.580000  0.429713  1
  O  O278  1  0.561859  0.565226  0.562299  1
  O  O279  1  0.578680  0.439955  0.567683  1
  O  O280  1  0.623532  0.985033  0.584421  1
  O  O281  1  0.982407  0.876915  0.412298  1
  O  O282  1  0.514447  0.982272  0.635611  1
  O  O283  1  0.589137  0.941876  0.542461  1
  O  O284  1  0.867686  0.910299  0.429030  1
  O  O285  1  0.557176  0.867624  0.623114  1
  O  O286  1  0.603259  0.864195  0.579496  1
  O  O287  1  0.971631  0.894671  0.456486  1
  O  O288  1  0.635488  0.968558  0.628477  1
  O  O289  1  0.711558  0.926564  0.564078  1
  O  O290  1  0.926139  0.788124  0.433939  1
  O  O291  1  0.928754  0.711922  0.616660  1
  O  O292  1  0.570489  0.927926  0.667834  1
  O  O293  1  0.821149  0.909728  0.590186  1
  O  O294  1  0.997821  0.679975  0.440743  1
  O  O295  1  -0.000000  0.821395  0.623286  1
  O  O296  1  0.587515  -0.000000  0.707926  1
  O  O297  1  0.995727  0.920859  0.656624  1
  O  O298  1  0.921978  0.819446  0.589020  1
  O  O299  1  0.765544  0.994603  0.416881  1
  O  O300  1  0.524014  0.734788  0.409602  1
  O  O301  1  0.505170  0.977070  0.504907  1
  O  O302  1  0.523093  0.765829  0.592625  1
  O  O303  1  0.920917  0.939483  0.567403  1
  O  O304  1  0.936079  0.920489  0.612901  1
  Si  Si305  1  0.428049  0.068203  0.177263  1
  Si  Si306  1  0.366142  0.071745  0.251139  1
  Si  Si307  1  0.067517  0.133609  0.381995  1
  Si  Si308  1  0.032711  0.227799  0.213038  1
  Si  Si309  1  0.463381  0.032168  0.126742  1
  Si  Si310  1  0.229567  0.038199  0.238185  1
  Si  Si311  1  0.034271  0.269904  0.394436  1
  Si  Si312  1  0.453421  0.159340  0.219928  1
  Si  Si313  1  0.483075  0.044645  0.284415  1
  Si  Si314  1  0.159852  0.017121  0.391768  1
  Si  Si315  1  0.101497  0.106991  0.227103  1
  Si  Si316  1  0.001774  0.100712  0.187236  1
  Si  Si317  1  0.133893  0.573013  0.250932  1
  Si  Si318  1  0.070276  0.368778  0.199851  1
  Si  Si319  1  0.430168  0.634106  0.381652  1
  Si  Si320  1  0.071830  0.569295  0.177208  1
  Si  Si321  1  0.427417  0.432479  0.359579  1
  Si  Si322  1  0.270254  0.538496  0.238062  1
  Si  Si323  1  0.037151  0.531096  0.126293  1
  Si  Si324  1  0.461437  0.467690  0.308683  1
  Si  Si325  1  0.016151  0.544987  0.283863  1
  Si  Si326  1  0.158958  0.481399  0.208940  1
  Si  Si327  1  0.339402  0.517631  0.391669  1
  Si  Si328  1  0.046264  0.660886  0.219791  1
  Si  Si329  1  0.453586  0.340092  0.401959  1
  Si  Si330  1  0.394856  0.496792  0.263334  1
  Si  Si331  1  0.005531  0.398170  0.370020  1
  Si  Si332  1  0.497856  0.601726  0.187774  1
  Si  Si333  1  0.398106  0.605994  0.227345  1
  Si  Si334  1  0.073411  0.929446  0.360071  1
  Si  Si335  1  0.428802  0.868089  0.199219  1
  Si  Si336  1  0.467694  0.769597  0.394123  1
  Si  Si337  1  0.036698  0.968090  0.309515  1
  Si  Si338  1  0.467691  0.729679  0.212473  1
  Si  Si339  1  0.046569  0.841297  0.401018  1
  Si  Si340  1  0.340673  0.980686  0.209061  1
  Si  Si341  1  0.105082  0.997521  0.263190  1
  Si  Si342  1  0.496003  0.898568  0.368679  1
  Si  Si343  1  0.866118  0.072018  0.382861  1
  Si  Si344  1  0.568816  0.132660  0.252722  1
  Si  Si345  1  0.730750  0.036673  0.396325  1
  Si  Si346  1  0.532707  0.267820  0.239434  1
  Si  Si347  1  0.962038  0.032478  0.141606  1
  Si  Si348  1  0.982502  0.044410  0.349755  1
  Si  Si349  1  0.660202  0.016138  0.242513  1
  Si  Si350  1  0.894826  0.003626  0.188456  1
  Si  Si351  1  0.601690  0.105385  0.407396  1
  Si  Si352  1  0.927866  0.432203  0.274367  1
  Si  Si353  1  0.633193  0.572238  0.383394  1
  Si  Si354  1  0.866616  0.426963  0.200348  1
  Si  Si355  1  0.930661  0.633314  0.252231  1
  Si  Si356  1  0.961764  0.467417  0.325221  1
  Si  Si357  1  0.537028  0.532974  0.141661  1
  Si  Si358  1  0.772165  0.537566  0.396083  1
  Si  Si359  1  0.730901  0.462169  0.213849  1
  Si  Si360  1  0.957218  0.340383  0.231553  1
  Si  Si361  1  0.515765  0.545142  0.350046  1
  Si  Si362  1  0.983331  0.457236  0.167073  1
  Si  Si363  1  0.839825  0.517313  0.242254  1
  Si  Si364  1  0.601406  0.394246  0.224845  1
  Si  Si365  1  0.898289  0.605975  0.406447  1
  Si  Si366  1  0.895325  0.496728  0.370506  1
  Si  Si367  1  0.604701  0.504338  0.188841  1
  Si  Si368  1  0.504606  0.397599  0.263972  1
  Si  Si369  1  0.633506  0.926038  0.200580  1
  Si  Si370  1  0.573319  0.930253  0.274180  1
  Si  Si371  1  0.769065  0.961819  0.213923  1
  Si  Si372  1  0.969080  0.770799  0.239201  1
  Si  Si373  1  0.534186  0.967326  0.324705  1
  Si  Si374  1  0.516383  0.956164  0.167262  1
  Si  Si375  1  0.544901  0.839913  0.231867  1
  Si  Si376  1  0.604984  0.997203  0.371034  1
  Si  Si377  1  0.996920  0.898342  0.264256  1
  Si  Si378  1  0.898670  0.894561  0.224630  1
  Si  Si379  1  0.428049  0.068203  0.542150  1
  Si  Si380  1  0.366142  0.071745  0.616027  1
  Si  Si381  1  0.032711  0.227799  0.577926  1
  Si  Si382  1  0.463381  0.032168  0.491630  1
  Si  Si383  1  0.229567  0.038199  0.603073  1
  Si  Si384  1  0.453421  0.159340  0.584815  1
  Si  Si385  1  0.483075  0.044645  0.649302  1
  Si  Si386  1  0.101497  0.106991  0.591990  1
  Si  Si387  1  0.394114  0.003199  0.445126  1
  Si  Si388  1  0.001774  0.100712  0.552123  1
  Si  Si389  1  0.366028  0.426652  0.433367  1
  Si  Si390  1  0.133893  0.573013  0.615819  1
  Si  Si391  1  0.070276  0.368778  0.564738  1
  Si  Si392  1  0.071830  0.569295  0.542096  1
  Si  Si393  1  0.230566  0.463364  0.420288  1
  Si  Si394  1  0.270254  0.538496  0.602949  1
  Si  Si395  1  0.037151  0.531096  0.491180  1
  Si  Si396  1  0.461437  0.467690  0.673570  1
  Si  Si397  1  0.483554  0.455971  0.466500  1
  Si  Si398  1  0.016151  0.544987  0.648751  1
  Si  Si399  1  0.158958  0.481399  0.573827  1
  Si  Si400  1  0.046264  0.660886  0.584678  1
  Si  Si401  1  0.104712  0.503975  0.445868  1
  Si  Si402  1  0.394856  0.496792  0.628221  1
  Si  Si403  1  0.497856  0.601726  0.552661  1
  Si  Si404  1  0.398106  0.605994  0.592233  1
  Si  Si405  1  0.101535  0.395217  0.409220  1
  Si  Si406  1  0.132656  0.927859  0.433863  1
  Si  Si407  1  0.428802  0.868089  0.564106  1
  Si  Si408  1  0.036698  0.968090  0.674402  1
  Si  Si409  1  0.273698  0.962795  0.420304  1
  Si  Si410  1  0.467691  0.729679  0.577360  1
  Si  Si411  1  0.019007  0.952535  0.465869  1
  Si  Si412  1  0.340673  0.980686  0.573948  1
  Si  Si413  1  0.396869  0.894599  0.408901  1
  Si  Si414  1  0.105082  0.997521  0.628077  1
  Si  Si415  1  0.568816  0.132660  0.617609  1
  Si  Si416  1  0.927243  0.067893  0.456894  1
  Si  Si417  1  0.532707  0.267820  0.604321  1
  Si  Si418  1  0.532368  0.231558  0.421650  1
  Si  Si419  1  0.962038  0.032478  0.506493  1
  Si  Si420  1  0.660202  0.016138  0.607400  1
  Si  Si421  1  0.954955  0.158171  0.414152  1
  Si  Si422  1  0.894826  0.003626  0.553344  1
  Si  Si423  1  0.504456  0.102091  0.446386  1
  Si  Si424  1  0.927866  0.432203  0.639254  1
  Si  Si425  1  0.570910  0.568656  0.457046  1
  Si  Si426  1  0.866616  0.426963  0.565236  1
  Si  Si427  1  0.930661  0.633314  0.617118  1
  Si  Si428  1  0.569215  0.366669  0.434680  1
  Si  Si429  1  0.961764  0.467417  0.690108  1
  Si  Si430  1  0.537028  0.532974  0.506548  1
  Si  Si431  1  0.730901  0.462169  0.578736  1
  Si  Si432  1  0.957218  0.340383  0.596441  1
  Si  Si433  1  0.545674  0.660993  0.414401  1
  Si  Si434  1  0.983331  0.457236  0.531960  1
  Si  Si435  1  0.839825  0.517313  0.607141  1
  Si  Si436  1  0.659300  0.483734  0.424303  1
  Si  Si437  1  0.601406  0.394246  0.589732  1
  Si  Si438  1  0.604701  0.504338  0.553728  1
  Si  Si439  1  0.995926  0.603011  0.446260  1
  Si  Si440  1  0.504606  0.397599  0.628859  1
  Si  Si441  1  0.633506  0.926038  0.565467  1
  Si  Si442  1  0.931027  0.865967  0.434063  1
  Si  Si443  1  0.573319  0.930253  0.639067  1
  Si  Si444  1  0.769065  0.961819  0.578810  1
  Si  Si445  1  0.966372  0.730137  0.421613  1
  Si  Si446  1  0.969080  0.770799  0.604088  1
  Si  Si447  1  0.534186  0.967326  0.689593  1
  Si  Si448  1  0.516383  0.956164  0.532149  1
  Si  Si449  1  0.839436  0.982581  0.424976  1
  Si  Si450  1  0.544901  0.839913  0.596754  1
  Si  Si451  1  0.996920  0.898342  0.629143  1
  Si  Si452  1  0.898670  0.894561  0.589518  1
  H  H453  1  0.410859  -0.000000  0.091847  1
  H  H454  1  0.090464  0.499677  0.092277  1
  H  H455  1  0.495089  0.477184  0.112199  1
  H  H456  1  0.003956  0.976145  0.111541  1
  H  H457  1  0.927801  0.072409  0.103904  1
  H  H458  1  0.504618  0.079483  0.092597  1
  H  H459  1  0.571664  0.572973  0.104083  1
  H  H460  1  0.995211  0.578809  0.092152  1
  H  H461  1  0.428069  0.428750  0.712161  1
  H  H462  1  0.004720  0.421025  0.723916  1
  H  H463  1  0.071882  0.928572  0.712550  1
  H  H464  1  0.492397  0.919875  0.722920  1
  H  H465  1  0.994516  0.023198  0.704142  1
  H  H466  1  0.908922  0.499262  0.724020  1
  H  H467  1  0.503179  0.522879  0.704161  1
  H  H468  1  0.587515  0.000000  0.724458  1
