# generated using pymatgen
data_Si12H2O25
_symmetry_space_group_name_H-M   'P 1'
_cell_length_a   16.03258684
_cell_length_b   9.70609838
_cell_length_c   38.91550282
_cell_angle_alpha   90.00000000
_cell_angle_beta   90.00000000
_cell_angle_gamma   90.00000000
_symmetry_Int_Tables_number   1
_chemical_formula_structural   Si12H2O25
_chemical_formula_sum   'Si48 H8 O100'
_cell_volume   6055.7918077
_cell_formula_units_Z   4
loop_
 _symmetry_equiv_pos_site_id
 _symmetry_equiv_pos_as_xyz
  1  'x, y, z'
loop_
 _atom_site_type_symbol
 _atom_site_label
 _atom_site_symmetry_multiplicity
 _atom_site_fract_x
 _atom_site_fract_y
 _atom_site_fract_z
 _atom_site_occupancy
  O  O1  1  0.178244  0.054056  0.151611  1
  O  O2  1  0.321887  0.554057  0.151611  1
  O  O3  1  0.178244  0.054056  0.581493  1
  O  O4  1  0.321887  0.945674  0.366552  1
  O  O5  1  0.821887  0.554057  0.376481  1
  O  O6  1  0.678244  0.445673  0.161540  1
  O  O7  1  0.821886  0.945674  0.161540  1
  O  O8  1  0.678244  0.054056  0.376481  1
  O  O9  1  0.178243  0.445673  0.366552  1
  O  O10  1  0.321887  0.554057  0.581493  1
  O  O11  1  0.286111  0.131686  0.199272  1
  O  O12  1  0.214019  0.868043  0.414213  1
  O  O13  1  0.714020  0.631687  0.328820  1
  O  O14  1  0.786111  0.368043  0.543762  1
  O  O15  1  0.714019  0.868043  0.543762  1
  O  O16  1  0.786111  0.131686  0.328820  1
  O  O17  1  0.286111  0.368043  0.414213  1
  O  O18  1  0.214020  0.631686  0.199272  1
  O  O19  1  0.209188  0.894067  0.203825  1
  O  O20  1  0.290943  0.105662  0.418767  1
  O  O21  1  0.790943  0.394068  0.324267  1
  O  O22  1  0.709187  0.605662  0.539208  1
  O  O23  1  0.790943  0.105662  0.539208  1
  O  O24  1  0.709188  0.894067  0.324266  1
  O  O25  1  0.209187  0.605662  0.418767  1
  O  O26  1  0.290943  0.394068  0.203825  1
  O  O27  1  0.133481  0.115174  0.213955  1
  O  O28  1  0.366649  0.884555  0.428896  1
  O  O29  1  0.866649  0.615175  0.314137  1
  O  O30  1  0.633481  0.384555  0.529078  1
  O  O31  1  0.866649  0.884555  0.529078  1
  O  O32  1  0.633481  0.115174  0.314137  1
  O  O33  1  0.133481  0.384555  0.428896  1
  O  O34  1  0.366649  0.615174  0.213955  1
  O  O35  1  0.073824  0.775500  0.220549  1
  O  O36  1  0.426306  0.224229  0.435491  1
  O  O37  1  0.926306  0.275500  0.307542  1
  O  O38  1  0.573824  0.724230  0.522484  1
  O  O39  1  0.926306  0.224230  0.522484  1
  O  O40  1  0.573824  0.775500  0.307542  1
  O  O41  1  0.073824  0.724229  0.435491  1
  O  O42  1  0.426307  0.275500  0.220550  1
  O  O43  1  0.201034  0.739900  0.257923  1
  O  O44  1  0.299096  0.259830  0.472864  1
  O  O45  1  0.799096  0.239900  0.270169  1
  O  O46  1  0.701035  0.759829  0.485111  1
  O  O47  1  0.799096  0.259830  0.485110  1
  O  O48  1  0.701035  0.739900  0.270169  1
  O  O49  1  0.201034  0.759830  0.472864  1
  O  O50  1  0.299096  0.239900  0.257923  1
  O  O51  1  0.958623  0.756793  0.266678  1
  O  O52  1  0.541508  0.242937  0.481620  1
  O  O53  1  0.041508  0.256792  0.261413  1
  O  O54  1  0.458622  0.742937  0.476355  1
  O  O55  1  0.041508  0.242937  0.476355  1
  O  O56  1  0.458623  0.756792  0.261414  1
  O  O57  1  0.958623  0.742937  0.481620  1
  O  O58  1  0.541508  0.256793  0.266678  1
  O  O59  1  0.923260  0.893790  0.212066  1
  O  O60  1  0.576871  0.105940  0.427008  1
  O  O61  1  0.076871  0.393790  0.316025  1
  O  O62  1  0.423259  0.605940  0.530967  1
  O  O63  1  0.076871  0.105940  0.530967  1
  O  O64  1  0.423260  0.893790  0.316025  1
  O  O65  1  0.923260  0.605940  0.427008  1
  O  O66  1  0.576871  0.393790  0.212066  1
  O  O67  1  0.033275  0.989586  0.253252  1
  O  O68  1  0.466855  0.010144  0.468194  1
  O  O69  1  0.966856  0.489586  0.274839  1
  O  O70  1  0.533275  0.510144  0.489781  1
  O  O71  1  0.966856  0.010143  0.489781  1
  O  O72  1  0.533275  0.989586  0.274839  1
  O  O73  1  0.033275  0.510144  0.468194  1
  O  O74  1  0.466856  0.489586  0.253252  1
  O  O75  1  0.168604  0.117751  0.276129  1
  O  O76  1  0.331526  0.881979  0.491071  1
  O  O77  1  0.831526  0.617750  0.251962  1
  O  O78  1  0.668604  0.381979  0.466904  1
  O  O79  1  0.831526  0.881979  0.466904  1
  O  O80  1  0.668604  0.117750  0.251962  1
  O  O81  1  0.168604  0.381979  0.491071  1
  O  O82  1  0.331526  0.617751  0.276130  1
  O  O83  1  0.303799  0.065771  0.308746  1
  O  O84  1  0.196331  0.933959  0.523687  1
  O  O85  1  0.696332  0.565771  0.219346  1
  O  O86  1  0.803799  0.433959  0.434287  1
  O  O87  1  0.696332  0.933959  0.434287  1
  O  O88  1  0.803799  0.065770  0.219346  1
  O  O89  1  0.303799  0.433959  0.523687  1
  O  O90  1  0.196332  0.565771  0.308746  1
  O  O91  1  0.274278  0.806544  0.313903  1
  O  O92  1  0.225853  0.193185  0.528845  1
  O  O93  1  0.725853  0.306544  0.214188  1
  O  O94  1  0.774278  0.693186  0.429130  1
  O  O95  1  0.725853  0.193186  0.429130  1
  O  O96  1  0.774278  0.806544  0.214188  1
  O  O97  1  0.274278  0.693186  0.528845  1
  O  O98  1  0.225853  0.306544  0.313903  1
  O  O99  1  0.678244  0.445673  0.591422  1
  O  O100  1  0.821886  0.945674  0.591422  1
  Si  Si101  1  0.203638  0.047294  0.190328  1
  Si  Si102  1  0.296493  0.952436  0.405270  1
  Si  Si103  1  0.796493  0.547294  0.337763  1
  Si  Si104  1  0.703637  0.452435  0.552705  1
  Si  Si105  1  0.796493  0.952436  0.552705  1
  Si  Si106  1  0.703638  0.047294  0.337763  1
  Si  Si107  1  0.203637  0.452436  0.405270  1
  Si  Si108  1  0.296493  0.547294  0.190328  1
  Si  Si109  1  0.995945  0.852572  0.237442  1
  Si  Si110  1  0.504185  0.147157  0.452383  1
  Si  Si111  1  0.004185  0.352572  0.290650  1
  Si  Si112  1  0.495945  0.647157  0.505591  1
  Si  Si113  1  0.004185  0.147157  0.505591  1
  Si  Si114  1  0.495945  0.852572  0.290650  1
  Si  Si115  1  0.995945  0.647157  0.452383  1
  Si  Si116  1  0.504185  0.352572  0.237442  1
  Si  Si117  1  0.252259  0.181728  0.290369  1
  Si  Si118  1  0.247871  0.818001  0.505311  1
  Si  Si119  1  0.747871  0.681729  0.237722  1
  Si  Si120  1  0.752259  0.318001  0.452664  1
  Si  Si121  1  0.747871  0.818001  0.452664  1
  Si  Si122  1  0.752259  0.181728  0.237723  1
  Si  Si123  1  0.252259  0.318001  0.505311  1
  Si  Si124  1  0.247871  0.681729  0.290369  1
  Si  Si125  1  0.330884  0.928515  0.326884  1
  Si  Si126  1  0.169246  0.071215  0.541825  1
  Si  Si127  1  0.669246  0.428515  0.201208  1
  Si  Si128  1  0.830884  0.571215  0.416149  1
  Si  Si129  1  0.669246  0.071215  0.416149  1
  Si  Si130  1  0.830884  0.928515  0.201208  1
  Si  Si131  1  0.330884  0.571215  0.541825  1
  Si  Si132  1  0.169246  0.428514  0.326884  1
  Si  Si133  1  0.172253  0.756323  0.219343  1
  Si  Si134  1  0.327878  0.243406  0.434284  1
  Si  Si135  1  0.827878  0.256323  0.308749  1
  Si  Si136  1  0.672252  0.743406  0.523690  1
  Si  Si137  1  0.827878  0.243406  0.523690  1
  Si  Si138  1  0.672253  0.756323  0.308749  1
  Si  Si139  1  0.172252  0.743406  0.434284  1
  Si  Si140  1  0.327878  0.256323  0.219343  1
  Si  Si141  1  0.090920  0.121859  0.250868  1
  Si  Si142  1  0.409210  0.877870  0.465810  1
  Si  Si143  1  0.909210  0.621859  0.277223  1
  Si  Si144  1  0.590920  0.377870  0.492165  1
  Si  Si145  1  0.909210  0.877870  0.492165  1
  Si  Si146  1  0.590920  0.121859  0.277223  1
  Si  Si147  1  0.090920  0.377870  0.465810  1
  Si  Si148  1  0.409210  0.621859  0.250868  1
  H  H149  1  0.178244  0.054056  0.128483  1
  H  H150  1  0.321887  0.554057  0.128483  1
  H  H151  1  0.178244  0.054056  0.604620  1
  H  H152  1  0.678244  0.445673  0.138413  1
  H  H153  1  0.821886  0.945674  0.138413  1
  H  H154  1  0.321887  0.554057  0.604620  1
  H  H155  1  0.678244  0.445673  0.614550  1
  H  H156  1  0.821886  0.945674  0.614550  1
