# generated using pymatgen
data_Si16H2O33
_symmetry_space_group_name_H-M   'P 1'
_cell_length_a   6.96337406
_cell_length_b   15.38684673
_cell_length_c   39.01129237
_cell_angle_alpha   96.99200000
_cell_angle_beta   90.00000000
_cell_angle_gamma   90.00000000
_symmetry_Int_Tables_number   1
_chemical_formula_structural   Si16H2O33
_chemical_formula_sum   'Si32 H4 O66'
_cell_volume   4148.75550863
_cell_formula_units_Z   2
loop_
 _symmetry_equiv_pos_site_id
 _symmetry_equiv_pos_as_xyz
  1  'x, y, z'
loop_
 _atom_site_type_symbol
 _atom_site_label
 _atom_site_symmetry_multiplicity
 _atom_site_fract_x
 _atom_site_fract_y
 _atom_site_fract_z
 _atom_site_occupancy
  O  O1  1  0.151311  0.249951  0.152199  1
  O  O2  1  0.848277  0.749951  0.152200  1
  O  O3  1  0.307379  0.202768  0.311936  1
  O  O4  1  0.307381  0.297133  0.211133  1
  O  O5  1  0.692206  0.797133  0.211133  1
  O  O6  1  0.692207  0.702768  0.311936  1
  O  O7  1  0.099204  0.338907  0.318354  1
  O  O8  1  0.099202  0.160996  0.204713  1
  O  O9  1  0.900383  0.660995  0.204714  1
  O  O10  1  0.900384  0.838906  0.318355  1
  O  O11  1  0.952624  0.183008  0.318781  1
  O  O12  1  0.952624  0.316894  0.204287  1
  O  O13  1  0.046962  0.816892  0.204288  1
  O  O14  1  0.046963  0.683007  0.318782  1
  O  O15  1  0.151311  0.249951  0.370871  1
  O  O16  1  0.848277  0.749951  0.370872  1
  O  O17  1  0.883419  0.010864  0.304203  1
  O  O18  1  0.883418  0.489037  0.218866  1
  O  O19  1  0.116169  0.989037  0.218866  1
  O  O20  1  0.116169  0.510864  0.304203  1
  O  O21  1  0.054164  0.891330  0.265049  1
  O  O22  1  0.054163  0.608571  0.258020  1
  O  O23  1  0.945422  0.108571  0.258019  1
  O  O24  1  0.945424  0.391331  0.265049  1
  O  O25  1  0.696475  0.888955  0.269424  1
  O  O26  1  0.696473  0.610946  0.253645  1
  O  O27  1  0.303113  0.110946  0.253644  1
  O  O28  1  0.303114  0.388955  0.269424  1
  O  O29  1  0.371774  0.623742  0.290769  1
  O  O30  1  0.371774  0.876157  0.232300  1
  O  O31  1  0.627813  0.376159  0.232300  1
  O  O32  1  0.627812  0.123743  0.290768  1
  O  O33  1  0.489820  0.249951  0.261534  1
  O  O34  1  0.509767  0.749950  0.261534  1
  O  O35  1  0.307379  0.202768  0.530608  1
  O  O36  1  0.307381  0.297133  0.429805  1
  O  O37  1  0.692206  0.797133  0.429805  1
  O  O38  1  0.692207  0.702768  0.530609  1
  O  O39  1  0.099204  0.338907  0.537026  1
  O  O40  1  0.099202  0.160996  0.423386  1
  O  O41  1  0.900383  0.660995  0.423387  1
  O  O42  1  0.900384  0.838906  0.537027  1
  O  O43  1  0.952624  0.183008  0.537453  1
  O  O44  1  0.952624  0.316894  0.422959  1
  O  O45  1  0.046962  0.816892  0.422960  1
  O  O46  1  0.046963  0.683007  0.537454  1
  O  O47  1  0.151311  0.249951  0.589543  1
  O  O48  1  0.848277  0.749951  0.589545  1
  O  O49  1  0.883419  0.010864  0.522875  1
  O  O50  1  0.883418  0.489037  0.437538  1
  O  O51  1  0.116169  0.989037  0.437538  1
  O  O52  1  0.116169  0.510864  0.522875  1
  O  O53  1  0.054164  0.891330  0.483721  1
  O  O54  1  0.054163  0.608571  0.476692  1
  O  O55  1  0.945422  0.108571  0.476692  1
  O  O56  1  0.945424  0.391331  0.483721  1
  O  O57  1  0.696475  0.888955  0.488097  1
  O  O58  1  0.696473  0.610946  0.472317  1
  O  O59  1  0.303113  0.110946  0.472316  1
  O  O60  1  0.303114  0.388955  0.488096  1
  O  O61  1  0.371774  0.623742  0.509441  1
  O  O62  1  0.371774  0.876157  0.450973  1
  O  O63  1  0.627813  0.376159  0.450972  1
  O  O64  1  0.627812  0.123743  0.509440  1
  O  O65  1  0.489820  0.249951  0.480206  1
  O  O66  1  0.509767  0.749950  0.480207  1
  Si  Si67  1  0.125395  0.245628  0.331005  1
  Si  Si68  1  0.125395  0.254272  0.192061  1
  Si  Si69  1  0.874190  0.754272  0.192061  1
  Si  Si70  1  0.874193  0.745628  0.331006  1
  Si  Si71  1  0.884537  0.908472  0.291811  1
  Si  Si72  1  0.884536  0.591427  0.231258  1
  Si  Si73  1  0.115050  0.091423  0.231257  1
  Si  Si74  1  0.115051  0.408470  0.291810  1
  Si  Si75  1  0.150108  0.607477  0.294615  1
  Si  Si76  1  0.150111  0.892431  0.228454  1
  Si  Si77  1  0.849477  0.392428  0.228454  1
  Si  Si78  1  0.849479  0.107475  0.294614  1
  Si  Si79  1  0.437009  0.332064  0.242924  1
  Si  Si80  1  0.437012  0.167837  0.280144  1
  Si  Si81  1  0.562577  0.667838  0.280144  1
  Si  Si82  1  0.562578  0.832064  0.242925  1
  Si  Si83  1  0.125395  0.245628  0.549678  1
  Si  Si84  1  0.125395  0.254272  0.410733  1
  Si  Si85  1  0.874190  0.754272  0.410733  1
  Si  Si86  1  0.874193  0.745628  0.549678  1
  Si  Si87  1  0.884537  0.908472  0.510483  1
  Si  Si88  1  0.884536  0.591427  0.449931  1
  Si  Si89  1  0.115050  0.091423  0.449930  1
  Si  Si90  1  0.115051  0.408470  0.510482  1
  Si  Si91  1  0.150108  0.607477  0.513287  1
  Si  Si92  1  0.150111  0.892431  0.447127  1
  Si  Si93  1  0.849477  0.392428  0.447126  1
  Si  Si94  1  0.849479  0.107475  0.513287  1
  Si  Si95  1  0.437009  0.332064  0.461596  1
  Si  Si96  1  0.437012  0.167837  0.498816  1
  Si  Si97  1  0.562577  0.667838  0.498817  1
  Si  Si98  1  0.562578  0.832064  0.461597  1
  H  H99  1  0.151311  0.249951  0.129128  1
  H  H100  1  0.848277  0.749951  0.129130  1
  H  H101  1  0.151311  0.249951  0.612613  1
  H  H102  1  0.848277  0.749951  0.612615  1
