# generated using pymatgen
data_Si11(HO6)4
_symmetry_space_group_name_H-M   'P 1'
_cell_length_a   19.80640796
_cell_length_b   19.84885801
_cell_length_c   31.14620913
_cell_angle_alpha   90.00000000
_cell_angle_beta   90.00000000
_cell_angle_gamma   90.00000000
_symmetry_Int_Tables_number   1
_chemical_formula_structural   Si11(HO6)4
_chemical_formula_sum   'Si44 H16 O96'
_cell_volume   12244.6518208
_cell_formula_units_Z   4
loop_
 _symmetry_equiv_pos_site_id
 _symmetry_equiv_pos_as_xyz
  1  'x, y, z'
loop_
 _atom_site_type_symbol
 _atom_site_label
 _atom_site_symmetry_multiplicity
 _atom_site_fract_x
 _atom_site_fract_y
 _atom_site_fract_z
 _atom_site_occupancy
  O  O1  1  0.488365  0.019083  0.261730  1
  O  O2  1  0.376780  0.012727  0.350847  1
  O  O3  1  0.441599  0.131633  0.283322  1
  O  O4  1  0.410663  0.056350  0.424157  1
  O  O5  1  0.366582  0.027576  0.273500  1
  O  O6  1  0.395373  0.134140  0.359561  1
  O  O7  1  0.071415  0.288580  0.295003  1
  O  O8  1  0.428982  0.071286  0.204617  1
  O  O9  1  0.288023  0.071751  0.386934  1
  O  O10  1  0.000000  0.177987  0.283438  1
  O  O11  1  0.079260  0.061477  0.380789  1
  O  O12  1  0.179063  0.090521  0.341124  1
  O  O13  1  0.080227  0.181681  0.344028  1
  O  O14  1  0.003474  0.078563  0.224111  1
  O  O15  1  0.475856  0.233096  0.337078  1
  O  O16  1  0.493117  0.023376  0.489504  1
  O  O17  1  0.063301  0.079971  0.301307  1
  O  O18  1  0.123097  0.513833  0.350588  1
  O  O19  1  0.019473  0.379093  0.332016  1
  O  O20  1  0.011373  0.520210  0.261304  1
  O  O21  1  0.089108  0.557764  0.423814  1
  O  O22  1  0.134988  0.408874  0.303840  1
  O  O23  1  0.058334  0.632953  0.283076  1
  O  O24  1  0.104490  0.635411  0.359232  1
  O  O25  1  0.031635  0.399523  0.254388  1
  O  O26  1  0.133124  0.528343  0.273344  1
  O  O27  1  0.211998  0.572470  0.386698  1
  O  O28  1  0.070920  0.571439  0.204299  1
  O  O29  1  0.320960  0.590498  0.341110  1
  O  O30  1  0.408730  0.499569  0.454160  1
  O  O31  1  0.319144  0.496103  0.390492  1
  O  O32  1  0.496081  0.579419  0.224857  1
  O  O33  1  0.233235  0.496709  0.325263  1
  O  O34  1  0.003355  0.522728  0.488998  1
  O  O35  1  0.420492  0.561416  0.381238  1
  O  O36  1  0.436492  0.579707  0.301929  1
  O  O37  1  0.440131  0.436356  0.390448  1
  O  O38  1  0.481931  0.877296  0.330640  1
  O  O39  1  0.364985  0.908261  0.303937  1
  O  O40  1  0.466993  0.898904  0.253720  1
  O  O41  1  0.428061  0.788809  0.294092  1
  O  O42  1  0.180556  0.996503  0.390891  1
  O  O43  1  0.420639  0.681258  0.342869  1
  O  O44  1  0.266421  0.996167  0.325538  1
  O  O45  1  0.024907  0.735021  0.336730  1
  O  O46  1  0.060769  0.936754  0.390703  1
  O  O47  1  0.499435  0.679226  0.283272  1
  O  O48  1  0.089051  0.000000  0.454131  1
  O  O49  1  0.516521  0.122695  0.349387  1
  O  O50  1  0.631771  0.088345  0.376627  1
  O  O51  1  0.530252  0.103045  0.426519  1
  O  O52  1  0.573179  0.210522  0.386153  1
  O  O53  1  0.501763  0.319961  0.396749  1
  O  O54  1  0.910149  0.001235  0.225175  1
  O  O55  1  0.818626  0.003561  0.289009  1
  O  O56  1  0.578981  0.318248  0.337221  1
  O  O57  1  0.734129  0.004162  0.354842  1
  O  O58  1  0.977450  0.265493  0.343578  1
  O  O59  1  0.937918  0.064356  0.289496  1
  O  O60  1  0.987173  0.482421  0.417421  1
  O  O61  1  0.876481  0.485814  0.328525  1
  O  O62  1  0.983123  0.623694  0.348785  1
  O  O63  1  0.942704  0.368546  0.396261  1
  O  O64  1  0.910436  0.443372  0.254976  1
  O  O65  1  0.867729  0.589780  0.375587  1
  O  O66  1  0.865327  0.470786  0.405798  1
  O  O67  1  0.898322  0.365097  0.319412  1
  O  O68  1  0.968480  0.603131  0.425475  1
  O  O69  1  0.928605  0.428248  0.475055  1
  O  O70  1  0.788519  0.427001  0.293149  1
  O  O71  1  0.589058  0.501814  0.225740  1
  O  O72  1  0.679283  0.409728  0.338855  1
  O  O73  1  0.681063  0.503953  0.289182  1
  O  O74  1  0.504003  0.420732  0.454571  1
  O  O75  1  0.765892  0.504545  0.354688  1
  O  O76  1  0.994921  0.476422  0.189429  1
  O  O77  1  0.565532  0.420773  0.379066  1
  O  O78  1  0.561859  0.565226  0.290175  1
  O  O79  1  0.578680  0.439955  0.299586  1
  O  O80  1  0.623532  0.985033  0.328841  1
  O  O81  1  0.514447  0.982272  0.418312  1
  O  O82  1  0.589137  0.941876  0.255501  1
  O  O83  1  0.557176  0.867624  0.396471  1
  O  O84  1  0.603259  0.864195  0.320233  1
  O  O85  1  0.635488  0.968558  0.405842  1
  O  O86  1  0.711558  0.926564  0.293284  1
  O  O87  1  0.928754  0.711922  0.385189  1
  O  O88  1  0.570489  0.927926  0.474633  1
  O  O89  1  0.821149  0.909728  0.338916  1
  O  O90  1  0.000000  0.821395  0.396770  1
  O  O91  1  0.995727  0.920859  0.455040  1
  O  O92  1  0.921978  0.819446  0.336879  1
  O  O93  1  0.505170  0.977070  0.189863  1
  O  O94  1  0.523093  0.765829  0.343179  1
  O  O95  1  0.920917  0.939483  0.299097  1
  O  O96  1  0.936079  0.920489  0.378620  1
  Si  Si97  1  0.428049  0.068203  0.254958  1
  Si  Si98  1  0.366142  0.071745  0.384082  1
  Si  Si99  1  0.032711  0.227799  0.317488  1
  Si  Si100  1  0.229567  0.038199  0.361441  1
  Si  Si101  1  0.453421  0.159340  0.329529  1
  Si  Si102  1  0.483075  0.044645  0.442243  1
  Si  Si103  1  0.101497  0.106991  0.342071  1
  Si  Si104  1  0.001774  0.100712  0.272390  1
  Si  Si105  1  0.133893  0.573013  0.383720  1
  Si  Si106  1  0.070276  0.368778  0.294439  1
  Si  Si107  1  0.071830  0.569295  0.254863  1
  Si  Si108  1  0.270254  0.538496  0.361225  1
  Si  Si109  1  0.016151  0.544987  0.441278  1
  Si  Si110  1  0.158958  0.481399  0.310325  1
  Si  Si111  1  0.046264  0.660886  0.329290  1
  Si  Si112  1  0.394856  0.496792  0.405396  1
  Si  Si113  1  0.497856  0.601726  0.273330  1
  Si  Si114  1  0.398106  0.605994  0.342494  1
  Si  Si115  1  0.428802  0.868089  0.293334  1
  Si  Si116  1  0.467691  0.729679  0.316499  1
  Si  Si117  1  0.340673  0.980686  0.310536  1
  Si  Si118  1  0.105082  0.997521  0.405145  1
  Si  Si119  1  0.568816  0.132660  0.386849  1
  Si  Si120  1  0.532707  0.267820  0.363623  1
  Si  Si121  1  0.660202  0.016138  0.369005  1
  Si  Si122  1  0.894826  0.003626  0.274523  1
  Si  Si123  1  0.927866  0.432203  0.424680  1
  Si  Si124  1  0.866616  0.426963  0.295308  1
  Si  Si125  1  0.930661  0.633314  0.385990  1
  Si  Si126  1  0.730901  0.462169  0.318904  1
  Si  Si127  1  0.957218  0.340383  0.349849  1
  Si  Si128  1  0.983331  0.457236  0.237148  1
  Si  Si129  1  0.839825  0.517313  0.368551  1
  Si  Si130  1  0.601406  0.394246  0.338124  1
  Si  Si131  1  0.604701  0.504338  0.275195  1
  Si  Si132  1  0.504606  0.397599  0.406511  1
  Si  Si133  1  0.633506  0.926038  0.295713  1
  Si  Si134  1  0.573319  0.930253  0.424353  1
  Si  Si135  1  0.769065  0.961819  0.319034  1
  Si  Si136  1  0.969080  0.770799  0.363216  1
  Si  Si137  1  0.516383  0.956164  0.237478  1
  Si  Si138  1  0.544901  0.839913  0.350397  1
  Si  Si139  1  0.996920  0.898342  0.407007  1
  Si  Si140  1  0.898670  0.894561  0.337749  1
  H  H141  1  0.428982  0.071286  0.175721  1
  H  H142  1  0.003474  0.078563  0.195215  1
  H  H143  1  0.493117  0.023376  0.518400  1
  H  H144  1  0.070920  0.571439  0.175403  1
  H  H145  1  0.408730  0.499569  0.483056  1
  H  H146  1  0.496081  0.579419  0.195961  1
  H  H147  1  0.003355  0.522728  0.517894  1
  H  H148  1  0.089051  0.000000  0.483027  1
  H  H149  1  0.910149  0.001235  0.196279  1
  H  H150  1  0.928605  0.428248  0.503951  1
  H  H151  1  0.589058  0.501814  0.196844  1
  H  H152  1  0.504003  0.420732  0.483466  1
  H  H153  1  0.994921  0.476422  0.160533  1
  H  H154  1  0.570489  0.927926  0.503529  1
  H  H155  1  0.995727  0.920859  0.483936  1
  H  H156  1  0.505170  0.977070  0.160967  1
