# generated using pymatgen
data_Si5H2O11
_symmetry_space_group_name_H-M   'P 1'
_cell_length_a   6.98625762
_cell_length_b   12.63072671
_cell_length_c   28.41647007
_cell_angle_alpha   90.00000000
_cell_angle_beta   90.00000000
_cell_angle_gamma   90.00000000
_symmetry_Int_Tables_number   1
_chemical_formula_structural   Si5H2O11
_chemical_formula_sum   'Si10 H4 O22'
_cell_volume   2507.51224837
_cell_formula_units_Z   2
loop_
 _symmetry_equiv_pos_site_id
 _symmetry_equiv_pos_as_xyz
  1  'x, y, z'
loop_
 _atom_site_type_symbol
 _atom_site_label
 _atom_site_symmetry_multiplicity
 _atom_site_fract_x
 _atom_site_fract_y
 _atom_site_fract_z
 _atom_site_occupancy
  O  O1  1  0.829897  0.522776  0.361010  1
  O  O2  1  0.841575  0.976185  0.289044  1
  O  O3  1  0.167704  0.475591  0.286289  1
  O  O4  1  0.165067  0.022518  0.359755  1
  O  O5  1  0.181899  0.528188  0.369768  1
  O  O6  1  0.196884  0.965082  0.276246  1
  O  O7  1  0.809148  0.469695  0.276415  1
  O  O8  1  0.809604  0.033375  0.372877  1
  O  O9  1  0.976133  0.695712  0.363199  1
  O  O10  1  0.982521  0.804428  0.284888  1
  O  O11  1  0.019821  0.305993  0.286751  1
  O  O12  1  0.020102  0.196345  0.364757  1
  O  O13  1  0.970299  0.585484  0.440181  1
  O  O14  1  0.024740  0.410638  0.207699  1
  O  O15  1  0.034120  0.084933  0.440465  1
  O  O16  1  0.973817  0.914091  0.207626  1
  O  O17  1  0.734093  0.847074  0.344179  1
  O  O18  1  0.735071  0.656909  0.305648  1
  O  O19  1  0.262430  0.152542  0.305482  1
  O  O20  1  0.270965  0.342084  0.343119  1
  O  O21  1  0.504906  0.002292  0.323842  1
  O  O22  1  0.498244  0.500983  0.323952  1
  Si  Si23  1  0.994252  0.582857  0.386374  1
  Si  Si24  1  0.005862  0.915212  0.261867  1
  Si  Si25  1  0.997715  0.418197  0.261884  1
  Si  Si26  1  0.000000  0.084048  0.386375  1
  Si  Si27  1  0.712867  0.967549  0.334706  1
  Si  Si28  1  0.709712  0.533352  0.314983  1
  Si  Si29  1  0.293688  0.030744  0.314457  1
  Si  Si30  1  0.289911  0.461846  0.331658  1
  Si  Si31  1  0.856123  0.755053  0.324020  1
  Si  Si32  1  0.144117  0.248748  0.325978  1
  H  H33  1  0.970299  0.585484  0.471853  1
  H  H34  1  0.024740  0.410638  0.176028  1
  H  H35  1  0.034120  0.084933  0.472137  1
  H  H36  1  0.973817  0.914091  0.175954  1
