# generated using pymatgen
data_Si12H2O25
_symmetry_space_group_name_H-M   'P 1'
_cell_length_a   5.08855878
_cell_length_b   10.83973680
_cell_length_c   51.93393576
_cell_angle_alpha   133.19146784
_cell_angle_beta   90.00000000
_cell_angle_gamma   90.00000000
_symmetry_Int_Tables_number   1
_chemical_formula_structural   Si12H2O25
_chemical_formula_sum   'Si24 H4 O50'
_cell_volume   2088.49927974
_cell_formula_units_Z   2
loop_
 _symmetry_equiv_pos_site_id
 _symmetry_equiv_pos_as_xyz
  1  'x, y, z'
loop_
 _atom_site_type_symbol
 _atom_site_label
 _atom_site_symmetry_multiplicity
 _atom_site_fract_x
 _atom_site_fract_y
 _atom_site_fract_z
 _atom_site_occupancy
  Si  Si1  1  0.743305  0.890048  0.240454  1
  Si  Si2  1  0.243305  0.110661  0.271970  1
  Si  Si3  1  0.262952  0.388719  0.269887  1
  Si  Si4  1  0.743305  0.890048  0.383311  1
  Si  Si5  1  0.743305  0.890048  0.299700  1
  Si  Si6  1  0.243305  0.110662  0.331216  1
  Si  Si7  1  0.243305  0.110661  0.414828  1
  Si  Si8  1  0.762952  0.611991  0.301783  1
  Si  Si9  1  0.262952  0.388719  0.412744  1
  O  O10  1  0.994116  0.999593  0.250500  1
  O  O11  1  0.494116  0.001117  0.250718  1
  O  O12  1  0.743159  0.846751  0.263892  1
  O  O13  1  0.742364  0.728410  0.199867  1
  O  O14  1  0.242364  0.272299  0.228945  1
  O  O15  1  0.242364  0.272299  0.277566  1
  O  O16  1  0.533950  0.480899  0.283056  1
  O  O17  1  0.994116  0.999593  0.393357  1
  O  O18  1  0.494116  0.001117  0.393575  1
  O  O19  1  0.994116  0.999593  0.320952  1
  O  O20  1  0.494116  0.001117  0.321170  1
  O  O21  1  0.743159  0.846751  0.406749  1
  O  O22  1  0.243159  0.153959  0.307779  1
  O  O23  1  0.742364  0.728410  0.342724  1
  O  O24  1  0.742364  0.728410  0.294104  1
  O  O25  1  0.242364  0.272299  0.371803  1
  O  O26  1  0.242364  0.272299  0.420423  1
  O  O27  1  0.533950  0.480899  0.425913  1
  O  O28  1  0.033950  0.519811  0.288615  1
  H  H29  1  0.742364  0.728410  0.182538  1
  H  H30  1  0.242364  0.272299  0.211616  1
  O  O31  1  0.994116  0.999593  0.536215  1
  O  O32  1  0.494116  0.001117  0.536432  1
  O  O33  1  0.994116  0.999593  0.463809  1
  O  O34  1  0.494116  0.001117  0.464027  1
  O  O35  1  0.743159  0.846751  0.549606  1
  O  O36  1  0.243159  0.153959  0.450636  1
  O  O37  1  0.742364  0.728410  0.485582  1
  O  O38  1  0.742364  0.728410  0.436961  1
  O  O39  1  0.242364  0.272299  0.514660  1
  O  O40  1  0.242364  0.272299  0.563280  1
  O  O41  1  0.533950  0.480899  0.568770  1
  O  O42  1  0.033950  0.519811  0.431472  1
  Si  Si43  1  0.743305  0.890048  0.526168  1
  Si  Si44  1  0.743305  0.890048  0.442557  1
  Si  Si45  1  0.243305  0.110662  0.474073  1
  Si  Si46  1  0.243305  0.110661  0.557685  1
  Si  Si47  1  0.762952  0.611991  0.444640  1
  Si  Si48  1  0.262952  0.388719  0.555601  1
  Si  Si49  1  0.743305  0.890048  0.669025  1
  Si  Si50  1  0.743305  0.890048  0.585414  1
  Si  Si51  1  0.243305  0.110662  0.616930  1
  Si  Si52  1  0.243305  0.110661  0.700542  1
  Si  Si53  1  0.762952  0.611991  0.587497  1
  Si  Si54  1  0.262952  0.388719  0.698458  1
  Si  Si55  1  0.743305  0.890048  0.728271  1
  Si  Si56  1  0.243305  0.110662  0.759787  1
  Si  Si57  1  0.762952  0.611991  0.730354  1
  O  O58  1  0.994116  0.999593  0.679072  1
  O  O59  1  0.494116  0.001117  0.679289  1
  O  O60  1  0.994116  0.999593  0.606667  1
  O  O61  1  0.494116  0.001117  0.606884  1
  O  O62  1  0.743159  0.846751  0.692463  1
  O  O63  1  0.243159  0.153959  0.593493  1
  O  O64  1  0.742364  0.728410  0.628439  1
  O  O65  1  0.742364  0.728410  0.579819  1
  O  O66  1  0.242364  0.272299  0.657517  1
  O  O67  1  0.242364  0.272299  0.706137  1
  O  O68  1  0.533950  0.480899  0.711627  1
  O  O69  1  0.033950  0.519811  0.574329  1
  O  O70  1  0.994116  0.999593  0.749524  1
  O  O71  1  0.494116  0.001117  0.749741  1
  O  O72  1  0.243159  0.153959  0.736350  1
  O  O73  1  0.742364  0.728410  0.771296  1
  O  O74  1  0.742364  0.728410  0.722676  1
  O  O75  1  0.242364  0.272299  0.800374  1
  O  O76  1  0.033950  0.519811  0.717186  1
  H  H77  1  0.742364  0.728410  0.788626  1
  H  H78  1  0.242364  0.272299  0.817704  1
