# generated using pymatgen
data_Si24H2O49
_symmetry_space_group_name_H-M   'P 1'
_cell_length_a   6.96337406
_cell_length_b   15.38684673
_cell_length_c   47.54198307
_cell_angle_alpha   96.99200000
_cell_angle_beta   90.00000000
_cell_angle_gamma   90.00000000
_symmetry_Int_Tables_number   1
_chemical_formula_structural   Si24H2O49
_chemical_formula_sum   'Si48 H4 O98'
_cell_volume   5055.97359555
_cell_formula_units_Z   2
loop_
 _symmetry_equiv_pos_site_id
 _symmetry_equiv_pos_as_xyz
  1  'x, y, z'
loop_
 _atom_site_type_symbol
 _atom_site_label
 _atom_site_symmetry_multiplicity
 _atom_site_fract_x
 _atom_site_fract_y
 _atom_site_fract_z
 _atom_site_occupancy
  O  O1  1  0.151311  0.249951  0.124889  1
  O  O2  1  0.848277  0.749951  0.124890  1
  O  O3  1  0.307379  0.202768  0.255964  1
  O  O4  1  0.307381  0.297133  0.173248  1
  O  O5  1  0.692206  0.797133  0.173248  1
  O  O6  1  0.692207  0.702768  0.255964  1
  O  O7  1  0.099204  0.338907  0.261230  1
  O  O8  1  0.099202  0.160996  0.167981  1
  O  O9  1  0.900383  0.660995  0.167981  1
  O  O10  1  0.900384  0.838906  0.261231  1
  O  O11  1  0.952624  0.183008  0.261580  1
  O  O12  1  0.952624  0.316894  0.167631  1
  O  O13  1  0.046962  0.816892  0.167631  1
  O  O14  1  0.046963  0.683007  0.261581  1
  O  O15  1  0.151311  0.249951  0.304324  1
  O  O16  1  0.848277  0.749951  0.304325  1
  O  O17  1  0.883419  0.010864  0.249618  1
  O  O18  1  0.883418  0.489037  0.179594  1
  O  O19  1  0.116169  0.989037  0.179594  1
  O  O20  1  0.116169  0.510864  0.249618  1
  O  O21  1  0.054164  0.891330  0.217490  1
  O  O22  1  0.054163  0.608571  0.211722  1
  O  O23  1  0.945422  0.108571  0.211722  1
  O  O24  1  0.945424  0.391331  0.217490  1
  O  O25  1  0.696475  0.888955  0.221080  1
  O  O26  1  0.696473  0.610946  0.208132  1
  O  O27  1  0.303113  0.110946  0.208131  1
  O  O28  1  0.303114  0.388955  0.221080  1
  O  O29  1  0.371774  0.623742  0.238595  1
  O  O30  1  0.371774  0.876157  0.190617  1
  O  O31  1  0.627813  0.376159  0.190617  1
  O  O32  1  0.627812  0.123743  0.238594  1
  O  O33  1  0.489820  0.249951  0.214606  1
  O  O34  1  0.509767  0.749950  0.214606  1
  O  O35  1  0.307379  0.202768  0.435398  1
  O  O36  1  0.307381  0.297133  0.352683  1
  O  O37  1  0.692206  0.797133  0.352683  1
  O  O38  1  0.692207  0.702768  0.435399  1
  O  O39  1  0.099204  0.338907  0.440665  1
  O  O40  1  0.099202  0.160996  0.347416  1
  O  O41  1  0.900383  0.660995  0.347416  1
  O  O42  1  0.900384  0.838906  0.440666  1
  O  O43  1  0.952624  0.183008  0.441015  1
  O  O44  1  0.952624  0.316894  0.347066  1
  O  O45  1  0.046962  0.816892  0.347066  1
  O  O46  1  0.046963  0.683007  0.441016  1
  O  O47  1  0.151311  0.249951  0.483759  1
  O  O48  1  0.848277  0.749951  0.483760  1
  O  O49  1  0.883419  0.010864  0.429053  1
  O  O50  1  0.883418  0.489037  0.359029  1
  O  O51  1  0.116169  0.989037  0.359028  1
  O  O52  1  0.116169  0.510864  0.429053  1
  O  O53  1  0.054164  0.891330  0.396925  1
  O  O54  1  0.054163  0.608571  0.391157  1
  O  O55  1  0.945422  0.108571  0.391157  1
  O  O56  1  0.945424  0.391331  0.396925  1
  O  O57  1  0.696475  0.888955  0.400515  1
  O  O58  1  0.696473  0.610946  0.387567  1
  O  O59  1  0.303113  0.110946  0.387566  1
  O  O60  1  0.303114  0.388955  0.400515  1
  O  O61  1  0.371774  0.623742  0.418029  1
  O  O62  1  0.371774  0.876157  0.370052  1
  O  O63  1  0.627813  0.376159  0.370052  1
  O  O64  1  0.627812  0.123743  0.418029  1
  O  O65  1  0.489820  0.249951  0.394040  1
  O  O66  1  0.509767  0.749950  0.394041  1
  O  O67  1  0.307379  0.202768  0.614833  1
  O  O68  1  0.307381  0.297133  0.532118  1
  O  O69  1  0.692206  0.797133  0.532118  1
  O  O70  1  0.692207  0.702768  0.614834  1
  O  O71  1  0.099204  0.338907  0.620100  1
  O  O72  1  0.099202  0.160996  0.526850  1
  O  O73  1  0.900383  0.660995  0.526851  1
  O  O74  1  0.900384  0.838906  0.620101  1
  O  O75  1  0.952624  0.183008  0.620450  1
  O  O76  1  0.952624  0.316894  0.526501  1
  O  O77  1  0.046962  0.816892  0.526501  1
  O  O78  1  0.046963  0.683007  0.620451  1
  O  O79  1  0.151311  0.249951  0.663194  1
  O  O80  1  0.848277  0.749951  0.663195  1
  O  O81  1  0.883419  0.010864  0.608488  1
  O  O82  1  0.883418  0.489037  0.538463  1
  O  O83  1  0.116169  0.989037  0.538463  1
  O  O84  1  0.116169  0.510864  0.608488  1
  O  O85  1  0.054164  0.891330  0.576360  1
  O  O86  1  0.054163  0.608571  0.570592  1
  O  O87  1  0.945422  0.108571  0.570591  1
  O  O88  1  0.945424  0.391331  0.576360  1
  O  O89  1  0.696475  0.888955  0.579950  1
  O  O90  1  0.696473  0.610946  0.567002  1
  O  O91  1  0.303113  0.110946  0.567001  1
  O  O92  1  0.303114  0.388955  0.579950  1
  O  O93  1  0.371774  0.623742  0.597464  1
  O  O94  1  0.371774  0.876157  0.549487  1
  O  O95  1  0.627813  0.376159  0.549487  1
  O  O96  1  0.627812  0.123743  0.597464  1
  O  O97  1  0.489820  0.249951  0.573475  1
  O  O98  1  0.509767  0.749950  0.573476  1
  Si  Si99  1  0.125395  0.245628  0.271611  1
  Si  Si100  1  0.125395  0.254272  0.157598  1
  Si  Si101  1  0.874190  0.754272  0.157599  1
  Si  Si102  1  0.874193  0.745628  0.271612  1
  Si  Si103  1  0.884537  0.908472  0.239450  1
  Si  Si104  1  0.884536  0.591427  0.189762  1
  Si  Si105  1  0.115050  0.091423  0.189762  1
  Si  Si106  1  0.115051  0.408470  0.239449  1
  Si  Si107  1  0.150108  0.607477  0.241751  1
  Si  Si108  1  0.150111  0.892431  0.187462  1
  Si  Si109  1  0.849477  0.392428  0.187461  1
  Si  Si110  1  0.849479  0.107475  0.241750  1
  Si  Si111  1  0.437009  0.332064  0.199335  1
  Si  Si112  1  0.437012  0.167837  0.229876  1
  Si  Si113  1  0.562577  0.667838  0.229877  1
  Si  Si114  1  0.562578  0.832064  0.199336  1
  Si  Si115  1  0.125395  0.245628  0.451046  1
  Si  Si116  1  0.125395  0.254272  0.337033  1
  Si  Si117  1  0.874190  0.754272  0.337033  1
  Si  Si118  1  0.874193  0.745628  0.451047  1
  Si  Si119  1  0.884537  0.908472  0.418885  1
  Si  Si120  1  0.884536  0.591427  0.369197  1
  Si  Si121  1  0.115050  0.091423  0.369197  1
  Si  Si122  1  0.115051  0.408470  0.418884  1
  Si  Si123  1  0.150108  0.607477  0.421186  1
  Si  Si124  1  0.150111  0.892431  0.366897  1
  Si  Si125  1  0.849477  0.392428  0.366896  1
  Si  Si126  1  0.849479  0.107475  0.421185  1
  Si  Si127  1  0.437009  0.332064  0.378770  1
  Si  Si128  1  0.437012  0.167837  0.409311  1
  Si  Si129  1  0.562577  0.667838  0.409312  1
  Si  Si130  1  0.562578  0.832064  0.378771  1
  Si  Si131  1  0.125395  0.245628  0.630481  1
  Si  Si132  1  0.125395  0.254272  0.516468  1
  Si  Si133  1  0.874190  0.754272  0.516468  1
  Si  Si134  1  0.874193  0.745628  0.630481  1
  Si  Si135  1  0.884537  0.908472  0.598320  1
  Si  Si136  1  0.884536  0.591427  0.548632  1
  Si  Si137  1  0.115050  0.091423  0.548632  1
  Si  Si138  1  0.115051  0.408470  0.598319  1
  Si  Si139  1  0.150108  0.607477  0.600621  1
  Si  Si140  1  0.150111  0.892431  0.546332  1
  Si  Si141  1  0.849477  0.392428  0.546331  1
  Si  Si142  1  0.849479  0.107475  0.600620  1
  Si  Si143  1  0.437009  0.332064  0.558205  1
  Si  Si144  1  0.437012  0.167837  0.588746  1
  Si  Si145  1  0.562577  0.667838  0.588747  1
  Si  Si146  1  0.562578  0.832064  0.558206  1
  H  H147  1  0.151311  0.249951  0.105958  1
  H  H148  1  0.848277  0.749951  0.105959  1
  H  H149  1  0.151311  0.249951  0.682124  1
  H  H150  1  0.848277  0.749951  0.682125  1
