# generated using pymatgen
data_Si13(HO7)4
_symmetry_space_group_name_H-M   'P 1'
_cell_length_a   19.80640796
_cell_length_b   19.84885801
_cell_length_c   34.57442773
_cell_angle_alpha   90.00000000
_cell_angle_beta   90.00000000
_cell_angle_gamma   90.00000000
_symmetry_Int_Tables_number   1
_chemical_formula_structural   Si13(HO7)4
_chemical_formula_sum   'Si52 H16 O112'
_cell_volume   13592.4030993
_cell_formula_units_Z   4
loop_
 _symmetry_equiv_pos_site_id
 _symmetry_equiv_pos_as_xyz
  1  'x, y, z'
loop_
 _atom_site_type_symbol
 _atom_site_label
 _atom_site_symmetry_multiplicity
 _atom_site_fract_x
 _atom_site_fract_y
 _atom_site_fract_z
 _atom_site_occupancy
  O  O1  1  0.488365  0.019083  0.285205  1
  O  O2  1  0.376780  0.012727  0.365485  1
  O  O3  1  0.441599  0.131633  0.304655  1
  O  O4  1  0.410663  0.056350  0.431526  1
  O  O5  1  0.366582  0.027576  0.295807  1
  O  O6  1  0.395373  0.134140  0.373335  1
  O  O7  1  0.071415  0.288580  0.315178  1
  O  O8  1  0.428982  0.071286  0.233755  1
  O  O9  1  0.288023  0.071751  0.397994  1
  O  O10  1  0.000000  0.177987  0.304760  1
  O  O11  1  0.410859  0.000000  0.170646  1
  O  O12  1  0.079260  0.061477  0.392458  1
  O  O13  1  0.179063  0.090521  0.356726  1
  O  O14  1  0.080227  0.181681  0.359342  1
  O  O15  1  0.003474  0.078563  0.251316  1
  O  O16  1  0.475856  0.233096  0.353081  1
  O  O17  1  0.493117  0.023376  0.490394  1
  O  O18  1  0.063301  0.079971  0.320857  1
  O  O19  1  0.123097  0.513833  0.365252  1
  O  O20  1  0.019473  0.379093  0.348521  1
  O  O21  1  0.011373  0.520210  0.284820  1
  O  O22  1  0.089108  0.557764  0.431218  1
  O  O23  1  0.134988  0.408874  0.323139  1
  O  O24  1  0.058334  0.632953  0.304434  1
  O  O25  1  0.104490  0.635411  0.373039  1
  O  O26  1  0.031635  0.399523  0.278590  1
  O  O27  1  0.133124  0.528343  0.295667  1
  O  O28  1  0.211998  0.572470  0.397781  1
  O  O29  1  0.070920  0.571439  0.233468  1
  O  O30  1  0.428069  0.428750  0.520759  1
  O  O31  1  0.320960  0.590498  0.356713  1
  O  O32  1  0.090464  0.499677  0.171324  1
  O  O33  1  0.408730  0.499569  0.458555  1
  O  O34  1  0.319144  0.496103  0.401199  1
  O  O35  1  0.004720  0.421025  0.539268  1
  O  O36  1  0.496081  0.579419  0.251988  1
  O  O37  1  0.233235  0.496709  0.342438  1
  O  O38  1  0.003355  0.522728  0.489938  1
  O  O39  1  0.495089  0.477184  0.202692  1
  O  O40  1  0.420492  0.561416  0.392863  1
  O  O41  1  0.436492  0.579707  0.321417  1
  O  O42  1  0.440131  0.436356  0.401160  1
  O  O43  1  0.481931  0.877296  0.347282  1
  O  O44  1  0.364985  0.908261  0.323226  1
  O  O45  1  0.466993  0.898904  0.277989  1
  O  O46  1  0.071882  0.928572  0.521373  1
  O  O47  1  0.428061  0.788809  0.314358  1
  O  O48  1  0.180556  0.996503  0.401558  1
  O  O49  1  0.420639  0.681258  0.358298  1
  O  O50  1  0.492397  0.919875  0.537700  1
  O  O51  1  0.266421  0.996167  0.342686  1
  O  O52  1  0.024907  0.735021  0.352767  1
  O  O53  1  0.003956  0.976145  0.201655  1
  O  O54  1  0.060769  0.936754  0.401389  1
  O  O55  1  0.499435  0.679226  0.304611  1
  O  O56  1  0.089051  0.000000  0.458528  1
  O  O57  1  0.516521  0.122695  0.364169  1
  O  O58  1  0.631771  0.088345  0.388709  1
  O  O59  1  0.530252  0.103045  0.433654  1
  O  O60  1  0.573179  0.210522  0.397291  1
  O  O61  1  0.927801  0.072409  0.189630  1
  O  O62  1  0.501763  0.319961  0.406836  1
  O  O63  1  0.910149  0.001235  0.252274  1
  O  O64  1  0.818626  0.003561  0.309779  1
  O  O65  1  0.578981  0.318248  0.353210  1
  O  O66  1  0.504618  0.079483  0.171826  1
  O  O67  1  0.734129  0.004162  0.369084  1
  O  O68  1  0.977450  0.265493  0.358937  1
  O  O69  1  0.994516  0.023198  0.508133  1
  O  O70  1  0.937918  0.064356  0.310218  1
  O  O71  1  0.987173  0.482421  0.425458  1
  O  O72  1  0.876481  0.485814  0.345376  1
  O  O73  1  0.983123  0.623694  0.363627  1
  O  O74  1  0.942704  0.368546  0.406396  1
  O  O75  1  0.910436  0.443372  0.279120  1
  O  O76  1  0.867729  0.589780  0.387772  1
  O  O77  1  0.865327  0.470786  0.414988  1
  O  O78  1  0.898322  0.365097  0.337167  1
  O  O79  1  0.968480  0.603131  0.432713  1
  O  O80  1  0.928605  0.428248  0.477378  1
  O  O81  1  0.571664  0.572973  0.189912  1
  O  O82  1  0.788519  0.427001  0.313509  1
  O  O83  1  0.908922  0.499262  0.539431  1
  O  O84  1  0.589058  0.501814  0.252783  1
  O  O85  1  0.679283  0.409728  0.354682  1
  O  O86  1  0.681063  0.503953  0.309934  1
  O  O87  1  0.995211  0.578809  0.171127  1
  O  O88  1  0.504003  0.420732  0.458924  1
  O  O89  1  0.765892  0.504545  0.368945  1
  O  O90  1  0.994921  0.476422  0.220073  1
  O  O91  1  0.503179  0.522879  0.508163  1
  O  O92  1  0.565532  0.420773  0.390906  1
  O  O93  1  0.561859  0.565226  0.310829  1
  O  O94  1  0.578680  0.439955  0.319307  1
  O  O95  1  0.623532  0.985033  0.345661  1
  O  O96  1  0.514447  0.982272  0.426261  1
  O  O97  1  0.589137  0.941876  0.279593  1
  O  O98  1  0.557176  0.867624  0.406585  1
  O  O99  1  0.603259  0.864195  0.337906  1
  O  O100  1  0.635488  0.968558  0.415027  1
  O  O101  1  0.711558  0.926564  0.313630  1
  O  O102  1  0.928754  0.711922  0.396422  1
  O  O103  1  0.570489  0.927926  0.476997  1
  O  O104  1  0.821149  0.909728  0.354738  1
  O  O105  1  0.000000  0.821395  0.406854  1
  O  O106  1  0.587515  0.000000  0.540123  1
  O  O107  1  0.995727  0.920859  0.459347  1
  O  O108  1  0.921978  0.819446  0.352902  1
  O  O109  1  0.505170  0.977070  0.220464  1
  O  O110  1  0.523093  0.765829  0.358578  1
  O  O111  1  0.920917  0.939483  0.318866  1
  O  O112  1  0.936079  0.920489  0.390504  1
  Si  Si113  1  0.428049  0.068203  0.279104  1
  Si  Si114  1  0.366142  0.071745  0.395425  1
  Si  Si115  1  0.032711  0.227799  0.335434  1
  Si  Si116  1  0.463381  0.032168  0.199559  1
  Si  Si117  1  0.229567  0.038199  0.375029  1
  Si  Si118  1  0.453421  0.159340  0.346281  1
  Si  Si119  1  0.483075  0.044645  0.447818  1
  Si  Si120  1  0.101497  0.106991  0.357579  1
  Si  Si121  1  0.001774  0.100712  0.294807  1
  Si  Si122  1  0.133893  0.573013  0.395098  1
  Si  Si123  1  0.070276  0.368778  0.314670  1
  Si  Si124  1  0.071830  0.569295  0.279019  1
  Si  Si125  1  0.270254  0.538496  0.374834  1
  Si  Si126  1  0.037151  0.531096  0.198851  1
  Si  Si127  1  0.461437  0.467690  0.486028  1
  Si  Si128  1  0.016151  0.544987  0.446950  1
  Si  Si129  1  0.158958  0.481399  0.328981  1
  Si  Si130  1  0.046264  0.660886  0.346066  1
  Si  Si131  1  0.394856  0.496792  0.414625  1
  Si  Si132  1  0.497856  0.601726  0.295655  1
  Si  Si133  1  0.398106  0.605994  0.357961  1
  Si  Si134  1  0.428802  0.868089  0.313675  1
  Si  Si135  1  0.036698  0.968090  0.487338  1
  Si  Si136  1  0.467691  0.729679  0.334543  1
  Si  Si137  1  0.340673  0.980686  0.329171  1
  Si  Si138  1  0.105082  0.997521  0.414399  1
  Si  Si139  1  0.568816  0.132660  0.397917  1
  Si  Si140  1  0.532707  0.267820  0.376995  1
  Si  Si141  1  0.962038  0.032478  0.222961  1
  Si  Si142  1  0.660202  0.016138  0.381842  1
  Si  Si143  1  0.894826  0.003626  0.296729  1
  Si  Si144  1  0.927866  0.432203  0.431997  1
  Si  Si145  1  0.866616  0.426963  0.315453  1
  Si  Si146  1  0.930661  0.633314  0.397144  1
  Si  Si147  1  0.961764  0.467417  0.512068  1
  Si  Si148  1  0.537028  0.532974  0.223049  1
  Si  Si149  1  0.730901  0.462169  0.336710  1
  Si  Si150  1  0.957218  0.340383  0.364586  1
  Si  Si151  1  0.983331  0.457236  0.263060  1
  Si  Si152  1  0.839825  0.517313  0.381434  1
  Si  Si153  1  0.601406  0.394246  0.354023  1
  Si  Si154  1  0.604701  0.504338  0.297335  1
  Si  Si155  1  0.504606  0.397599  0.415630  1
  Si  Si156  1  0.633506  0.926038  0.315818  1
  Si  Si157  1  0.573319  0.930253  0.431703  1
  Si  Si158  1  0.769065  0.961819  0.336827  1
  Si  Si159  1  0.969080  0.770799  0.376627  1
  Si  Si160  1  0.534186  0.967326  0.511256  1
  Si  Si161  1  0.516383  0.956164  0.263357  1
  Si  Si162  1  0.544901  0.839913  0.365080  1
  Si  Si163  1  0.996920  0.898342  0.416077  1
  Si  Si164  1  0.898670  0.894561  0.353686  1
  H  H165  1  0.410859  0.000000  0.144616  1
  H  H166  1  0.428069  0.428750  0.546790  1
  H  H167  1  0.090464  0.499677  0.145293  1
  H  H168  1  0.004720  0.421025  0.565299  1
  H  H169  1  0.495089  0.477184  0.176661  1
  H  H170  1  0.071882  0.928572  0.547404  1
  H  H171  1  0.492397  0.919875  0.563731  1
  H  H172  1  0.003956  0.976145  0.175624  1
  H  H173  1  0.927801  0.072409  0.163600  1
  H  H174  1  0.504618  0.079483  0.145796  1
  H  H175  1  0.994516  0.023198  0.534164  1
  H  H176  1  0.571664  0.572973  0.163882  1
  H  H177  1  0.908922  0.499262  0.565462  1
  H  H178  1  0.995211  0.578809  0.145096  1
  H  H179  1  0.503179  0.522879  0.534194  1
  H  H180  1  0.587515  0.000000  0.566153  1
