# generated using pymatgen
data_Si17(HO9)4
_symmetry_space_group_name_H-M   'P 1'
_cell_length_a   21.11999289
_cell_length_b   21.12704298
_cell_length_c   72.06631124
_cell_angle_alpha   134.96125367
_cell_angle_beta   134.98035700
_cell_angle_gamma   60.03370721
_symmetry_Int_Tables_number   1
_chemical_formula_structural   Si17(HO9)4
_chemical_formula_sum   'Si102 H24 O216'
_cell_volume   16094.4861236
_cell_formula_units_Z   6
loop_
 _symmetry_equiv_pos_site_id
 _symmetry_equiv_pos_as_xyz
  1  'x, y, z'
loop_
 _atom_site_type_symbol
 _atom_site_label
 _atom_site_symmetry_multiplicity
 _atom_site_fract_x
 _atom_site_fract_y
 _atom_site_fract_z
 _atom_site_occupancy
  O  O1  1  0.407687  0.028135  0.237260  1
  O  O2  1  0.752899  0.017636  0.245349  1
  O  O3  1  0.254576  0.017976  0.212932  1
  O  O4  1  0.921333  0.253271  0.205487  1
  O  O5  1  0.421287  0.253661  0.212721  1
  O  O6  1  0.329123  0.180040  0.257401  1
  O  O7  1  0.399642  0.329382  0.257336  1
  O  O8  1  0.932832  0.302261  0.149541  1
  O  O9  1  0.900617  0.331195  0.183792  1
  O  O10  1  0.090541  0.529430  0.275183  1
  O  O11  1  0.873301  0.408860  0.225231  1
  O  O12  1  0.376146  0.408860  0.237441  1
  O  O13  1  0.027154  0.377164  0.237861  1
  O  O14  1  0.528229  0.376388  0.275796  1
  O  O15  1  0.018248  0.421100  0.212825  1
  O  O16  1  0.179815  0.399730  0.257547  1
  O  O17  1  0.850112  0.435578  0.169380  1
  O  O18  1  0.972704  0.877073  0.264344  1
  O  O19  1  0.471950  0.875254  0.225656  1
  O  O20  1  0.078447  0.754150  0.245252  1
  O  O21  1  0.578296  0.753655  0.237972  1
  O  O22  1  0.482966  0.921981  0.205618  1
  O  O23  1  0.600057  0.832058  0.225295  1
  O  O24  1  0.820263  0.901124  0.253973  1
  O  O25  1  0.320884  0.899754  0.182979  1
  O  O26  1  0.669123  0.679183  0.162029  1
  O  O27  1  0.152035  0.932655  0.149742  1
  O  O28  1  0.651678  0.936013  0.232028  1
  O  O29  1  0.695935  0.848168  0.195995  1
  O  O30  1  0.197033  0.848369  0.168151  1
  O  O31  1  0.567597  0.804050  0.177666  1
  O  O32  1  0.874990  0.092270  0.264071  1
  O  O33  1  0.375850  0.093567  0.275809  1
  O  O34  1  0.019013  0.076049  0.244599  1
  O  O35  1  0.831443  0.318998  0.224468  1
  O  O36  1  0.680524  0.098837  0.162716  1
  O  O37  1  0.331042  0.320630  0.183540  1
  O  O38  1  0.901657  0.167747  0.253562  1
  O  O39  1  0.302754  0.151708  0.149865  1
  O  O40  1  0.934386  0.194734  0.230933  1
  O  O41  1  0.803292  0.150512  0.177194  1
  O  O42  1  0.434626  0.196430  0.168784  1
  O  O43  1  0.849282  0.064829  0.195709  1
  O  O44  1  0.409738  0.471311  0.225623  1
  O  O45  1  0.753411  0.481669  0.237837  1
  O  O46  1  0.253644  0.483121  0.205452  1
  O  O47  1  0.982032  0.578627  0.132578  1
  O  O48  1  0.481952  0.579427  0.238020  1
  O  O49  1  0.320227  0.599678  0.225043  1
  O  O50  1  0.151482  0.568008  0.177402  1
  O  O51  1  0.651340  0.567745  0.258848  1
  O  O52  1  0.696256  0.651658  0.258901  1
  O  O53  1  0.196631  0.651165  0.231614  1
  O  O54  1  0.091680  0.972260  0.263982  1
  O  O55  1  0.578690  0.746252  0.132952  1
  O  O56  1  0.747125  0.981483  0.132808  1
  O  O57  1  0.100041  0.671615  0.162564  1
  O  O58  1  0.169902  0.819854  0.254011  1
  O  O59  1  0.067170  0.696333  0.195782  1
  O  O60  1  0.563813  0.697804  0.258379  1
  O  O61  1  0.907502  0.028177  0.289177  1
  O  O62  1  0.407687  0.028135  0.444416  1
  O  O63  1  0.752899  0.017636  0.452505  1
  O  O64  1  0.254576  0.017976  0.420088  1
  O  O65  1  0.921333  0.253271  0.412643  1
  O  O66  1  0.421287  0.253661  0.419877  1
  O  O67  1  0.828399  0.179130  0.299004  1
  O  O68  1  0.329123  0.180040  0.464557  1
  O  O69  1  0.399642  0.329382  0.464492  1
  O  O70  1  0.932832  0.302261  0.356697  1
  O  O71  1  0.433053  0.302721  0.293620  1
  O  O72  1  0.900617  0.331195  0.390948  1
  O  O73  1  0.090541  0.529430  0.482339  1
  O  O74  1  0.873301  0.408860  0.432387  1
  O  O75  1  0.590628  0.529233  0.327317  1
  O  O76  1  0.376146  0.408860  0.444597  1
  O  O77  1  0.027154  0.377164  0.445017  1
  O  O78  1  0.528229  0.376388  0.482952  1
  O  O79  1  0.018248  0.421100  0.419981  1
  O  O80  1  0.517531  0.421534  0.314730  1
  O  O81  1  0.244749  0.516816  0.314193  1
  O  O82  1  0.746943  0.517063  0.347551  1
  O  O83  1  0.179815  0.399730  0.464703  1
  O  O84  1  0.681179  0.402446  0.329104  1
  O  O85  1  0.303014  0.347469  0.293643  1
  O  O86  1  0.804422  0.347261  0.321977  1
  O  O87  1  0.850112  0.435578  0.376536  1
  O  O88  1  0.347529  0.432558  0.293514  1
  O  O89  1  0.972704  0.877073  0.471500  1
  O  O90  1  0.471950  0.875254  0.432812  1
  O  O91  1  0.125779  0.909898  0.289875  1
  O  O92  1  0.623160  0.908661  0.277612  1
  O  O93  1  0.078447  0.754150  0.452408  1
  O  O94  1  0.578296  0.753655  0.445128  1
  O  O95  1  0.982012  0.921468  0.307629  1
  O  O96  1  0.482966  0.921981  0.412774  1
  O  O97  1  0.098596  0.830477  0.298981  1
  O  O98  1  0.600057  0.832058  0.432451  1
  O  O99  1  0.820263  0.901124  0.461129  1
  O  O100  1  0.167865  0.679739  0.327704  1
  O  O101  1  0.320884  0.899754  0.390135  1
  O  O102  1  0.669123  0.679183  0.369185  1
  O  O103  1  0.152035  0.932655  0.356899  1
  O  O104  1  0.651678  0.936013  0.439184  1
  O  O105  1  0.695935  0.848168  0.403151  1
  O  O106  1  0.063912  0.802992  0.321076  1
  O  O107  1  0.197033  0.848369  0.375307  1
  O  O108  1  0.567597  0.804050  0.384822  1
  O  O109  1  0.874990  0.092270  0.471227  1
  O  O110  1  0.375850  0.093567  0.482965  1
  O  O111  1  0.026963  0.124230  0.288516  1
  O  O112  1  0.528243  0.124528  0.327204  1
  O  O113  1  0.019013  0.076049  0.451755  1
  O  O114  1  0.517953  0.078801  0.347734  1
  O  O115  1  0.921178  0.245022  0.307296  1
  O  O116  1  0.421749  0.246229  0.314808  1
  O  O117  1  0.179582  0.099056  0.298945  1
  O  O118  1  0.831443  0.318998  0.431624  1
  O  O119  1  0.680524  0.098837  0.369872  1
  O  O120  1  0.331042  0.320630  0.390696  1
  O  O121  1  0.901657  0.167747  0.460718  1
  O  O122  1  0.400964  0.169635  0.328374  1
  O  O123  1  0.302754  0.151708  0.357021  1
  O  O124  1  0.934386  0.194734  0.438089  1
  O  O125  1  0.803292  0.150512  0.384350  1
  O  O126  1  0.434626  0.196430  0.375940  1
  O  O127  1  0.849282  0.064829  0.402865  1
  O  O128  1  0.348850  0.065372  0.321594  1
  O  O129  1  0.970885  0.626053  0.315630  1
  O  O130  1  0.473186  0.623603  0.277567  1
  O  O131  1  0.907217  0.472607  0.276950  1
  O  O132  1  0.122882  0.592388  0.326644  1
  O  O133  1  0.409738  0.471311  0.432779  1
  O  O134  1  0.624715  0.591670  0.315623  1
  O  O135  1  0.753411  0.481669  0.444993  1
  O  O136  1  0.253644  0.483121  0.412608  1
  O  O137  1  0.982032  0.578627  0.339734  1
  O  O138  1  0.481952  0.579427  0.445176  1
  O  O139  1  0.819518  0.600015  0.295204  1
  O  O140  1  0.320227  0.599678  0.432199  1
  O  O141  1  0.151482  0.568008  0.384558  1
  O  O142  1  0.651340  0.567745  0.466004  1
  O  O143  1  0.696256  0.651658  0.466057  1
  O  O144  1  0.196631  0.651165  0.438770  1
  O  O145  1  0.091680  0.972260  0.471138  1
  O  O146  1  0.591208  0.971710  0.315769  1
  O  O147  1  0.078068  0.747605  0.347475  1
  O  O148  1  0.578690  0.746252  0.340108  1
  O  O149  1  0.246652  0.982825  0.307792  1
  O  O150  1  0.747125  0.981483  0.339964  1
  O  O151  1  0.100041  0.671615  0.369720  1
  O  O152  1  0.598718  0.670348  0.294938  1
  O  O153  1  0.169902  0.819854  0.461167  1
  O  O154  1  0.668184  0.820713  0.294912  1
  O  O155  1  0.067170  0.696333  0.402938  1
  O  O156  1  0.563813  0.697804  0.465535  1
  O  O157  1  0.907502  0.028177  0.496333  1
  O  O158  1  0.254576  0.017976  0.627244  1
  O  O159  1  0.421287  0.253661  0.627033  1
  O  O160  1  0.828399  0.179130  0.506160  1
  O  O161  1  0.932832  0.302261  0.563853  1
  O  O162  1  0.433053  0.302721  0.500776  1
  O  O163  1  0.900617  0.331195  0.598104  1
  O  O164  1  0.590628  0.529233  0.534473  1
  O  O165  1  0.018248  0.421100  0.627137  1
  O  O166  1  0.517531  0.421534  0.521886  1
  O  O167  1  0.244749  0.516816  0.521349  1
  O  O168  1  0.746943  0.517063  0.554707  1
  O  O169  1  0.681179  0.402446  0.536260  1
  O  O170  1  0.303014  0.347469  0.500799  1
  O  O171  1  0.804422  0.347261  0.529133  1
  O  O172  1  0.850112  0.435578  0.583692  1
  O  O173  1  0.347529  0.432558  0.500670  1
  O  O174  1  0.125779  0.909898  0.497031  1
  O  O175  1  0.623160  0.908661  0.484768  1
  O  O176  1  0.982012  0.921468  0.514785  1
  O  O177  1  0.098596  0.830477  0.506137  1
  O  O178  1  0.167865  0.679739  0.534860  1
  O  O179  1  0.320884  0.899754  0.597291  1
  O  O180  1  0.669123  0.679183  0.576341  1
  O  O181  1  0.152035  0.932655  0.564055  1
  O  O182  1  0.695935  0.848168  0.610307  1
  O  O183  1  0.063912  0.802992  0.528232  1
  O  O184  1  0.197033  0.848369  0.582463  1
  O  O185  1  0.567597  0.804050  0.591978  1
  O  O186  1  0.026963  0.124230  0.495672  1
  O  O187  1  0.528243  0.124528  0.534360  1
  O  O188  1  0.517953  0.078801  0.554890  1
  O  O189  1  0.921178  0.245022  0.514452  1
  O  O190  1  0.421749  0.246229  0.521964  1
  O  O191  1  0.179582  0.099056  0.506101  1
  O  O192  1  0.680524  0.098837  0.577028  1
  O  O193  1  0.331042  0.320630  0.597852  1
  O  O194  1  0.400964  0.169635  0.535530  1
  O  O195  1  0.302754  0.151708  0.564177  1
  O  O196  1  0.803292  0.150512  0.591506  1
  O  O197  1  0.434626  0.196430  0.583096  1
  O  O198  1  0.849282  0.064829  0.610021  1
  O  O199  1  0.348850  0.065372  0.528750  1
  O  O200  1  0.970885  0.626053  0.522786  1
  O  O201  1  0.473186  0.623603  0.484723  1
  O  O202  1  0.907217  0.472607  0.484106  1
  O  O203  1  0.122882  0.592388  0.533800  1
  O  O204  1  0.624715  0.591670  0.522779  1
  O  O205  1  0.982032  0.578627  0.546890  1
  O  O206  1  0.819518  0.600015  0.502360  1
  O  O207  1  0.151482  0.568008  0.591714  1
  O  O208  1  0.591208  0.971710  0.522925  1
  O  O209  1  0.078068  0.747605  0.554631  1
  O  O210  1  0.578690  0.746252  0.547264  1
  O  O211  1  0.246652  0.982825  0.514948  1
  O  O212  1  0.747125  0.981483  0.547120  1
  O  O213  1  0.100041  0.671615  0.576876  1
  O  O214  1  0.598718  0.670348  0.502094  1
  O  O215  1  0.668184  0.820713  0.502068  1
  O  O216  1  0.067170  0.696333  0.610094  1
  Si  Si217  1  0.836075  0.081200  0.273733  1
  Si  Si218  1  0.336877  0.082247  0.245399  1
  Si  Si219  1  0.082015  0.432879  0.245852  1
  Si  Si220  1  0.930262  0.337573  0.212060  1
  Si  Si221  1  0.431600  0.337351  0.245285  1
  Si  Si222  1  0.927371  0.374023  0.179071  1
  Si  Si223  1  0.069462  0.838279  0.273690  1
  Si  Si224  1  0.568283  0.837052  0.240308  1
  Si  Si225  1  0.418971  0.931418  0.211505  1
  Si  Si226  1  0.573917  0.875016  0.209608  1
  Si  Si227  1  0.727528  0.927802  0.231556  1
  Si  Si228  1  0.231316  0.927862  0.179419  1
  Si  Si229  1  0.626350  0.770630  0.166436  1
  Si  Si230  1  0.079080  0.068299  0.272829  1
  Si  Si231  1  0.874143  0.227377  0.208868  1
  Si  Si232  1  0.769363  0.069938  0.165812  1
  Si  Si233  1  0.373183  0.227003  0.178439  1
  Si  Si234  1  0.930113  0.124217  0.231536  1
  Si  Si235  1  0.836368  0.418400  0.239475  1
  Si  Si236  1  0.337938  0.421365  0.211986  1
  Si  Si237  1  0.419793  0.567607  0.240126  1
  Si  Si238  1  0.071966  0.627317  0.166122  1
  Si  Si239  1  0.571627  0.628299  0.261412  1
  Si  Si240  1  0.730050  0.571916  0.261663  1
  Si  Si241  1  0.227521  0.573774  0.209270  1
  Si  Si242  1  0.127076  0.727275  0.231266  1
  Si  Si243  1  0.624848  0.728235  0.261176  1
  Si  Si244  1  0.373298  0.269504  0.290923  1
  Si  Si245  1  0.836075  0.081200  0.480889  1
  Si  Si246  1  0.336877  0.082247  0.452555  1
  Si  Si247  1  0.873169  0.268149  0.320830  1
  Si  Si248  1  0.082015  0.432879  0.453008  1
  Si  Si249  1  0.581375  0.433391  0.313296  1
  Si  Si250  1  0.161506  0.579639  0.311939  1
  Si  Si251  1  0.930262  0.337573  0.419216  1
  Si  Si252  1  0.662577  0.578811  0.340922  1
  Si  Si253  1  0.431600  0.337351  0.452441  1
  Si  Si254  1  0.269684  0.427087  0.290833  1
  Si  Si255  1  0.773897  0.427904  0.344732  1
  Si  Si256  1  0.927371  0.374023  0.386227  1
  Si  Si257  1  0.427413  0.372838  0.290776  1
  Si  Si258  1  0.069462  0.838279  0.480846  1
  Si  Si259  1  0.568283  0.837052  0.447464  1
  Si  Si260  1  0.919763  0.931804  0.279623  1
  Si  Si261  1  0.418971  0.931418  0.418661  1
  Si  Si262  1  0.071629  0.872788  0.321386  1
  Si  Si263  1  0.573917  0.875016  0.416764  1
  Si  Si264  1  0.727528  0.927802  0.438712  1
  Si  Si265  1  0.125054  0.772268  0.343480  1
  Si  Si266  1  0.231316  0.927862  0.386575  1
  Si  Si267  1  0.626350  0.770630  0.373592  1
  Si  Si268  1  0.079080  0.068299  0.479985  1
  Si  Si269  1  0.582332  0.067803  0.341440  1
  Si  Si270  1  0.931013  0.162642  0.279245  1
  Si  Si271  1  0.432077  0.163974  0.312999  1
  Si  Si272  1  0.272984  0.073538  0.322049  1
  Si  Si273  1  0.874143  0.227377  0.416024  1
  Si  Si274  1  0.769363  0.069938  0.372968  1
  Si  Si275  1  0.373183  0.227003  0.385595  1
  Si  Si276  1  0.930113  0.124217  0.438692  1
  Si  Si277  1  0.426656  0.126474  0.344104  1
  Si  Si278  1  0.836368  0.418400  0.446631  1
  Si  Si279  1  0.067754  0.664450  0.341246  1
  Si  Si280  1  0.337938  0.421365  0.419142  1
  Si  Si281  1  0.569134  0.663181  0.308021  1
  Si  Si282  1  0.917638  0.568837  0.307325  1
  Si  Si283  1  0.419793  0.567607  0.447282  1
  Si  Si284  1  0.071966  0.627317  0.373278  1
  Si  Si285  1  0.571627  0.628299  0.468568  1
  Si  Si286  1  0.730050  0.571916  0.468819  1
  Si  Si287  1  0.227521  0.573774  0.416426  1
  Si  Si288  1  0.162993  0.919611  0.279675  1
  Si  Si289  1  0.662887  0.922081  0.308735  1
  Si  Si290  1  0.127076  0.727275  0.438422  1
  Si  Si291  1  0.624848  0.728235  0.468332  1
  Si  Si292  1  0.373298  0.269504  0.498079  1
  Si  Si293  1  0.873169  0.268149  0.527986  1
  Si  Si294  1  0.581375  0.433391  0.520452  1
  Si  Si295  1  0.161506  0.579639  0.519095  1
  Si  Si296  1  0.662577  0.578811  0.548078  1
  Si  Si297  1  0.269684  0.427087  0.497989  1
  Si  Si298  1  0.773897  0.427904  0.551888  1
  Si  Si299  1  0.927371  0.374023  0.593383  1
  Si  Si300  1  0.427413  0.372838  0.497932  1
  Si  Si301  1  0.919763  0.931804  0.486779  1
  Si  Si302  1  0.071629  0.872788  0.528542  1
  Si  Si303  1  0.125054  0.772268  0.550636  1
  Si  Si304  1  0.231316  0.927862  0.593731  1
  Si  Si305  1  0.626350  0.770630  0.580748  1
  Si  Si306  1  0.582332  0.067803  0.548596  1
  Si  Si307  1  0.931013  0.162642  0.486401  1
  Si  Si308  1  0.432077  0.163974  0.520155  1
  Si  Si309  1  0.272984  0.073538  0.529205  1
  Si  Si310  1  0.769363  0.069938  0.580124  1
  Si  Si311  1  0.373183  0.227003  0.592751  1
  Si  Si312  1  0.426656  0.126474  0.551260  1
  Si  Si313  1  0.067754  0.664450  0.548402  1
  Si  Si314  1  0.569134  0.663181  0.515177  1
  Si  Si315  1  0.917638  0.568837  0.514481  1
  Si  Si316  1  0.071966  0.627317  0.580434  1
  Si  Si317  1  0.162993  0.919611  0.486831  1
  Si  Si318  1  0.662887  0.922081  0.515891  1
  H  H319  1  0.932832  0.302261  0.137052  1
  H  H320  1  0.850112  0.435578  0.156892  1
  H  H321  1  0.669123  0.679183  0.149540  1
  H  H322  1  0.152035  0.932655  0.137254  1
  H  H323  1  0.197033  0.848369  0.155662  1
  H  H324  1  0.680524  0.098837  0.150227  1
  H  H325  1  0.302754  0.151708  0.137376  1
  H  H326  1  0.434626  0.196430  0.156295  1
  H  H327  1  0.982032  0.578627  0.120089  1
  H  H328  1  0.578690  0.746252  0.120464  1
  H  H329  1  0.747125  0.981483  0.120319  1
  H  H330  1  0.100041  0.671615  0.150076  1
  H  H331  1  0.254576  0.017976  0.639733  1
  H  H332  1  0.421287  0.253661  0.639522  1
  H  H333  1  0.900617  0.331195  0.610593  1
  H  H334  1  0.018248  0.421100  0.639626  1
  H  H335  1  0.320884  0.899754  0.609780  1
  H  H336  1  0.695935  0.848168  0.622796  1
  H  H337  1  0.567597  0.804050  0.604466  1
  H  H338  1  0.331042  0.320630  0.610341  1
  H  H339  1  0.803292  0.150512  0.603995  1
  H  H340  1  0.849282  0.064829  0.622509  1
  H  H341  1  0.151482  0.568008  0.604202  1
  H  H342  1  0.067170  0.696333  0.622582  1
