# generated using pymatgen
data_Si15(HO8)4
_symmetry_space_group_name_H-M   'P 1'
_cell_length_a   21.11999289
_cell_length_b   21.12704298
_cell_length_c   65.71233287
_cell_angle_alpha   134.96125367
_cell_angle_beta   134.98035700
_cell_angle_gamma   60.03370721
_symmetry_Int_Tables_number   1
_chemical_formula_structural   Si15(HO8)4
_chemical_formula_sum   'Si90 H24 O192'
_cell_volume   14675.4594661
_cell_formula_units_Z   6
loop_
 _symmetry_equiv_pos_site_id
 _symmetry_equiv_pos_as_xyz
  1  'x, y, z'
loop_
 _atom_site_type_symbol
 _atom_site_label
 _atom_site_symmetry_multiplicity
 _atom_site_fract_x
 _atom_site_fract_y
 _atom_site_fract_z
 _atom_site_occupancy
  O  O1  1  0.407687  0.028135  0.211271  1
  O  O2  1  0.752899  0.017636  0.220141  1
  O  O3  1  0.254576  0.017976  0.184591  1
  O  O4  1  0.921333  0.253271  0.176425  1
  O  O5  1  0.421287  0.253661  0.184360  1
  O  O6  1  0.329123  0.180040  0.233360  1
  O  O7  1  0.399642  0.329382  0.233288  1
  O  O8  1  0.900617  0.331195  0.152633  1
  O  O9  1  0.090541  0.529430  0.252861  1
  O  O10  1  0.873301  0.408860  0.198079  1
  O  O11  1  0.376146  0.408860  0.211470  1
  O  O12  1  0.027154  0.377164  0.211930  1
  O  O13  1  0.528229  0.376388  0.253533  1
  O  O14  1  0.018248  0.421100  0.184474  1
  O  O15  1  0.179815  0.399730  0.233519  1
  O  O16  1  0.972704  0.877073  0.240973  1
  O  O17  1  0.471950  0.875254  0.198544  1
  O  O18  1  0.078447  0.754150  0.220035  1
  O  O19  1  0.578296  0.753655  0.212052  1
  O  O20  1  0.482966  0.921981  0.176569  1
  O  O21  1  0.600057  0.832058  0.198148  1
  O  O22  1  0.820263  0.901124  0.229600  1
  O  O23  1  0.320884  0.899754  0.151742  1
  O  O24  1  0.651678  0.936013  0.205532  1
  O  O25  1  0.695935  0.848168  0.166016  1
  O  O26  1  0.567597  0.804050  0.145914  1
  O  O27  1  0.874990  0.092270  0.240674  1
  O  O28  1  0.375850  0.093567  0.253547  1
  O  O29  1  0.019013  0.076049  0.219320  1
  O  O30  1  0.831443  0.318998  0.197242  1
  O  O31  1  0.331042  0.320630  0.152356  1
  O  O32  1  0.901657  0.167747  0.229150  1
  O  O33  1  0.934386  0.194734  0.204332  1
  O  O34  1  0.803292  0.150512  0.145397  1
  O  O35  1  0.849282  0.064829  0.165702  1
  O  O36  1  0.409738  0.471311  0.198508  1
  O  O37  1  0.753411  0.481669  0.211903  1
  O  O38  1  0.253644  0.483121  0.176387  1
  O  O39  1  0.481952  0.579427  0.212104  1
  O  O40  1  0.320227  0.599678  0.197873  1
  O  O41  1  0.151482  0.568008  0.145625  1
  O  O42  1  0.651340  0.567745  0.234947  1
  O  O43  1  0.696256  0.651658  0.235005  1
  O  O44  1  0.196631  0.651165  0.205079  1
  O  O45  1  0.091680  0.972260  0.240577  1
  O  O46  1  0.169902  0.819854  0.229642  1
  O  O47  1  0.067170  0.696333  0.165782  1
  O  O48  1  0.563813  0.697804  0.234432  1
  O  O49  1  0.907502  0.028177  0.268208  1
  O  O50  1  0.407687  0.028135  0.438457  1
  O  O51  1  0.752899  0.017636  0.447328  1
  O  O52  1  0.254576  0.017976  0.411778  1
  O  O53  1  0.921333  0.253271  0.403612  1
  O  O54  1  0.421287  0.253661  0.411546  1
  O  O55  1  0.828399  0.179130  0.278986  1
  O  O56  1  0.329123  0.180040  0.460547  1
  O  O57  1  0.399642  0.329382  0.460475  1
  O  O58  1  0.932832  0.302261  0.342256  1
  O  O59  1  0.433053  0.302721  0.273081  1
  O  O60  1  0.900617  0.331195  0.379820  1
  O  O61  1  0.090541  0.529430  0.480048  1
  O  O62  1  0.873301  0.408860  0.425266  1
  O  O63  1  0.590628  0.529233  0.310036  1
  O  O64  1  0.376146  0.408860  0.438656  1
  O  O65  1  0.027154  0.377164  0.439116  1
  O  O66  1  0.528229  0.376388  0.480719  1
  O  O67  1  0.018248  0.421100  0.411660  1
  O  O68  1  0.517531  0.421534  0.296232  1
  O  O69  1  0.244749  0.516816  0.295643  1
  O  O70  1  0.746943  0.517063  0.332226  1
  O  O71  1  0.179815  0.399730  0.460706  1
  O  O72  1  0.681179  0.402446  0.311995  1
  O  O73  1  0.303014  0.347469  0.273106  1
  O  O74  1  0.804422  0.347261  0.304180  1
  O  O75  1  0.850112  0.435578  0.364014  1
  O  O76  1  0.347529  0.432558  0.272965  1
  O  O77  1  0.972704  0.877073  0.468160  1
  O  O78  1  0.471950  0.875254  0.425731  1
  O  O79  1  0.125779  0.909898  0.268973  1
  O  O80  1  0.623160  0.908661  0.255524  1
  O  O81  1  0.078447  0.754150  0.447222  1
  O  O82  1  0.578296  0.753655  0.439238  1
  O  O83  1  0.982012  0.921468  0.288444  1
  O  O84  1  0.482966  0.921981  0.403756  1
  O  O85  1  0.098596  0.830477  0.278960  1
  O  O86  1  0.600057  0.832058  0.425335  1
  O  O87  1  0.820263  0.901124  0.456786  1
  O  O88  1  0.167865  0.679739  0.310460  1
  O  O89  1  0.320884  0.899754  0.378928  1
  O  O90  1  0.669123  0.679183  0.355952  1
  O  O91  1  0.152035  0.932655  0.342478  1
  O  O92  1  0.651678  0.936013  0.432719  1
  O  O93  1  0.695935  0.848168  0.393203  1
  O  O94  1  0.063912  0.802992  0.303192  1
  O  O95  1  0.197033  0.848369  0.362666  1
  O  O96  1  0.567597  0.804050  0.373101  1
  O  O97  1  0.874990  0.092270  0.467861  1
  O  O98  1  0.375850  0.093567  0.480734  1
  O  O99  1  0.026963  0.124230  0.267483  1
  O  O100  1  0.528243  0.124528  0.309912  1
  O  O101  1  0.019013  0.076049  0.446506  1
  O  O102  1  0.517953  0.078801  0.332427  1
  O  O103  1  0.921178  0.245022  0.288079  1
  O  O104  1  0.421749  0.246229  0.296318  1
  O  O105  1  0.179582  0.099056  0.278921  1
  O  O106  1  0.831443  0.318998  0.424428  1
  O  O107  1  0.680524  0.098837  0.356705  1
  O  O108  1  0.331042  0.320630  0.379543  1
  O  O109  1  0.901657  0.167747  0.456336  1
  O  O110  1  0.400964  0.169635  0.311195  1
  O  O111  1  0.302754  0.151708  0.342611  1
  O  O112  1  0.934386  0.194734  0.431519  1
  O  O113  1  0.803292  0.150512  0.372584  1
  O  O114  1  0.434626  0.196430  0.363360  1
  O  O115  1  0.849282  0.064829  0.392888  1
  O  O116  1  0.348850  0.065372  0.303759  1
  O  O117  1  0.970885  0.626053  0.297219  1
  O  O118  1  0.473186  0.623603  0.255475  1
  O  O119  1  0.907217  0.472607  0.254798  1
  O  O120  1  0.122882  0.592388  0.309297  1
  O  O121  1  0.409738  0.471311  0.425695  1
  O  O122  1  0.624715  0.591670  0.297211  1
  O  O123  1  0.753411  0.481669  0.439090  1
  O  O124  1  0.253644  0.483121  0.403574  1
  O  O125  1  0.982032  0.578627  0.323653  1
  O  O126  1  0.481952  0.579427  0.439291  1
  O  O127  1  0.819518  0.600015  0.274818  1
  O  O128  1  0.320227  0.599678  0.425059  1
  O  O129  1  0.151482  0.568008  0.372812  1
  O  O130  1  0.651340  0.567745  0.462133  1
  O  O131  1  0.696256  0.651658  0.462191  1
  O  O132  1  0.196631  0.651165  0.432265  1
  O  O133  1  0.091680  0.972260  0.467763  1
  O  O134  1  0.591208  0.971710  0.297371  1
  O  O135  1  0.078068  0.747605  0.332142  1
  O  O136  1  0.578690  0.746252  0.324064  1
  O  O137  1  0.246652  0.982825  0.288623  1
  O  O138  1  0.747125  0.981483  0.323906  1
  O  O139  1  0.100041  0.671615  0.356539  1
  O  O140  1  0.598718  0.670348  0.274526  1
  O  O141  1  0.169902  0.819854  0.456828  1
  O  O142  1  0.668184  0.820713  0.274497  1
  O  O143  1  0.067170  0.696333  0.392969  1
  O  O144  1  0.563813  0.697804  0.461619  1
  O  O145  1  0.907502  0.028177  0.495395  1
  O  O146  1  0.828399  0.179130  0.506172  1
  O  O147  1  0.932832  0.302261  0.569443  1
  O  O148  1  0.433053  0.302721  0.500267  1
  O  O149  1  0.590628  0.529233  0.537223  1
  O  O150  1  0.517531  0.421534  0.523419  1
  O  O151  1  0.244749  0.516816  0.522830  1
  O  O152  1  0.746943  0.517063  0.559413  1
  O  O153  1  0.681179  0.402446  0.539182  1
  O  O154  1  0.303014  0.347469  0.500292  1
  O  O155  1  0.804422  0.347261  0.531366  1
  O  O156  1  0.850112  0.435578  0.591201  1
  O  O157  1  0.347529  0.432558  0.500151  1
  O  O158  1  0.125779  0.909898  0.496160  1
  O  O159  1  0.623160  0.908661  0.482711  1
  O  O160  1  0.982012  0.921468  0.515631  1
  O  O161  1  0.098596  0.830477  0.506146  1
  O  O162  1  0.167865  0.679739  0.537647  1
  O  O163  1  0.669123  0.679183  0.583139  1
  O  O164  1  0.152035  0.932655  0.569664  1
  O  O165  1  0.063912  0.802992  0.530379  1
  O  O166  1  0.197033  0.848369  0.589852  1
  O  O167  1  0.026963  0.124230  0.494670  1
  O  O168  1  0.528243  0.124528  0.537099  1
  O  O169  1  0.517953  0.078801  0.559613  1
  O  O170  1  0.921178  0.245022  0.515266  1
  O  O171  1  0.421749  0.246229  0.523504  1
  O  O172  1  0.179582  0.099056  0.506107  1
  O  O173  1  0.680524  0.098837  0.583892  1
  O  O174  1  0.400964  0.169635  0.538381  1
  O  O175  1  0.302754  0.151708  0.569798  1
  O  O176  1  0.434626  0.196430  0.590547  1
  O  O177  1  0.348850  0.065372  0.530946  1
  O  O178  1  0.970885  0.626053  0.524406  1
  O  O179  1  0.473186  0.623603  0.482662  1
  O  O180  1  0.907217  0.472607  0.481985  1
  O  O181  1  0.122882  0.592388  0.536484  1
  O  O182  1  0.624715  0.591670  0.524398  1
  O  O183  1  0.982032  0.578627  0.550840  1
  O  O184  1  0.819518  0.600015  0.502005  1
  O  O185  1  0.591208  0.971710  0.524558  1
  O  O186  1  0.078068  0.747605  0.559329  1
  O  O187  1  0.578690  0.746252  0.551251  1
  O  O188  1  0.246652  0.982825  0.515810  1
  O  O189  1  0.747125  0.981483  0.551092  1
  O  O190  1  0.100041  0.671615  0.583726  1
  O  O191  1  0.598718  0.670348  0.501713  1
  O  O192  1  0.668184  0.820713  0.501684  1
  Si  Si193  1  0.836075  0.081200  0.251271  1
  Si  Si194  1  0.336877  0.082247  0.220197  1
  Si  Si195  1  0.082015  0.432879  0.220693  1
  Si  Si196  1  0.930262  0.337573  0.183634  1
  Si  Si197  1  0.431600  0.337351  0.220071  1
  Si  Si198  1  0.069462  0.838279  0.251223  1
  Si  Si199  1  0.568283  0.837052  0.214614  1
  Si  Si200  1  0.418971  0.931418  0.183025  1
  Si  Si201  1  0.573917  0.875016  0.180945  1
  Si  Si202  1  0.727528  0.927802  0.205015  1
  Si  Si203  1  0.079080  0.068299  0.250279  1
  Si  Si204  1  0.874143  0.227377  0.180134  1
  Si  Si205  1  0.930113  0.124217  0.204993  1
  Si  Si206  1  0.836368  0.418400  0.213700  1
  Si  Si207  1  0.337938  0.421365  0.183553  1
  Si  Si208  1  0.419793  0.567607  0.214414  1
  Si  Si209  1  0.571627  0.628299  0.237758  1
  Si  Si210  1  0.730050  0.571916  0.238034  1
  Si  Si211  1  0.227521  0.573774  0.180575  1
  Si  Si212  1  0.127076  0.727275  0.204697  1
  Si  Si213  1  0.624848  0.728235  0.237500  1
  Si  Si214  1  0.373298  0.269504  0.270123  1
  Si  Si215  1  0.836075  0.081200  0.478458  1
  Si  Si216  1  0.336877  0.082247  0.447384  1
  Si  Si217  1  0.873169  0.268149  0.302922  1
  Si  Si218  1  0.082015  0.432879  0.447880  1
  Si  Si219  1  0.581375  0.433391  0.294659  1
  Si  Si220  1  0.161506  0.579639  0.293171  1
  Si  Si221  1  0.930262  0.337573  0.410821  1
  Si  Si222  1  0.662577  0.578811  0.324957  1
  Si  Si223  1  0.431600  0.337351  0.447258  1
  Si  Si224  1  0.269684  0.427087  0.270024  1
  Si  Si225  1  0.773897  0.427904  0.329134  1
  Si  Si226  1  0.927371  0.374023  0.374642  1
  Si  Si227  1  0.427413  0.372838  0.269961  1
  Si  Si228  1  0.069462  0.838279  0.478410  1
  Si  Si229  1  0.568283  0.837052  0.441801  1
  Si  Si230  1  0.919763  0.931804  0.257730  1
  Si  Si231  1  0.418971  0.931418  0.410212  1
  Si  Si232  1  0.071629  0.872788  0.303532  1
  Si  Si233  1  0.573917  0.875016  0.408132  1
  Si  Si234  1  0.727528  0.927802  0.432202  1
  Si  Si235  1  0.125054  0.772268  0.327762  1
  Si  Si236  1  0.231316  0.927862  0.375024  1
  Si  Si237  1  0.626350  0.770630  0.360785  1
  Si  Si238  1  0.079080  0.068299  0.477466  1
  Si  Si239  1  0.582332  0.067803  0.325524  1
  Si  Si240  1  0.931013  0.162642  0.257316  1
  Si  Si241  1  0.432077  0.163974  0.294334  1
  Si  Si242  1  0.272984  0.073538  0.304259  1
  Si  Si243  1  0.874143  0.227377  0.407320  1
  Si  Si244  1  0.769363  0.069938  0.360101  1
  Si  Si245  1  0.373183  0.227003  0.373949  1
  Si  Si246  1  0.930113  0.124217  0.432180  1
  Si  Si247  1  0.426656  0.126474  0.328446  1
  Si  Si248  1  0.836368  0.418400  0.440886  1
  Si  Si249  1  0.067754  0.664450  0.325312  1
  Si  Si250  1  0.337938  0.421365  0.410740  1
  Si  Si251  1  0.569134  0.663181  0.288874  1
  Si  Si252  1  0.917638  0.568837  0.288110  1
  Si  Si253  1  0.419793  0.567607  0.441600  1
  Si  Si254  1  0.071966  0.627317  0.360441  1
  Si  Si255  1  0.571627  0.628299  0.464945  1
  Si  Si256  1  0.730050  0.571916  0.465220  1
  Si  Si257  1  0.227521  0.573774  0.407762  1
  Si  Si258  1  0.162993  0.919611  0.257787  1
  Si  Si259  1  0.662887  0.922081  0.289656  1
  Si  Si260  1  0.127076  0.727275  0.431884  1
  Si  Si261  1  0.624848  0.728235  0.464686  1
  Si  Si262  1  0.373298  0.269504  0.497310  1
  Si  Si263  1  0.873169  0.268149  0.530108  1
  Si  Si264  1  0.581375  0.433391  0.521846  1
  Si  Si265  1  0.161506  0.579639  0.520357  1
  Si  Si266  1  0.662577  0.578811  0.552143  1
  Si  Si267  1  0.269684  0.427087  0.497211  1
  Si  Si268  1  0.773897  0.427904  0.556321  1
  Si  Si269  1  0.427413  0.372838  0.497148  1
  Si  Si270  1  0.919763  0.931804  0.484917  1
  Si  Si271  1  0.071629  0.872788  0.530718  1
  Si  Si272  1  0.125054  0.772268  0.554949  1
  Si  Si273  1  0.582332  0.067803  0.552711  1
  Si  Si274  1  0.931013  0.162642  0.484503  1
  Si  Si275  1  0.432077  0.163974  0.521520  1
  Si  Si276  1  0.272984  0.073538  0.531445  1
  Si  Si277  1  0.426656  0.126474  0.555633  1
  Si  Si278  1  0.067754  0.664450  0.552499  1
  Si  Si279  1  0.569134  0.663181  0.516061  1
  Si  Si280  1  0.917638  0.568837  0.515297  1
  Si  Si281  1  0.162993  0.919611  0.484974  1
  Si  Si282  1  0.662887  0.922081  0.516843  1
  H  H283  1  0.254576  0.017976  0.170895  1
  H  H284  1  0.421287  0.253661  0.170663  1
  H  H285  1  0.900617  0.331195  0.138937  1
  H  H286  1  0.018248  0.421100  0.170777  1
  H  H287  1  0.320884  0.899754  0.138046  1
  H  H288  1  0.695935  0.848168  0.152320  1
  H  H289  1  0.567597  0.804050  0.132218  1
  H  H290  1  0.331042  0.320630  0.138660  1
  H  H291  1  0.803292  0.150512  0.131701  1
  H  H292  1  0.849282  0.064829  0.152006  1
  H  H293  1  0.151482  0.568008  0.131929  1
  H  H294  1  0.067170  0.696333  0.152086  1
  H  H295  1  0.932832  0.302261  0.583139  1
  H  H296  1  0.850112  0.435578  0.604897  1
  H  H297  1  0.669123  0.679183  0.596835  1
  H  H298  1  0.152035  0.932655  0.583360  1
  H  H299  1  0.197033  0.848369  0.603548  1
  H  H300  1  0.680524  0.098837  0.597588  1
  H  H301  1  0.302754  0.151708  0.583494  1
  H  H302  1  0.434626  0.196430  0.604243  1
  H  H303  1  0.982032  0.578627  0.564536  1
  H  H304  1  0.578690  0.746252  0.564947  1
  H  H305  1  0.747125  0.981483  0.564788  1
  H  H306  1  0.100041  0.671615  0.597422  1
