# generated using pymatgen
data_Si25H2O51
_symmetry_space_group_name_H-M   'P 1'
_cell_length_a   6.98625762
_cell_length_b   12.63072671
_cell_length_c   54.92046309
_cell_angle_alpha   90.00000000
_cell_angle_beta   90.00000000
_cell_angle_gamma   90.00000000
_symmetry_Int_Tables_number   1
_chemical_formula_structural   Si25H2O51
_chemical_formula_sum   'Si50 H4 O102'
_cell_volume   4846.26463267
_cell_formula_units_Z   2
loop_
 _symmetry_equiv_pos_site_id
 _symmetry_equiv_pos_as_xyz
  1  'x, y, z'
loop_
 _atom_site_type_symbol
 _atom_site_label
 _atom_site_symmetry_multiplicity
 _atom_site_fract_x
 _atom_site_fract_y
 _atom_site_fract_z
 _atom_site_occupancy
  O  O1  1  0.829897  0.522776  0.186791  1
  O  O2  1  0.172335  0.021673  0.268995  1
  O  O3  1  0.841575  0.976185  0.149555  1
  O  O4  1  0.167704  0.475591  0.148129  1
  O  O5  1  0.825513  0.524501  0.268491  1
  O  O6  1  0.165067  0.022518  0.186141  1
  O  O7  1  0.181899  0.528188  0.191322  1
  O  O8  1  0.820855  0.031076  0.264681  1
  O  O9  1  0.196884  0.965082  0.142933  1
  O  O10  1  0.809148  0.469695  0.143020  1
  O  O11  1  0.180349  0.529175  0.264685  1
  O  O12  1  0.809604  0.033375  0.192931  1
  O  O13  1  0.976133  0.695712  0.187923  1
  O  O14  1  0.025691  0.197371  0.267114  1
  O  O15  1  0.982521  0.804428  0.147404  1
  O  O16  1  0.019821  0.305993  0.148368  1
  O  O17  1  0.970921  0.694422  0.267652  1
  O  O18  1  0.020102  0.196345  0.188730  1
  O  O19  1  0.970299  0.585484  0.227755  1
  O  O20  1  0.024740  0.410638  0.107466  1
  O  O21  1  0.034120  0.084933  0.227902  1
  O  O22  1  0.973817  0.914091  0.107428  1
  O  O23  1  0.734093  0.847074  0.178082  1
  O  O24  1  0.735071  0.656909  0.158146  1
  O  O25  1  0.271993  0.343762  0.278473  1
  O  O26  1  0.727622  0.845218  0.278430  1
  O  O27  1  0.262430  0.152542  0.158060  1
  O  O28  1  0.270965  0.342084  0.177534  1
  O  O29  1  0.504906  0.002292  0.167559  1
  O  O30  1  0.498244  0.500983  0.167616  1
  O  O31  1  0.829897  0.522776  0.428085  1
  O  O32  1  0.170835  0.474875  0.308138  1
  O  O33  1  0.172335  0.021673  0.510289  1
  O  O34  1  0.841575  0.976185  0.390849  1
  O  O35  1  0.167704  0.475591  0.389424  1
  O  O36  1  0.825513  0.524501  0.509786  1
  O  O37  1  0.834222  0.977904  0.307815  1
  O  O38  1  0.165067  0.022518  0.427436  1
  O  O39  1  0.181899  0.528188  0.432617  1
  O  O40  1  0.816437  0.471885  0.312017  1
  O  O41  1  0.820855  0.031076  0.505975  1
  O  O42  1  0.196884  0.965082  0.384227  1
  O  O43  1  0.809148  0.469695  0.384315  1
  O  O44  1  0.180349  0.529175  0.505979  1
  O  O45  1  0.191798  0.966118  0.312757  1
  O  O46  1  0.809604  0.033375  0.434225  1
  O  O47  1  0.976133  0.695712  0.429217  1
  O  O48  1  0.021263  0.306014  0.307899  1
  O  O49  1  0.025691  0.197371  0.508408  1
  O  O50  1  0.982521  0.804428  0.388698  1
  O  O51  1  0.019821  0.305993  0.389662  1
  O  O52  1  0.970921  0.694422  0.508947  1
  O  O53  1  0.973495  0.806073  0.308139  1
  O  O54  1  0.020102  0.196345  0.430024  1
  O  O55  1  0.970299  0.585484  0.469049  1
  O  O56  1  0.024740  0.410638  0.348760  1
  O  O57  1  0.034120  0.084933  0.469196  1
  O  O58  1  0.973817  0.914091  0.348722  1
  O  O59  1  0.261244  0.153367  0.297768  1
  O  O60  1  0.734093  0.847074  0.419376  1
  O  O61  1  0.735071  0.656909  0.399440  1
  O  O62  1  0.271993  0.343762  0.519767  1
  O  O63  1  0.727622  0.845218  0.519725  1
  O  O64  1  0.262430  0.152542  0.399354  1
  O  O65  1  0.270965  0.342084  0.418828  1
  O  O66  1  0.726537  0.657131  0.297914  1
  O  O67  1  0.503386  0.002474  0.288494  1
  O  O68  1  0.504906  0.002292  0.408854  1
  O  O69  1  0.498244  0.500983  0.408911  1
  O  O70  1  0.497357  0.502065  0.288666  1
  O  O71  1  0.829897  0.522776  0.669379  1
  O  O72  1  0.170835  0.474875  0.549432  1
  O  O73  1  0.841575  0.976185  0.632143  1
  O  O74  1  0.167704  0.475591  0.630718  1
  O  O75  1  0.834222  0.977904  0.549109  1
  O  O76  1  0.165067  0.022518  0.668730  1
  O  O77  1  0.181899  0.528188  0.673911  1
  O  O78  1  0.816437  0.471885  0.553311  1
  O  O79  1  0.196884  0.965082  0.625521  1
  O  O80  1  0.809148  0.469695  0.625609  1
  O  O81  1  0.191798  0.966118  0.554051  1
  O  O82  1  0.809604  0.033375  0.675519  1
  O  O83  1  0.976133  0.695712  0.670512  1
  O  O84  1  0.021263  0.306014  0.549193  1
  O  O85  1  0.982521  0.804428  0.629993  1
  O  O86  1  0.019821  0.305993  0.630957  1
  O  O87  1  0.973495  0.806073  0.549433  1
  O  O88  1  0.020102  0.196345  0.671318  1
  O  O89  1  0.970299  0.585484  0.710343  1
  O  O90  1  0.024740  0.410638  0.590055  1
  O  O91  1  0.034120  0.084933  0.710490  1
  O  O92  1  0.973817  0.914091  0.590017  1
  O  O93  1  0.261244  0.153367  0.539062  1
  O  O94  1  0.734093  0.847074  0.660671  1
  O  O95  1  0.735071  0.656909  0.640734  1
  O  O96  1  0.262430  0.152542  0.640649  1
  O  O97  1  0.270965  0.342084  0.660122  1
  O  O98  1  0.726537  0.657131  0.539208  1
  O  O99  1  0.503386  0.002474  0.529788  1
  O  O100  1  0.504906  0.002292  0.650148  1
  O  O101  1  0.498244  0.500983  0.650205  1
  O  O102  1  0.497357  0.502065  0.529960  1
  Si  Si103  1  0.994252  0.582857  0.199914  1
  Si  Si104  1  0.010790  0.084755  0.256028  1
  Si  Si105  1  0.005862  0.915212  0.135493  1
  Si  Si106  1  0.997715  0.418197  0.135502  1
  Si  Si107  1  0.993247  0.582345  0.255592  1
  Si  Si108  1  -0.000000  0.084048  0.199915  1
  Si  Si109  1  0.712867  0.967549  0.173181  1
  Si  Si110  1  0.709712  0.533352  0.162976  1
  Si  Si111  1  0.290241  0.463587  0.284290  1
  Si  Si112  1  0.711908  0.964891  0.284355  1
  Si  Si113  1  0.293688  0.030744  0.162704  1
  Si  Si114  1  0.289911  0.461846  0.171603  1
  Si  Si115  1  0.144772  0.251007  0.287472  1
  Si  Si116  1  0.856123  0.755053  0.167652  1
  Si  Si117  1  0.847213  0.750427  0.287904  1
  Si  Si118  1  0.144117  0.248748  0.168665  1
  Si  Si119  1  0.994252  0.582857  0.441209  1
  Si  Si120  1  0.002422  0.416605  0.320779  1
  Si  Si121  1  0.010790  0.084755  0.497322  1
  Si  Si122  1  0.005862  0.915212  0.376787  1
  Si  Si123  1  0.997715  0.418197  0.376796  1
  Si  Si124  1  0.993247  0.582345  0.496886  1
  Si  Si125  1  0.001019  0.918496  0.320595  1
  Si  Si126  1  -0.000000  0.084048  0.441209  1
  Si  Si127  1  0.290128  0.030555  0.292908  1
  Si  Si128  1  0.712867  0.967549  0.414475  1
  Si  Si129  1  0.709712  0.533352  0.404270  1
  Si  Si130  1  0.290241  0.463587  0.525584  1
  Si  Si131  1  0.711908  0.964891  0.525650  1
  Si  Si132  1  0.293688  0.030744  0.403998  1
  Si  Si133  1  0.289911  0.461846  0.412898  1
  Si  Si134  1  0.707085  0.537227  0.292355  1
  Si  Si135  1  0.144772  0.251007  0.528766  1
  Si  Si136  1  0.856123  0.755053  0.408946  1
  Si  Si137  1  0.847213  0.750427  0.529199  1
  Si  Si138  1  0.144117  0.248748  0.409959  1
  Si  Si139  1  0.994252  0.582857  0.682503  1
  Si  Si140  1  0.002422  0.416605  0.562073  1
  Si  Si141  1  0.005862  0.915212  0.618082  1
  Si  Si142  1  0.997715  0.418197  0.618090  1
  Si  Si143  1  0.001019  0.918496  0.561889  1
  Si  Si144  1  -0.000000  0.084048  0.682503  1
  Si  Si145  1  0.290128  0.030555  0.534203  1
  Si  Si146  1  0.712867  0.967549  0.655769  1
  Si  Si147  1  0.709712  0.533352  0.645564  1
  Si  Si148  1  0.293688  0.030744  0.645292  1
  Si  Si149  1  0.289911  0.461846  0.654192  1
  Si  Si150  1  0.707085  0.537227  0.533649  1
  Si  Si151  1  0.856123  0.755053  0.650240  1
  Si  Si152  1  0.144117  0.248748  0.651254  1
  H  H153  1  0.024740  0.410638  0.091079  1
  H  H154  1  0.973817  0.914091  0.091041  1
  H  H155  1  0.970299  0.585484  0.726731  1
  H  H156  1  0.034120  0.084933  0.726878  1
