# generated using pymatgen
data_Si23(H3O13)4
_symmetry_space_group_name_H-M   'P 1'
_cell_length_a   21.11999289
_cell_length_b   21.12704298
_cell_length_c   57.11033536
_cell_angle_alpha   134.96125367
_cell_angle_beta   134.98035700
_cell_angle_gamma   60.03370721
_symmetry_Int_Tables_number   1
_chemical_formula_structural   Si23(H3O13)4
_chemical_formula_sum   'Si46 H24 O104'
_cell_volume   12754.3852887
_cell_formula_units_Z   2
loop_
 _symmetry_equiv_pos_site_id
 _symmetry_equiv_pos_as_xyz
  1  'x, y, z'
loop_
 _atom_site_type_symbol
 _atom_site_label
 _atom_site_symmetry_multiplicity
 _atom_site_fract_x
 _atom_site_fract_y
 _atom_site_fract_z
 _atom_site_occupancy
  O  O1  1  0.407687  0.028135  0.298920  1
  O  O2  1  0.752899  0.017636  0.309127  1
  O  O3  1  0.254576  0.017976  0.268222  1
  O  O4  1  0.921333  0.253271  0.258826  1
  O  O5  1  0.421287  0.253661  0.267956  1
  O  O6  1  0.329123  0.180040  0.324337  1
  O  O7  1  0.399642  0.329382  0.324254  1
  O  O8  1  0.932832  0.302261  0.188229  1
  O  O9  1  0.900617  0.331195  0.231451  1
  O  O10  1  0.090541  0.529430  0.346775  1
  O  O11  1  0.873301  0.408860  0.283742  1
  O  O12  1  0.376146  0.408860  0.299149  1
  O  O13  1  0.027154  0.377164  0.299678  1
  O  O14  1  0.528229  0.376388  0.347548  1
  O  O15  1  0.018248  0.421100  0.268087  1
  O  O16  1  0.179815  0.399730  0.324520  1
  O  O17  1  0.850112  0.435578  0.213265  1
  O  O18  1  0.972704  0.877073  0.333097  1
  O  O19  1  0.471950  0.875254  0.284277  1
  O  O20  1  0.078447  0.754150  0.309005  1
  O  O21  1  0.578296  0.753655  0.299819  1
  O  O22  1  0.482966  0.921981  0.258992  1
  O  O23  1  0.600057  0.832058  0.283822  1
  O  O24  1  0.820263  0.901124  0.320010  1
  O  O25  1  0.320884  0.899754  0.230425  1
  O  O26  1  0.669123  0.679183  0.203988  1
  O  O27  1  0.651678  0.936013  0.292318  1
  O  O28  1  0.695935  0.848168  0.246850  1
  O  O29  1  0.567597  0.804050  0.223720  1
  O  O30  1  0.874990  0.092270  0.332753  1
  O  O31  1  0.375850  0.093567  0.347565  1
  O  O32  1  0.019013  0.076049  0.308182  1
  O  O33  1  0.831443  0.318998  0.282778  1
  O  O34  1  0.331042  0.320630  0.231132  1
  O  O35  1  0.901657  0.167747  0.319492  1
  O  O36  1  0.934386  0.194734  0.290937  1
  O  O37  1  0.803292  0.150512  0.223125  1
  O  O38  1  0.849282  0.064829  0.246488  1
  O  O39  1  0.409738  0.471311  0.284236  1
  O  O40  1  0.753411  0.481669  0.299648  1
  O  O41  1  0.253644  0.483121  0.258782  1
  O  O42  1  0.481952  0.579427  0.299879  1
  O  O43  1  0.320227  0.599678  0.283504  1
  O  O44  1  0.151482  0.568008  0.223387  1
  O  O45  1  0.651340  0.567745  0.326162  1
  O  O46  1  0.696256  0.651658  0.326229  1
  O  O47  1  0.196631  0.651165  0.291796  1
  O  O48  1  0.091680  0.972260  0.332640  1
  O  O49  1  0.578690  0.746252  0.167297  1
  O  O50  1  0.169902  0.819854  0.320058  1
  O  O51  1  0.067170  0.696333  0.246580  1
  O  O52  1  0.563813  0.697804  0.325571  1
  O  O53  1  0.907502  0.028177  0.364434  1
  O  O54  1  0.254576  0.017976  0.529628  1
  O  O55  1  0.828399  0.179130  0.376834  1
  O  O56  1  0.932832  0.302261  0.449635  1
  O  O57  1  0.433053  0.302721  0.370040  1
  O  O58  1  0.590628  0.529233  0.412562  1
  O  O59  1  0.517531  0.421534  0.396678  1
  O  O60  1  0.244749  0.516816  0.396001  1
  O  O61  1  0.746943  0.517063  0.438094  1
  O  O62  1  0.681179  0.402446  0.414816  1
  O  O63  1  0.303014  0.347469  0.370069  1
  O  O64  1  0.804422  0.347261  0.405823  1
  O  O65  1  0.850112  0.435578  0.474670  1
  O  O66  1  0.347529  0.432558  0.369907  1
  O  O67  1  0.125779  0.909898  0.365314  1
  O  O68  1  0.623160  0.908661  0.349839  1
  O  O69  1  0.982012  0.921468  0.387717  1
  O  O70  1  0.098596  0.830477  0.376805  1
  O  O71  1  0.167865  0.679739  0.413050  1
  O  O72  1  0.320884  0.899754  0.491831  1
  O  O73  1  0.669123  0.679183  0.465393  1
  O  O74  1  0.152035  0.932655  0.449890  1
  O  O75  1  0.695935  0.848168  0.508255  1
  O  O76  1  0.063912  0.802992  0.404687  1
  O  O77  1  0.197033  0.848369  0.473118  1
  O  O78  1  0.567597  0.804050  0.485126  1
  O  O79  1  0.026963  0.124230  0.363599  1
  O  O80  1  0.528243  0.124528  0.412419  1
  O  O81  1  0.517953  0.078801  0.438325  1
  O  O82  1  0.921178  0.245022  0.387298  1
  O  O83  1  0.421749  0.246229  0.396777  1
  O  O84  1  0.179582  0.099056  0.376760  1
  O  O85  1  0.680524  0.098837  0.466261  1
  O  O86  1  0.400964  0.169635  0.413895  1
  O  O87  1  0.302754  0.151708  0.450044  1
  O  O88  1  0.434626  0.196430  0.473918  1
  O  O89  1  0.348850  0.065372  0.405339  1
  O  O90  1  0.970885  0.626053  0.397814  1
  O  O91  1  0.473186  0.623603  0.349783  1
  O  O92  1  0.907217  0.472607  0.349004  1
  O  O93  1  0.122882  0.592388  0.411712  1
  O  O94  1  0.624715  0.591670  0.397805  1
  O  O95  1  0.982032  0.578627  0.428230  1
  O  O96  1  0.819518  0.600015  0.372039  1
  O  O97  1  0.591208  0.971710  0.397989  1
  O  O98  1  0.078068  0.747605  0.437998  1
  O  O99  1  0.578690  0.746252  0.428703  1
  O  O100  1  0.246652  0.982825  0.387923  1
  O  O101  1  0.747125  0.981483  0.428520  1
  O  O102  1  0.100041  0.671615  0.466069  1
  O  O103  1  0.598718  0.670348  0.371704  1
  O  O104  1  0.668184  0.820713  0.371670  1
  Si  Si105  1  0.836075  0.081200  0.344946  1
  Si  Si106  1  0.336877  0.082247  0.309191  1
  Si  Si107  1  0.082015  0.432879  0.309762  1
  Si  Si108  1  0.930262  0.337573  0.267121  1
  Si  Si109  1  0.431600  0.337351  0.309046  1
  Si  Si110  1  0.927371  0.374023  0.225493  1
  Si  Si111  1  0.069462  0.838279  0.344891  1
  Si  Si112  1  0.568283  0.837052  0.302767  1
  Si  Si113  1  0.418971  0.931418  0.266421  1
  Si  Si114  1  0.573917  0.875016  0.264027  1
  Si  Si115  1  0.727528  0.927802  0.291722  1
  Si  Si116  1  0.626350  0.770630  0.209549  1
  Si  Si117  1  0.079080  0.068299  0.343804  1
  Si  Si118  1  0.874143  0.227377  0.263093  1
  Si  Si119  1  0.930113  0.124217  0.291697  1
  Si  Si120  1  0.836368  0.418400  0.301715  1
  Si  Si121  1  0.337938  0.421365  0.267028  1
  Si  Si122  1  0.419793  0.567607  0.302537  1
  Si  Si123  1  0.571627  0.628299  0.329397  1
  Si  Si124  1  0.730050  0.571916  0.329714  1
  Si  Si125  1  0.227521  0.573774  0.263601  1
  Si  Si126  1  0.127076  0.727275  0.291356  1
  Si  Si127  1  0.624848  0.728235  0.329100  1
  Si  Si128  1  0.373298  0.269504  0.366637  1
  Si  Si129  1  0.873169  0.268149  0.404376  1
  Si  Si130  1  0.581375  0.433391  0.394869  1
  Si  Si131  1  0.161506  0.579639  0.393156  1
  Si  Si132  1  0.662577  0.578811  0.429730  1
  Si  Si133  1  0.269684  0.427087  0.366523  1
  Si  Si134  1  0.773897  0.427904  0.434537  1
  Si  Si135  1  0.427413  0.372838  0.366451  1
  Si  Si136  1  0.919763  0.931804  0.352377  1
  Si  Si137  1  0.071629  0.872788  0.405078  1
  Si  Si138  1  0.125054  0.772268  0.432958  1
  Si  Si139  1  0.231316  0.927862  0.487338  1
  Si  Si140  1  0.626350  0.770630  0.470955  1
  Si  Si141  1  0.582332  0.067803  0.430383  1
  Si  Si142  1  0.931013  0.162642  0.351901  1
  Si  Si143  1  0.432077  0.163974  0.394494  1
  Si  Si144  1  0.272984  0.073538  0.405914  1
  Si  Si145  1  0.426656  0.126474  0.433745  1
  Si  Si146  1  0.067754  0.664450  0.430139  1
  Si  Si147  1  0.569134  0.663181  0.388212  1
  Si  Si148  1  0.917638  0.568837  0.387334  1
  Si  Si149  1  0.162993  0.919611  0.352443  1
  Si  Si150  1  0.662887  0.922081  0.389113  1
  H  H151  1  0.254576  0.017976  0.252463  1
  H  H152  1  0.421287  0.253661  0.252197  1
  H  H153  1  0.932832  0.302261  0.172470  1
  H  H154  1  0.850112  0.435578  0.197506  1
  H  H155  1  0.320884  0.899754  0.214666  1
  H  H156  1  0.669123  0.679183  0.188229  1
  H  H157  1  0.331042  0.320630  0.215373  1
  H  H158  1  0.803292  0.150512  0.207366  1
  H  H159  1  0.849282  0.064829  0.230729  1
  H  H160  1  0.151482  0.568008  0.207628  1
  H  H161  1  0.578690  0.746252  0.151538  1
  H  H162  1  0.067170  0.696333  0.230821  1
  H  H163  1  0.254576  0.017976  0.545387  1
  H  H164  1  0.932832  0.302261  0.465394  1
  H  H165  1  0.850112  0.435578  0.490429  1
  H  H166  1  0.320884  0.899754  0.507590  1
  H  H167  1  0.695935  0.848168  0.524014  1
  H  H168  1  0.567597  0.804050  0.500885  1
  H  H169  1  0.680524  0.098837  0.482019  1
  H  H170  1  0.302754  0.151708  0.465803  1
  H  H171  1  0.434626  0.196430  0.489677  1
  H  H172  1  0.982032  0.578627  0.443989  1
  H  H173  1  0.747125  0.981483  0.444279  1
  H  H174  1  0.100041  0.671615  0.481828  1
