# generated using pymatgen
data_Si18H2O37
_symmetry_space_group_name_H-M   'P 1'
_cell_length_a   19.80640796
_cell_length_b   19.84885801
_cell_length_c   53.13363915
_cell_angle_alpha   90.00000000
_cell_angle_beta   90.00000000
_cell_angle_gamma   90.00000000
_symmetry_Int_Tables_number   1
_chemical_formula_structural   Si18H2O37
_chemical_formula_sum   'Si144 H16 O296'
_cell_volume   20888.670873
_cell_formula_units_Z   8
loop_
 _symmetry_equiv_pos_site_id
 _symmetry_equiv_pos_as_xyz
  1  'x, y, z'
loop_
 _atom_site_type_symbol
 _atom_site_label
 _atom_site_symmetry_multiplicity
 _atom_site_fract_x
 _atom_site_fract_y
 _atom_site_fract_z
 _atom_site_occupancy
  O  O1  1  0.488365  0.019083  0.173232  1
  O  O2  1  0.376780  0.012727  0.225471  1
  O  O3  1  0.017550  0.121031  0.401173  1
  O  O4  1  0.441599  0.131633  0.185888  1
  O  O5  1  0.410663  0.056350  0.268444  1
  O  O6  1  0.131733  0.089078  0.384233  1
  O  O7  1  0.366582  0.027576  0.180131  1
  O  O8  1  0.395373  0.134140  0.230579  1
  O  O9  1  0.028745  0.103311  0.355585  1
  O  O10  1  0.071415  0.288580  0.192736  1
  O  O11  1  0.428982  0.071286  0.139753  1
  O  O12  1  0.288023  0.071751  0.246624  1
  O  O13  1  0.073358  0.211676  0.378961  1
  O  O14  1  0.000000  0.177987  0.185956  1
  O  O15  1  0.079260  0.061477  0.243022  1
  O  O16  1  0.179063  0.090521  0.219771  1
  O  O17  1  0.002899  0.320810  0.372463  1
  O  O18  1  0.080227  0.181681  0.221474  1
  O  O19  1  0.003474  0.078563  0.151180  1
  O  O20  1  0.475856  0.233096  0.217399  1
  O  O21  1  0.234460  0.004667  0.397505  1
  O  O22  1  0.475962  0.266302  0.403860  1
  O  O23  1  0.493117  0.023376  0.306750  1
  O  O24  1  0.063301  0.079971  0.196431  1
  O  O25  1  0.123097  0.513833  0.225319  1
  O  O26  1  0.019473  0.379093  0.214432  1
  O  O27  1  0.482526  0.624425  0.400613  1
  O  O28  1  0.011373  0.520210  0.172982  1
  O  O29  1  0.486732  0.482665  0.360309  1
  O  O30  1  0.089108  0.557764  0.268243  1
  O  O31  1  0.134988  0.408874  0.197916  1
  O  O32  1  0.367243  0.590113  0.384823  1
  O  O33  1  0.058334  0.632953  0.185744  1
  O  O34  1  0.441855  0.368640  0.372481  1
  O  O35  1  0.104490  0.635411  0.230386  1
  O  O36  1  0.031635  0.399523  0.168928  1
  O  O37  1  0.468287  0.603481  0.355519  1
  O  O38  1  0.133124  0.528343  0.180040  1
  O  O39  1  0.364837  0.471134  0.367080  1
  O  O40  1  0.211998  0.572470  0.246486  1
  O  O41  1  0.070920  0.571439  0.139566  1
  O  O42  1  0.428069  0.428750  0.326509  1
  O  O43  1  0.320960  0.590498  0.219763  1
  O  O44  1  0.408730  0.499569  0.286032  1
  O  O45  1  0.319144  0.496103  0.248710  1
  O  O46  1  0.004720  0.421025  0.338553  1
  O  O47  1  0.496081  0.579419  0.151617  1
  O  O48  1  0.265506  0.505486  0.397221  1
  O  O49  1  0.233235  0.496709  0.210474  1
  O  O50  1  0.003355  0.522728  0.306453  1
  O  O51  1  0.495089  0.477184  0.119540  1
  O  O52  1  0.420492  0.561416  0.243286  1
  O  O53  1  0.436492  0.579707  0.196796  1
  O  O54  1  0.065872  0.421971  0.382957  1
  O  O55  1  0.440131  0.436356  0.248684  1
  O  O56  1  0.014024  0.981733  0.359929  1
  O  O57  1  0.481931  0.877296  0.213626  1
  O  O58  1  0.057995  0.865587  0.371566  1
  O  O59  1  0.364985  0.908261  0.197972  1
  O  O60  1  0.135096  0.968640  0.367829  1
  O  O61  1  0.466993  0.898904  0.168536  1
  O  O62  1  0.426779  0.712009  0.378580  1
  O  O63  1  0.071882  0.928572  0.326908  1
  O  O64  1  0.428061  0.788809  0.192202  1
  O  O65  1  0.498379  0.821053  0.371631  1
  O  O66  1  0.180556  0.996503  0.248944  1
  O  O67  1  0.420639  0.681258  0.220794  1
  O  O68  1  0.492397  0.919875  0.337532  1
  O  O69  1  0.022996  0.767063  0.404071  1
  O  O70  1  0.266421  0.996167  0.210635  1
  O  O71  1  0.024907  0.735021  0.217195  1
  O  O72  1  0.003956  0.976145  0.118865  1
  O  O73  1  0.435189  0.920436  0.382526  1
  O  O74  1  0.060769  0.936754  0.248834  1
  O  O75  1  0.499435  0.679226  0.185859  1
  O  O76  1  0.089051  0.000000  0.286014  1
  O  O77  1  0.876143  0.013489  0.399500  1
  O  O78  1  0.516521  0.122695  0.224615  1
  O  O79  1  0.909933  0.055621  0.356390  1
  O  O80  1  0.631771  0.088345  0.240583  1
  O  O81  1  0.896637  0.133947  0.394175  1
  O  O82  1  0.530252  0.103045  0.269828  1
  O  O83  1  0.788133  0.071754  0.378533  1
  O  O84  1  0.573179  0.210522  0.246167  1
  O  O85  1  0.927801  0.072409  0.111041  1
  O  O86  1  0.679507  0.089458  0.405444  1
  O  O87  1  0.501763  0.319961  0.252378  1
  O  O88  1  0.910149  0.001235  0.151803  1
  O  O89  1  0.818626  0.003561  0.189222  1
  O  O90  1  0.578981  0.318248  0.217483  1
  O  O91  1  0.579200  0.181291  0.404394  1
  O  O92  1  0.734129  0.004162  0.227812  1
  O  O93  1  0.977450  0.265493  0.221210  1
  O  O94  1  0.994516  0.023198  0.318293  1
  O  O95  1  0.578933  0.060487  0.382315  1
  O  O96  1  0.937918  0.064356  0.189508  1
  O  O97  1  0.987173  0.482421  0.264495  1
  O  O98  1  0.621466  0.513056  0.399165  1
  O  O99  1  0.876481  0.485814  0.212386  1
  O  O100  1  0.983123  0.623694  0.224262  1
  O  O101  1  0.942704  0.368546  0.252092  1
  O  O102  1  0.588664  0.558089  0.356645  1
  O  O103  1  0.910436  0.443372  0.169272  1
  O  O104  1  0.867729  0.589780  0.239973  1
  O  O105  1  0.865327  0.470786  0.257682  1
  O  O106  1  0.604039  0.634929  0.394873  1
  O  O107  1  0.898322  0.365097  0.207044  1
  O  O108  1  0.968480  0.603131  0.269216  1
  O  O109  1  0.928605  0.428248  0.298280  1
  O  O110  1  0.571664  0.572973  0.111224  1
  O  O111  1  0.712291  0.571072  0.378952  1
  O  O112  1  0.788519  0.427001  0.191649  1
  O  O113  1  0.908922  0.499262  0.338659  1
  O  O114  1  0.589058  0.501814  0.152135  1
  O  O115  1  0.821542  0.590044  0.405075  1
  O  O116  1  0.679283  0.409728  0.218441  1
  O  O117  1  0.819991  0.495569  0.376164  1
  O  O118  1  0.681063  0.503953  0.189323  1
  O  O119  1  0.504003  0.420732  0.286272  1
  O  O120  1  0.765892  0.504545  0.227722  1
  O  O121  1  0.994921  0.476422  0.130850  1
  O  O122  1  0.503179  0.522879  0.318312  1
  O  O123  1  0.565532  0.420773  0.242012  1
  O  O124  1  0.940763  0.436532  0.376075  1
  O  O125  1  0.561859  0.565226  0.189906  1
  O  O126  1  0.920873  0.561424  0.381398  1
  O  O127  1  0.578680  0.439955  0.195422  1
  O  O128  1  0.623532  0.985033  0.212571  1
  O  O129  1  0.514447  0.982272  0.265018  1
  O  O130  1  0.589137  0.941876  0.169580  1
  O  O131  1  0.557176  0.867624  0.252215  1
  O  O132  1  0.603259  0.864195  0.207525  1
  O  O133  1  0.635488  0.968558  0.257708  1
  O  O134  1  0.711558  0.926564  0.191728  1
  O  O135  1  0.928754  0.711922  0.245601  1
  O  O136  1  0.570489  0.927926  0.298032  1
  O  O137  1  0.821149  0.909728  0.218477  1
  O  O138  1  0.000000  0.821395  0.252390  1
  O  O139  1  0.560146  0.936104  0.375483  1
  O  O140  1  0.587515  0.000000  0.339108  1
  O  O141  1  0.680663  0.995750  0.376122  1
  O  O142  1  0.920567  0.681292  0.403821  1
  O  O143  1  0.995727  0.920859  0.286547  1
  O  O144  1  0.921978  0.819446  0.217283  1
  O  O145  1  0.505170  0.977070  0.131104  1
  O  O146  1  0.523093  0.765829  0.220976  1
  O  O147  1  0.920917  0.939483  0.195135  1
  O  O148  1  0.936079  0.920489  0.241751  1
  O  O149  1  0.488365  0.019083  0.547078  1
  O  O150  1  0.376780  0.012727  0.599317  1
  O  O151  1  0.441599  0.131633  0.559735  1
  O  O152  1  0.410663  0.056350  0.642291  1
  O  O153  1  0.366582  0.027576  0.553978  1
  O  O154  1  0.395373  0.134140  0.604425  1
  O  O155  1  0.071415  0.288580  0.566582  1
  O  O156  1  0.428982  0.071286  0.513599  1
  O  O157  1  0.288023  0.071751  0.620471  1
  O  O158  1  0.000000  0.177987  0.559803  1
  O  O159  1  0.410859  0.000000  0.472534  1
  O  O160  1  0.079260  0.061477  0.616869  1
  O  O161  1  0.179063  0.090521  0.593618  1
  O  O162  1  0.080227  0.181681  0.595320  1
  O  O163  1  0.319438  0.005705  0.435683  1
  O  O164  1  0.079806  0.319337  0.407353  1
  O  O165  1  0.003474  0.078563  0.525026  1
  O  O166  1  0.475856  0.233096  0.591246  1
  O  O167  1  0.493117  0.023376  0.680596  1
  O  O168  1  0.063301  0.079971  0.570278  1
  O  O169  1  0.440007  0.063623  0.435311  1
  O  O170  1  0.376151  0.485809  0.412316  1
  O  O171  1  0.123097  0.513833  0.599165  1
  O  O172  1  0.019473  0.379093  0.588279  1
  O  O173  1  0.011373  0.520210  0.546828  1
  O  O174  1  0.410616  0.442151  0.455194  1
  O  O175  1  0.089108  0.557764  0.642090  1
  O  O176  1  0.134988  0.408874  0.571762  1
  O  O177  1  0.058334  0.632953  0.559591  1
  O  O178  1  0.395408  0.364619  0.417160  1
  O  O179  1  0.104490  0.635411  0.604233  1
  O  O180  1  0.031635  0.399523  0.542774  1
  O  O181  1  0.133124  0.528343  0.553886  1
  O  O182  1  0.288032  0.427907  0.433296  1
  O  O183  1  0.211998  0.572470  0.620333  1
  O  O184  1  0.070920  0.571439  0.513413  1
  O  O185  1  0.428069  0.428750  0.700355  1
  O  O186  1  0.179282  0.410940  0.406461  1
  O  O187  1  0.320960  0.590498  0.593609  1
  O  O188  1  0.090464  0.499677  0.472975  1
  O  O189  1  0.408730  0.499569  0.659878  1
  O  O190  1  0.180708  0.504674  0.435823  1
  O  O191  1  0.319144  0.496103  0.622557  1
  O  O192  1  0.496081  0.579419  0.525464  1
  O  O193  1  0.233235  0.496709  0.584320  1
  O  O194  1  0.003355  0.522728  0.680300  1
  O  O195  1  0.495089  0.477184  0.493386  1
  O  O196  1  0.078884  0.440210  0.429721  1
  O  O197  1  0.420492  0.561416  0.617132  1
  O  O198  1  0.436492  0.579707  0.570642  1
  O  O199  1  0.060593  0.565142  0.435805  1
  O  O200  1  0.440131  0.436356  0.622531  1
  O  O201  1  0.123196  0.987317  0.412759  1
  O  O202  1  0.481931  0.877296  0.587472  1
  O  O203  1  0.091579  0.942269  0.455933  1
  O  O204  1  0.364985  0.908261  0.571819  1
  O  O205  1  0.103263  0.866736  0.416881  1
  O  O206  1  0.466993  0.898904  0.542383  1
  O  O207  1  0.071882  0.928572  0.700755  1
  O  O208  1  0.212423  0.928824  0.432952  1
  O  O209  1  0.428061  0.788809  0.566048  1
  O  O210  1  0.320470  0.909510  0.405892  1
  O  O211  1  0.420540  0.819054  0.406975  1
  O  O212  1  0.180556  0.996503  0.622790  1
  O  O213  1  0.420639  0.681258  0.594641  1
  O  O214  1  0.266421  0.996167  0.584482  1
  O  O215  1  0.024907  0.735021  0.591042  1
  O  O216  1  0.003956  0.976145  0.492712  1
  O  O217  1  0.060769  0.936754  0.622680  1
  O  O218  1  0.419553  0.939160  0.429324  1
  O  O219  1  0.499435  0.679226  0.559706  1
  O  O220  1  0.089051  0.000000  0.659861  1
  O  O221  1  0.516521  0.122695  0.598461  1
  O  O222  1  0.986580  0.015965  0.451676  1
  O  O223  1  0.631771  0.088345  0.614429  1
  O  O224  1  0.942219  0.130916  0.439127  1
  O  O225  1  0.530252  0.103045  0.643675  1
  O  O226  1  0.864819  0.029410  0.444780  1
  O  O227  1  0.573179  0.210522  0.620013  1
  O  O228  1  0.572920  0.288811  0.432857  1
  O  O229  1  0.927801  0.072409  0.484887  1
  O  O230  1  0.501763  0.319961  0.626224  1
  O  O231  1  0.501429  0.179618  0.439129  1
  O  O232  1  0.910149  0.001235  0.525650  1
  O  O233  1  0.818626  0.003561  0.563069  1
  O  O234  1  0.578981  0.318248  0.591330  1
  O  O235  1  0.504618  0.079483  0.473302  1
  O  O236  1  0.734129  0.004162  0.601659  1
  O  O237  1  0.977450  0.265493  0.595056  1
  O  O238  1  0.994516  0.023198  0.692139  1
  O  O239  1  0.978131  0.232610  0.407188  1
  O  O240  1  0.565391  0.078799  0.428930  1
  O  O241  1  0.937918  0.064356  0.563354  1
  O  O242  1  0.987173  0.482421  0.638342  1
  O  O243  1  0.511619  0.518715  0.451579  1
  O  O244  1  0.876481  0.485814  0.586232  1
  O  O245  1  0.983123  0.623694  0.598108  1
  O  O246  1  0.516644  0.376654  0.411151  1
  O  O247  1  0.942704  0.368546  0.625939  1
  O  O248  1  0.556634  0.632769  0.439356  1
  O  O249  1  0.910436  0.443372  0.543119  1
  O  O250  1  0.867729  0.589780  0.613820  1
  O  O251  1  0.632253  0.410766  0.426930  1
  O  O252  1  0.865327  0.470786  0.631529  1
  O  O253  1  0.633561  0.530166  0.444403  1
  O  O254  1  0.898322  0.365097  0.580891  1
  O  O255  1  0.968480  0.603131  0.643063  1
  O  O256  1  0.531433  0.397566  0.456229  1
  O  O257  1  0.928605  0.428248  0.672126  1
  O  O258  1  0.571664  0.572973  0.485071  1
  O  O259  1  0.788519  0.427001  0.565496  1
  O  O260  1  0.589058  0.501814  0.525981  1
  O  O261  1  0.679283  0.409728  0.592288  1
  O  O262  1  0.681063  0.503953  0.563170  1
  O  O263  1  0.995211  0.578809  0.472847  1
  O  O264  1  0.504003  0.420732  0.660119  1
  O  O265  1  0.734178  0.496610  0.414141  1
  O  O266  1  0.765892  0.504545  0.601569  1
  O  O267  1  0.994921  0.476422  0.504696  1
  O  O268  1  0.503179  0.522879  0.692159  1
  O  O269  1  0.565532  0.420773  0.615859  1
  O  O270  1  0.936154  0.580000  0.427911  1
  O  O271  1  0.561859  0.565226  0.563752  1
  O  O272  1  0.578680  0.439955  0.569269  1
  O  O273  1  0.623532  0.985033  0.586418  1
  O  O274  1  0.982407  0.876915  0.410069  1
  O  O275  1  0.514447  0.982272  0.638864  1
  O  O276  1  0.589137  0.941876  0.543427  1
  O  O277  1  0.867686  0.910299  0.427211  1
  O  O278  1  0.557176  0.867624  0.626061  1
  O  O279  1  0.603259  0.864195  0.581372  1
  O  O280  1  0.971631  0.894671  0.455341  1
  O  O281  1  0.635488  0.968558  0.631555  1
  O  O282  1  0.711558  0.926564  0.565575  1
  O  O283  1  0.926139  0.788124  0.432241  1
  O  O284  1  0.928754  0.711922  0.619448  1
  O  O285  1  0.570489  0.927926  0.671879  1
  O  O286  1  0.821149  0.909728  0.592324  1
  O  O287  1  0.997821  0.679975  0.439211  1
  O  O288  1  0.000000  0.821395  0.626236  1
  O  O289  1  0.995727  0.920859  0.660394  1
  O  O290  1  0.921978  0.819446  0.591129  1
  O  O291  1  0.765544  0.994603  0.414764  1
  O  O292  1  0.524014  0.734788  0.407306  1
  O  O293  1  0.505170  0.977070  0.504951  1
  O  O294  1  0.523093  0.765829  0.594823  1
  O  O295  1  0.920917  0.939483  0.568982  1
  O  O296  1  0.936079  0.920489  0.615597  1
  Si  Si297  1  0.428049  0.068203  0.169262  1
  Si  Si298  1  0.366142  0.071745  0.244953  1
  Si  Si299  1  0.067517  0.133609  0.379021  1
  Si  Si300  1  0.032711  0.227799  0.205916  1
  Si  Si301  1  0.229567  0.038199  0.231681  1
  Si  Si302  1  0.034271  0.269904  0.391767  1
  Si  Si303  1  0.453421  0.159340  0.212975  1
  Si  Si304  1  0.483075  0.044645  0.279046  1
  Si  Si305  1  0.159852  0.017121  0.389034  1
  Si  Si306  1  0.101497  0.106991  0.220326  1
  Si  Si307  1  0.001774  0.100712  0.179480  1
  Si  Si308  1  0.133893  0.573013  0.244740  1
  Si  Si309  1  0.070276  0.368778  0.192405  1
  Si  Si310  1  0.430168  0.634106  0.378670  1
  Si  Si311  1  0.071830  0.569295  0.169206  1
  Si  Si312  1  0.427417  0.432479  0.356055  1
  Si  Si313  1  0.270254  0.538496  0.231554  1
  Si  Si314  1  0.461437  0.467690  0.303909  1
  Si  Si315  1  0.016151  0.544987  0.278480  1
  Si  Si316  1  0.158958  0.481399  0.201717  1
  Si  Si317  1  0.339402  0.517631  0.388932  1
  Si  Si318  1  0.046264  0.660886  0.212834  1
  Si  Si319  1  0.453586  0.340092  0.399476  1
  Si  Si320  1  0.394856  0.496792  0.257447  1
  Si  Si321  1  0.005531  0.398170  0.366752  1
  Si  Si322  1  0.497856  0.601726  0.180032  1
  Si  Si323  1  0.398106  0.605994  0.220574  1
  Si  Si324  1  0.073411  0.929446  0.356559  1
  Si  Si325  1  0.428802  0.868089  0.191757  1
  Si  Si326  1  0.467694  0.769597  0.391447  1
  Si  Si327  1  0.036698  0.968090  0.304761  1
  Si  Si328  1  0.467691  0.729679  0.205336  1
  Si  Si329  1  0.046569  0.841297  0.398512  1
  Si  Si330  1  0.340673  0.980686  0.201841  1
  Si  Si331  1  0.105082  0.997521  0.257299  1
  Si  Si332  1  0.496003  0.898568  0.365379  1
  Si  Si333  1  0.866118  0.072018  0.379908  1
  Si  Si334  1  0.568816  0.132660  0.246574  1
  Si  Si335  1  0.730750  0.036673  0.393704  1
  Si  Si336  1  0.532707  0.267820  0.232960  1
  Si  Si337  1  0.962038  0.032478  0.132729  1
  Si  Si338  1  0.982502  0.044410  0.345990  1
  Si  Si339  1  0.660202  0.016138  0.236114  1
  Si  Si340  1  0.894826  0.003626  0.180731  1
  Si  Si341  1  0.601690  0.105385  0.405046  1
  Si  Si342  1  0.927866  0.432203  0.268751  1
  Si  Si343  1  0.633193  0.572238  0.380455  1
  Si  Si344  1  0.866616  0.426963  0.192915  1
  Si  Si345  1  0.930661  0.633314  0.246071  1
  Si  Si346  1  0.961764  0.467417  0.320853  1
  Si  Si347  1  0.537028  0.532974  0.132786  1
  Si  Si348  1  0.772165  0.537566  0.393455  1
  Si  Si349  1  0.730901  0.462169  0.206746  1
  Si  Si350  1  0.957218  0.340383  0.224886  1
  Si  Si351  1  0.515765  0.545142  0.346288  1
  Si  Si352  1  0.983331  0.457236  0.158822  1
  Si  Si353  1  0.839825  0.517313  0.235849  1
  Si  Si354  1  0.601406  0.394246  0.218012  1
  Si  Si355  1  0.898289  0.605975  0.404073  1
  Si  Si356  1  0.895325  0.496728  0.367250  1
  Si  Si357  1  0.604701  0.504338  0.181125  1
  Si  Si358  1  0.504606  0.397599  0.258100  1
  Si  Si359  1  0.633506  0.926038  0.193152  1
  Si  Si360  1  0.573319  0.930253  0.268559  1
  Si  Si361  1  0.769065  0.961819  0.206822  1
  Si  Si362  1  0.969080  0.770799  0.232721  1
  Si  Si363  1  0.534186  0.967326  0.320325  1
  Si  Si364  1  0.516383  0.956164  0.159015  1
  Si  Si365  1  0.544901  0.839913  0.225207  1
  Si  Si366  1  0.604984  0.997203  0.367791  1
  Si  Si367  1  0.996920  0.898342  0.258391  1
  Si  Si368  1  0.898670  0.894561  0.217793  1
  Si  Si369  1  0.428049  0.068203  0.543109  1
  Si  Si370  1  0.366142  0.071745  0.618799  1
  Si  Si371  1  0.032711  0.227799  0.579763  1
  Si  Si372  1  0.463381  0.032168  0.491348  1
  Si  Si373  1  0.229567  0.038199  0.605527  1
  Si  Si374  1  0.453421  0.159340  0.586821  1
  Si  Si375  1  0.483075  0.044645  0.652892  1
  Si  Si376  1  0.101497  0.106991  0.594173  1
  Si  Si377  1  0.394114  0.003199  0.443702  1
  Si  Si378  1  0.001774  0.100712  0.553327  1
  Si  Si379  1  0.366028  0.426652  0.431655  1
  Si  Si380  1  0.133893  0.573013  0.618587  1
  Si  Si381  1  0.070276  0.368778  0.566252  1
  Si  Si382  1  0.071830  0.569295  0.543053  1
  Si  Si383  1  0.230566  0.463364  0.418254  1
  Si  Si384  1  0.270254  0.538496  0.605400  1
  Si  Si385  1  0.037151  0.531096  0.490887  1
  Si  Si386  1  0.461437  0.467690  0.677756  1
  Si  Si387  1  0.483554  0.455971  0.465601  1
  Si  Si388  1  0.016151  0.544987  0.652327  1
  Si  Si389  1  0.158958  0.481399  0.575564  1
  Si  Si390  1  0.046264  0.660886  0.586681  1
  Si  Si391  1  0.104712  0.503975  0.444462  1
  Si  Si392  1  0.394856  0.496792  0.631293  1
  Si  Si393  1  0.497856  0.601726  0.553878  1
  Si  Si394  1  0.398106  0.605994  0.594421  1
  Si  Si395  1  0.101535  0.395217  0.406915  1
  Si  Si396  1  0.132656  0.927859  0.432163  1
  Si  Si397  1  0.428802  0.868089  0.565604  1
  Si  Si398  1  0.036698  0.968090  0.678608  1
  Si  Si399  1  0.273698  0.962795  0.418270  1
  Si  Si400  1  0.467691  0.729679  0.579183  1
  Si  Si401  1  0.019007  0.952535  0.464955  1
  Si  Si402  1  0.340673  0.980686  0.575688  1
  Si  Si403  1  0.396869  0.894599  0.406588  1
  Si  Si404  1  0.105082  0.997521  0.631146  1
  Si  Si405  1  0.568816  0.132660  0.620421  1
  Si  Si406  1  0.927243  0.067893  0.455759  1
  Si  Si407  1  0.532707  0.267820  0.606807  1
  Si  Si408  1  0.532368  0.231558  0.419650  1
  Si  Si409  1  0.962038  0.032478  0.506576  1
  Si  Si410  1  0.660202  0.016138  0.609961  1
  Si  Si411  1  0.954955  0.158171  0.411967  1
  Si  Si412  1  0.894826  0.003626  0.554577  1
  Si  Si413  1  0.504456  0.102091  0.444993  1
  Si  Si414  1  0.927866  0.432203  0.642597  1
  Si  Si415  1  0.570910  0.568656  0.455915  1
  Si  Si416  1  0.866616  0.426963  0.566761  1
  Si  Si417  1  0.930661  0.633314  0.619918  1
  Si  Si418  1  0.569215  0.366669  0.433000  1
  Si  Si419  1  0.537028  0.532974  0.506633  1
  Si  Si420  1  0.730901  0.462169  0.580593  1
  Si  Si421  1  0.957218  0.340383  0.598732  1
  Si  Si422  1  0.545674  0.660993  0.412223  1
  Si  Si423  1  0.983331  0.457236  0.532669  1
  Si  Si424  1  0.839825  0.517313  0.609695  1
  Si  Si425  1  0.659300  0.483734  0.422369  1
  Si  Si426  1  0.601406  0.394246  0.591859  1
  Si  Si427  1  0.604701  0.504338  0.554971  1
  Si  Si428  1  0.995926  0.603011  0.444864  1
  Si  Si429  1  0.504606  0.397599  0.631947  1
  Si  Si430  1  0.633506  0.926038  0.566999  1
  Si  Si431  1  0.931027  0.865967  0.432367  1
  Si  Si432  1  0.573319  0.930253  0.642406  1
  Si  Si433  1  0.769065  0.961819  0.580669  1
  Si  Si434  1  0.966372  0.730137  0.419612  1
  Si  Si435  1  0.969080  0.770799  0.606568  1
  Si  Si436  1  0.516383  0.956164  0.532862  1
  Si  Si437  1  0.839436  0.982581  0.423058  1
  Si  Si438  1  0.544901  0.839913  0.599054  1
  Si  Si439  1  0.996920  0.898342  0.632237  1
  Si  Si440  1  0.898670  0.894561  0.591639  1
  H  H441  1  0.428982  0.071286  0.122815  1
  H  H442  1  0.070920  0.571439  0.122628  1
  H  H443  1  0.495089  0.477184  0.102601  1
  H  H444  1  0.003956  0.976145  0.101927  1
  H  H445  1  0.927801  0.072409  0.094102  1
  H  H446  1  0.571664  0.572973  0.094286  1
  H  H447  1  0.994921  0.476422  0.113911  1
  H  H448  1  0.505170  0.977070  0.114166  1
  H  H449  1  0.493117  0.023376  0.697535  1
  H  H450  1  0.428069  0.428750  0.717294  1
  H  H451  1  0.003355  0.522728  0.697238  1
  H  H452  1  0.071882  0.928572  0.717693  1
  H  H453  1  0.994516  0.023198  0.709078  1
  H  H454  1  0.928605  0.428248  0.689065  1
  H  H455  1  0.503179  0.522879  0.709097  1
  H  H456  1  0.570489  0.927926  0.688817  1
