# generated using pymatgen
data_Si11H6O25
_symmetry_space_group_name_H-M   'P 1'
_cell_length_a   21.11999289
_cell_length_b   21.12704298
_cell_length_c   54.65907323
_cell_angle_alpha   134.96125367
_cell_angle_beta   134.98035700
_cell_angle_gamma   60.03370721
_symmetry_Int_Tables_number   1
_chemical_formula_structural   Si11H6O25
_chemical_formula_sum   'Si44 H24 O100'
_cell_volume   12206.9477466
_cell_formula_units_Z   4
loop_
 _symmetry_equiv_pos_site_id
 _symmetry_equiv_pos_as_xyz
  1  'x, y, z'
loop_
 _atom_site_type_symbol
 _atom_site_label
 _atom_site_symmetry_multiplicity
 _atom_site_fract_x
 _atom_site_fract_y
 _atom_site_fract_z
 _atom_site_occupancy
  O  O1  1  0.407687  0.028135  0.290188  1
  O  O2  1  0.752899  0.017636  0.300853  1
  O  O3  1  0.254576  0.017976  0.258113  1
  O  O4  1  0.921333  0.253271  0.248296  1
  O  O5  1  0.421287  0.253661  0.257835  1
  O  O6  1  0.329123  0.180040  0.316744  1
  O  O7  1  0.399642  0.329382  0.316658  1
  O  O8  1  0.900617  0.331195  0.219693  1
  O  O9  1  0.090541  0.529430  0.340189  1
  O  O10  1  0.873301  0.408860  0.274329  1
  O  O11  1  0.376146  0.408860  0.290428  1
  O  O12  1  0.027154  0.377164  0.290981  1
  O  O13  1  0.528229  0.376388  0.340997  1
  O  O14  1  0.018248  0.421100  0.257972  1
  O  O15  1  0.179815  0.399730  0.316936  1
  O  O16  1  0.972704  0.877073  0.325898  1
  O  O17  1  0.471950  0.875254  0.274889  1
  O  O18  1  0.078447  0.754150  0.300725  1
  O  O19  1  0.578296  0.753655  0.291127  1
  O  O20  1  0.482966  0.921981  0.248469  1
  O  O21  1  0.600057  0.832058  0.274413  1
  O  O22  1  0.820263  0.901124  0.312224  1
  O  O23  1  0.320884  0.899754  0.218621  1
  O  O24  1  0.152035  0.932655  0.174799  1
  O  O25  1  0.651678  0.936013  0.283290  1
  O  O26  1  0.695935  0.848168  0.235783  1
  O  O27  1  0.197033  0.848369  0.199070  1
  O  O28  1  0.567597  0.804050  0.211616  1
  O  O29  1  0.874990  0.092270  0.325538  1
  O  O30  1  0.375850  0.093567  0.341014  1
  O  O31  1  0.019013  0.076049  0.299865  1
  O  O32  1  0.831443  0.318998  0.273322  1
  O  O33  1  0.331042  0.320630  0.219360  1
  O  O34  1  0.901657  0.167747  0.311683  1
  O  O35  1  0.934386  0.194734  0.281847  1
  O  O36  1  0.803292  0.150512  0.210994  1
  O  O37  1  0.849282  0.064829  0.235404  1
  O  O38  1  0.409738  0.471311  0.274845  1
  O  O39  1  0.753411  0.481669  0.290949  1
  O  O40  1  0.253644  0.483121  0.248250  1
  O  O41  1  0.481952  0.579427  0.291190  1
  O  O42  1  0.320227  0.599678  0.274081  1
  O  O43  1  0.151482  0.568008  0.211268  1
  O  O44  1  0.651340  0.567745  0.318652  1
  O  O45  1  0.696256  0.651658  0.318722  1
  O  O46  1  0.196631  0.651165  0.282744  1
  O  O47  1  0.091680  0.972260  0.325421  1
  O  O48  1  0.169902  0.819854  0.312274  1
  O  O49  1  0.067170  0.696333  0.235501  1
  O  O50  1  0.563813  0.697804  0.318034  1
  O  O51  1  0.907502  0.028177  0.358640  1
  O  O52  1  0.828399  0.179130  0.371597  1
  O  O53  1  0.932832  0.302261  0.447662  1
  O  O54  1  0.433053  0.302721  0.364498  1
  O  O55  1  0.590628  0.529233  0.408927  1
  O  O56  1  0.517531  0.421534  0.392331  1
  O  O57  1  0.244749  0.516816  0.391622  1
  O  O58  1  0.746943  0.517063  0.435603  1
  O  O59  1  0.681179  0.402446  0.411281  1
  O  O60  1  0.303014  0.347469  0.364528  1
  O  O61  1  0.804422  0.347261  0.401886  1
  O  O62  1  0.850112  0.435578  0.473820  1
  O  O63  1  0.347529  0.432558  0.364358  1
  O  O64  1  0.125779  0.909898  0.359559  1
  O  O65  1  0.623160  0.908661  0.343391  1
  O  O66  1  0.982012  0.921468  0.382968  1
  O  O67  1  0.098596  0.830477  0.371566  1
  O  O68  1  0.167865  0.679739  0.409436  1
  O  O69  1  0.669123  0.679183  0.464127  1
  O  O70  1  0.152035  0.932655  0.447928  1
  O  O71  1  0.063912  0.802992  0.400698  1
  O  O72  1  0.197033  0.848369  0.472199  1
  O  O73  1  0.026963  0.124230  0.357768  1
  O  O74  1  0.528243  0.124528  0.408777  1
  O  O75  1  0.517953  0.078801  0.435845  1
  O  O76  1  0.921178  0.245022  0.382529  1
  O  O77  1  0.421749  0.246229  0.392434  1
  O  O78  1  0.179582  0.099056  0.371519  1
  O  O79  1  0.680524  0.098837  0.465033  1
  O  O80  1  0.400964  0.169635  0.410319  1
  O  O81  1  0.302754  0.151708  0.448089  1
  O  O82  1  0.803292  0.150512  0.484122  1
  O  O83  1  0.434626  0.196430  0.473034  1
  O  O84  1  0.849282  0.064829  0.508533  1
  O  O85  1  0.348850  0.065372  0.401380  1
  O  O86  1  0.970885  0.626053  0.393517  1
  O  O87  1  0.473186  0.623603  0.343332  1
  O  O88  1  0.907217  0.472607  0.342518  1
  O  O89  1  0.122882  0.592388  0.408038  1
  O  O90  1  0.624715  0.591670  0.393508  1
  O  O91  1  0.982032  0.578627  0.425297  1
  O  O92  1  0.819518  0.600015  0.366586  1
  O  O93  1  0.591208  0.971710  0.393700  1
  O  O94  1  0.078068  0.747605  0.435503  1
  O  O95  1  0.578690  0.746252  0.425791  1
  O  O96  1  0.246652  0.982825  0.383183  1
  O  O97  1  0.747125  0.981483  0.425601  1
  O  O98  1  0.100041  0.671615  0.464833  1
  O  O99  1  0.598718  0.670348  0.366236  1
  O  O100  1  0.668184  0.820713  0.366201  1
  Si  Si101  1  0.836075  0.081200  0.338278  1
  Si  Si102  1  0.336877  0.082247  0.300920  1
  Si  Si103  1  0.082015  0.432879  0.301517  1
  Si  Si104  1  0.930262  0.337573  0.256963  1
  Si  Si105  1  0.431600  0.337351  0.300769  1
  Si  Si106  1  0.069462  0.838279  0.338220  1
  Si  Si107  1  0.568283  0.837052  0.294208  1
  Si  Si108  1  0.418971  0.931418  0.256231  1
  Si  Si109  1  0.573917  0.875016  0.253730  1
  Si  Si110  1  0.727528  0.927802  0.282668  1
  Si  Si111  1  0.231316  0.927862  0.213928  1
  Si  Si112  1  0.079080  0.068299  0.337085  1
  Si  Si113  1  0.874143  0.227377  0.252755  1
  Si  Si114  1  0.930113  0.124217  0.282641  1
  Si  Si115  1  0.836368  0.418400  0.293108  1
  Si  Si116  1  0.337938  0.421365  0.256866  1
  Si  Si117  1  0.419793  0.567607  0.293967  1
  Si  Si118  1  0.571627  0.628299  0.322032  1
  Si  Si119  1  0.730050  0.571916  0.322364  1
  Si  Si120  1  0.227521  0.573774  0.253285  1
  Si  Si121  1  0.127076  0.727275  0.282285  1
  Si  Si122  1  0.624848  0.728235  0.321721  1
  Si  Si123  1  0.373298  0.269504  0.360942  1
  Si  Si124  1  0.873169  0.268149  0.400373  1
  Si  Si125  1  0.581375  0.433391  0.390440  1
  Si  Si126  1  0.161506  0.579639  0.388650  1
  Si  Si127  1  0.662577  0.578811  0.426864  1
  Si  Si128  1  0.269684  0.427087  0.360823  1
  Si  Si129  1  0.773897  0.427904  0.431887  1
  Si  Si130  1  0.427413  0.372838  0.360747  1
  Si  Si131  1  0.919763  0.931804  0.346043  1
  Si  Si132  1  0.071629  0.872788  0.401107  1
  Si  Si133  1  0.125054  0.772268  0.430237  1
  Si  Si134  1  0.582332  0.067803  0.427547  1
  Si  Si135  1  0.931013  0.162642  0.345545  1
  Si  Si136  1  0.432077  0.163974  0.390048  1
  Si  Si137  1  0.272984  0.073538  0.401981  1
  Si  Si138  1  0.769363  0.069938  0.469115  1
  Si  Si139  1  0.426656  0.126474  0.431059  1
  Si  Si140  1  0.067754  0.664450  0.427291  1
  Si  Si141  1  0.569134  0.663181  0.383485  1
  Si  Si142  1  0.917638  0.568837  0.382567  1
  Si  Si143  1  0.162993  0.919611  0.346111  1
  Si  Si144  1  0.662887  0.922081  0.384426  1
  H  H145  1  0.421287  0.253661  0.241370  1
  H  H146  1  0.900617  0.331195  0.203227  1
  H  H147  1  0.018248  0.421100  0.241507  1
  H  H148  1  0.152035  0.932655  0.158334  1
  H  H149  1  0.695935  0.848168  0.219317  1
  H  H150  1  0.197033  0.848369  0.182604  1
  H  H151  1  0.567597  0.804050  0.195150  1
  H  H152  1  0.331042  0.320630  0.202895  1
  H  H153  1  0.803292  0.150512  0.194528  1
  H  H154  1  0.849282  0.064829  0.218939  1
  H  H155  1  0.151482  0.568008  0.194802  1
  H  H156  1  0.067170  0.696333  0.219035  1
  H  H157  1  0.932832  0.302261  0.464128  1
  H  H158  1  0.850112  0.435578  0.490286  1
  H  H159  1  0.669123  0.679183  0.480593  1
  H  H160  1  0.152035  0.932655  0.464394  1
  H  H161  1  0.197033  0.848369  0.488664  1
  H  H162  1  0.302754  0.151708  0.464555  1
  H  H163  1  0.803292  0.150512  0.500588  1
  H  H164  1  0.434626  0.196430  0.489499  1
  H  H165  1  0.849282  0.064829  0.524999  1
  H  H166  1  0.982032  0.578627  0.441763  1
  H  H167  1  0.578690  0.746252  0.442257  1
  H  H168  1  0.100041  0.671615  0.481299  1
