# generated using pymatgen
data_Si47(H3O25)4
_symmetry_space_group_name_H-M   'P 1'
_cell_length_a   21.11999289
_cell_length_b   21.12704298
_cell_length_c   72.03930474
_cell_angle_alpha   134.96125367
_cell_angle_beta   134.98035700
_cell_angle_gamma   60.03370721
_symmetry_Int_Tables_number   1
_chemical_formula_structural   Si47(H3O25)4
_chemical_formula_sum   'Si94 H24 O200'
_cell_volume   16088.4547918
_cell_formula_units_Z   2
loop_
 _symmetry_equiv_pos_site_id
 _symmetry_equiv_pos_as_xyz
  1  'x, y, z'
loop_
 _atom_site_type_symbol
 _atom_site_label
 _atom_site_symmetry_multiplicity
 _atom_site_fract_x
 _atom_site_fract_y
 _atom_site_fract_z
 _atom_site_occupancy
  O  O1  1  0.407687  0.028135  0.236974  1
  O  O2  1  0.752899  0.017636  0.245066  1
  O  O3  1  0.254576  0.017976  0.212637  1
  O  O4  1  0.921333  0.253271  0.205189  1
  O  O5  1  0.421287  0.253661  0.212426  1
  O  O6  1  0.329123  0.180040  0.257123  1
  O  O7  1  0.399642  0.329382  0.257057  1
  O  O8  1  0.932832  0.302261  0.149222  1
  O  O9  1  0.900617  0.331195  0.183486  1
  O  O10  1  0.090541  0.529430  0.274912  1
  O  O11  1  0.873301  0.408860  0.224941  1
  O  O12  1  0.376146  0.408860  0.237155  1
  O  O13  1  0.027154  0.377164  0.237575  1
  O  O14  1  0.528229  0.376388  0.275524  1
  O  O15  1  0.018248  0.421100  0.212530  1
  O  O16  1  0.179815  0.399730  0.257269  1
  O  O17  1  0.850112  0.435578  0.169069  1
  O  O18  1  0.972704  0.877073  0.264068  1
  O  O19  1  0.471950  0.875254  0.225365  1
  O  O20  1  0.078447  0.754150  0.244969  1
  O  O21  1  0.578296  0.753655  0.237686  1
  O  O22  1  0.482966  0.921981  0.205320  1
  O  O23  1  0.600057  0.832058  0.225004  1
  O  O24  1  0.820263  0.901124  0.253693  1
  O  O25  1  0.320884  0.899754  0.182673  1
  O  O26  1  0.669123  0.679183  0.161715  1
  O  O27  1  0.651678  0.936013  0.231740  1
  O  O28  1  0.695935  0.848168  0.195694  1
  O  O29  1  0.567597  0.804050  0.177358  1
  O  O30  1  0.874990  0.092270  0.263795  1
  O  O31  1  0.375850  0.093567  0.275538  1
  O  O32  1  0.019013  0.076049  0.244316  1
  O  O33  1  0.831443  0.318998  0.224177  1
  O  O34  1  0.331042  0.320630  0.183234  1
  O  O35  1  0.901657  0.167747  0.253283  1
  O  O36  1  0.934386  0.194734  0.230645  1
  O  O37  1  0.803292  0.150512  0.176886  1
  O  O38  1  0.849282  0.064829  0.195407  1
  O  O39  1  0.409738  0.471311  0.225332  1
  O  O40  1  0.753411  0.481669  0.237551  1
  O  O41  1  0.253644  0.483121  0.205154  1
  O  O42  1  0.481952  0.579427  0.237734  1
  O  O43  1  0.320227  0.599678  0.224753  1
  O  O44  1  0.151482  0.568008  0.177094  1
  O  O45  1  0.651340  0.567745  0.258571  1
  O  O46  1  0.696256  0.651658  0.258623  1
  O  O47  1  0.196631  0.651165  0.231326  1
  O  O48  1  0.091680  0.972260  0.263706  1
  O  O49  1  0.578690  0.746252  0.132627  1
  O  O50  1  0.169902  0.819854  0.253731  1
  O  O51  1  0.067170  0.696333  0.195480  1
  O  O52  1  0.563813  0.697804  0.258101  1
  O  O53  1  0.907502  0.028177  0.288911  1
  O  O54  1  0.407687  0.028135  0.444208  1
  O  O55  1  0.752899  0.017636  0.452299  1
  O  O56  1  0.254576  0.017976  0.419871  1
  O  O57  1  0.921333  0.253271  0.412423  1
  O  O58  1  0.421287  0.253661  0.419660  1
  O  O59  1  0.828399  0.179130  0.298742  1
  O  O60  1  0.329123  0.180040  0.464357  1
  O  O61  1  0.399642  0.329382  0.464291  1
  O  O62  1  0.932832  0.302261  0.356456  1
  O  O63  1  0.433053  0.302721  0.293355  1
  O  O64  1  0.900617  0.331195  0.390720  1
  O  O65  1  0.090541  0.529430  0.482145  1
  O  O66  1  0.873301  0.408860  0.432175  1
  O  O67  1  0.590628  0.529233  0.327065  1
  O  O68  1  0.376146  0.408860  0.444389  1
  O  O69  1  0.027154  0.377164  0.444809  1
  O  O70  1  0.528229  0.376388  0.482758  1
  O  O71  1  0.018248  0.421100  0.419764  1
  O  O72  1  0.517531  0.421534  0.314473  1
  O  O73  1  0.244749  0.516816  0.313936  1
  O  O74  1  0.746943  0.517063  0.347306  1
  O  O75  1  0.179815  0.399730  0.464502  1
  O  O76  1  0.681179  0.402446  0.328852  1
  O  O77  1  0.303014  0.347469  0.293378  1
  O  O78  1  0.804422  0.347261  0.321723  1
  O  O79  1  0.850112  0.435578  0.376303  1
  O  O80  1  0.347529  0.432558  0.293250  1
  O  O81  1  0.972704  0.877073  0.471302  1
  O  O82  1  0.471950  0.875254  0.432599  1
  O  O83  1  0.125779  0.909898  0.289608  1
  O  O84  1  0.623160  0.908661  0.277341  1
  O  O85  1  0.078447  0.754150  0.452202  1
  O  O86  1  0.578296  0.753655  0.444920  1
  O  O87  1  0.982012  0.921468  0.307369  1
  O  O88  1  0.482966  0.921981  0.412554  1
  O  O89  1  0.098596  0.830477  0.298718  1
  O  O90  1  0.600057  0.832058  0.432238  1
  O  O91  1  0.820263  0.901124  0.460927  1
  O  O92  1  0.167865  0.679739  0.327452  1
  O  O93  1  0.320884  0.899754  0.389907  1
  O  O94  1  0.669123  0.679183  0.368948  1
  O  O95  1  0.152035  0.932655  0.356657  1
  O  O96  1  0.651678  0.936013  0.438973  1
  O  O97  1  0.695935  0.848168  0.402928  1
  O  O98  1  0.063912  0.802992  0.320822  1
  O  O99  1  0.197033  0.848369  0.375072  1
  O  O100  1  0.567597  0.804050  0.384591  1
  O  O101  1  0.874990  0.092270  0.471029  1
  O  O102  1  0.375850  0.093567  0.482771  1
  O  O103  1  0.026963  0.124230  0.288249  1
  O  O104  1  0.528243  0.124528  0.326952  1
  O  O105  1  0.019013  0.076049  0.451550  1
  O  O106  1  0.517953  0.078801  0.347489  1
  O  O107  1  0.921178  0.245022  0.307037  1
  O  O108  1  0.421749  0.246229  0.314551  1
  O  O109  1  0.179582  0.099056  0.298683  1
  O  O110  1  0.831443  0.318998  0.431411  1
  O  O111  1  0.680524  0.098837  0.369636  1
  O  O112  1  0.331042  0.320630  0.390468  1
  O  O113  1  0.901657  0.167747  0.460516  1
  O  O114  1  0.400964  0.169635  0.328122  1
  O  O115  1  0.302754  0.151708  0.356779  1
  O  O116  1  0.934386  0.194734  0.437879  1
  O  O117  1  0.803292  0.150512  0.384119  1
  O  O118  1  0.434626  0.196430  0.375706  1
  O  O119  1  0.849282  0.064829  0.402641  1
  O  O120  1  0.348850  0.065372  0.321339  1
  O  O121  1  0.970885  0.626053  0.315374  1
  O  O122  1  0.473186  0.623603  0.277296  1
  O  O123  1  0.907217  0.472607  0.276678  1
  O  O124  1  0.122882  0.592388  0.326391  1
  O  O125  1  0.409738  0.471311  0.432566  1
  O  O126  1  0.624715  0.591670  0.315367  1
  O  O127  1  0.753411  0.481669  0.444785  1
  O  O128  1  0.253644  0.483121  0.412388  1
  O  O129  1  0.982032  0.578627  0.339486  1
  O  O130  1  0.481952  0.579427  0.444968  1
  O  O131  1  0.819518  0.600015  0.294940  1
  O  O132  1  0.320227  0.599678  0.431986  1
  O  O133  1  0.151482  0.568008  0.384327  1
  O  O134  1  0.651340  0.567745  0.465804  1
  O  O135  1  0.696256  0.651658  0.465857  1
  O  O136  1  0.196631  0.651165  0.438559  1
  O  O137  1  0.091680  0.972260  0.470940  1
  O  O138  1  0.591208  0.971710  0.315512  1
  O  O139  1  0.078068  0.747605  0.347230  1
  O  O140  1  0.578690  0.746252  0.339861  1
  O  O141  1  0.246652  0.982825  0.307533  1
  O  O142  1  0.747125  0.981483  0.339716  1
  O  O143  1  0.100041  0.671615  0.369484  1
  O  O144  1  0.598718  0.670348  0.294674  1
  O  O145  1  0.169902  0.819854  0.460965  1
  O  O146  1  0.668184  0.820713  0.294648  1
  O  O147  1  0.067170  0.696333  0.402714  1
  O  O148  1  0.563813  0.697804  0.465335  1
  O  O149  1  0.907502  0.028177  0.496144  1
  O  O150  1  0.254576  0.017976  0.627105  1
  O  O151  1  0.828399  0.179130  0.505975  1
  O  O152  1  0.932832  0.302261  0.563689  1
  O  O153  1  0.433053  0.302721  0.500589  1
  O  O154  1  0.590628  0.529233  0.534299  1
  O  O155  1  0.517531  0.421534  0.521707  1
  O  O156  1  0.244749  0.516816  0.521170  1
  O  O157  1  0.746943  0.517063  0.554540  1
  O  O158  1  0.681179  0.402446  0.536086  1
  O  O159  1  0.303014  0.347469  0.500612  1
  O  O160  1  0.804422  0.347261  0.528957  1
  O  O161  1  0.850112  0.435578  0.583536  1
  O  O162  1  0.347529  0.432558  0.500483  1
  O  O163  1  0.125779  0.909898  0.496842  1
  O  O164  1  0.623160  0.908661  0.484574  1
  O  O165  1  0.982012  0.921468  0.514603  1
  O  O166  1  0.098596  0.830477  0.505952  1
  O  O167  1  0.167865  0.679739  0.534685  1
  O  O168  1  0.320884  0.899754  0.597140  1
  O  O169  1  0.669123  0.679183  0.576182  1
  O  O170  1  0.152035  0.932655  0.563891  1
  O  O171  1  0.695935  0.848168  0.610161  1
  O  O172  1  0.063912  0.802992  0.528056  1
  O  O173  1  0.197033  0.848369  0.582306  1
  O  O174  1  0.567597  0.804050  0.591825  1
  O  O175  1  0.026963  0.124230  0.495483  1
  O  O176  1  0.528243  0.124528  0.534186  1
  O  O177  1  0.517953  0.078801  0.554723  1
  O  O178  1  0.921178  0.245022  0.514270  1
  O  O179  1  0.421749  0.246229  0.521785  1
  O  O180  1  0.179582  0.099056  0.505916  1
  O  O181  1  0.680524  0.098837  0.576869  1
  O  O182  1  0.400964  0.169635  0.535356  1
  O  O183  1  0.302754  0.151708  0.564013  1
  O  O184  1  0.434626  0.196430  0.582940  1
  O  O185  1  0.348850  0.065372  0.528573  1
  O  O186  1  0.970885  0.626053  0.522607  1
  O  O187  1  0.473186  0.623603  0.484530  1
  O  O188  1  0.907217  0.472607  0.483912  1
  O  O189  1  0.122882  0.592388  0.533625  1
  O  O190  1  0.624715  0.591670  0.522600  1
  O  O191  1  0.982032  0.578627  0.546720  1
  O  O192  1  0.819518  0.600015  0.502174  1
  O  O193  1  0.591208  0.971710  0.522746  1
  O  O194  1  0.078068  0.747605  0.554464  1
  O  O195  1  0.578690  0.746252  0.547095  1
  O  O196  1  0.246652  0.982825  0.514766  1
  O  O197  1  0.747125  0.981483  0.546950  1
  O  O198  1  0.100041  0.671615  0.576717  1
  O  O199  1  0.598718  0.670348  0.501908  1
  O  O200  1  0.668184  0.820713  0.501881  1
  Si  Si201  1  0.836075  0.081200  0.273461  1
  Si  Si202  1  0.336877  0.082247  0.245117  1
  Si  Si203  1  0.082015  0.432879  0.245569  1
  Si  Si204  1  0.930262  0.337573  0.211765  1
  Si  Si205  1  0.431600  0.337351  0.245002  1
  Si  Si206  1  0.927371  0.374023  0.178763  1
  Si  Si207  1  0.069462  0.838279  0.273418  1
  Si  Si208  1  0.568283  0.837052  0.240024  1
  Si  Si209  1  0.418971  0.931418  0.211209  1
  Si  Si210  1  0.573917  0.875016  0.209312  1
  Si  Si211  1  0.727528  0.927802  0.231268  1
  Si  Si212  1  0.626350  0.770630  0.166124  1
  Si  Si213  1  0.079080  0.068299  0.272556  1
  Si  Si214  1  0.874143  0.227377  0.208572  1
  Si  Si215  1  0.930113  0.124217  0.231247  1
  Si  Si216  1  0.836368  0.418400  0.239189  1
  Si  Si217  1  0.337938  0.421365  0.211691  1
  Si  Si218  1  0.419793  0.567607  0.239841  1
  Si  Si219  1  0.571627  0.628299  0.261135  1
  Si  Si220  1  0.730050  0.571916  0.261387  1
  Si  Si221  1  0.227521  0.573774  0.208974  1
  Si  Si222  1  0.127076  0.727275  0.230977  1
  Si  Si223  1  0.624848  0.728235  0.260899  1
  Si  Si224  1  0.373298  0.269504  0.290657  1
  Si  Si225  1  0.836075  0.081200  0.480695  1
  Si  Si226  1  0.336877  0.082247  0.452350  1
  Si  Si227  1  0.873169  0.268149  0.320576  1
  Si  Si228  1  0.082015  0.432879  0.452803  1
  Si  Si229  1  0.581375  0.433391  0.313039  1
  Si  Si230  1  0.161506  0.579639  0.311681  1
  Si  Si231  1  0.930262  0.337573  0.418998  1
  Si  Si232  1  0.662577  0.578811  0.340675  1
  Si  Si233  1  0.431600  0.337351  0.452235  1
  Si  Si234  1  0.269684  0.427087  0.290567  1
  Si  Si235  1  0.773897  0.427904  0.344486  1
  Si  Si236  1  0.927371  0.374023  0.385997  1
  Si  Si237  1  0.427413  0.372838  0.290510  1
  Si  Si238  1  0.069462  0.838279  0.480651  1
  Si  Si239  1  0.568283  0.837052  0.447257  1
  Si  Si240  1  0.919763  0.931804  0.279353  1
  Si  Si241  1  0.418971  0.931418  0.418443  1
  Si  Si242  1  0.071629  0.872788  0.321132  1
  Si  Si243  1  0.573917  0.875016  0.416545  1
  Si  Si244  1  0.727528  0.927802  0.438501  1
  Si  Si245  1  0.125054  0.772268  0.343234  1
  Si  Si246  1  0.231316  0.927862  0.386346  1
  Si  Si247  1  0.626350  0.770630  0.373357  1
  Si  Si248  1  0.079080  0.068299  0.479790  1
  Si  Si249  1  0.582332  0.067803  0.341193  1
  Si  Si250  1  0.931013  0.162642  0.278975  1
  Si  Si251  1  0.432077  0.163974  0.312742  1
  Si  Si252  1  0.272984  0.073538  0.321795  1
  Si  Si253  1  0.874143  0.227377  0.415805  1
  Si  Si254  1  0.769363  0.069938  0.372733  1
  Si  Si255  1  0.373183  0.227003  0.385365  1
  Si  Si256  1  0.930113  0.124217  0.438481  1
  Si  Si257  1  0.426656  0.126474  0.343858  1
  Si  Si258  1  0.836368  0.418400  0.446423  1
  Si  Si259  1  0.067754  0.664450  0.340999  1
  Si  Si260  1  0.337938  0.421365  0.418925  1
  Si  Si261  1  0.569134  0.663181  0.307761  1
  Si  Si262  1  0.917638  0.568837  0.307065  1
  Si  Si263  1  0.419793  0.567607  0.447075  1
  Si  Si264  1  0.071966  0.627317  0.373043  1
  Si  Si265  1  0.571627  0.628299  0.468369  1
  Si  Si266  1  0.730050  0.571916  0.468620  1
  Si  Si267  1  0.227521  0.573774  0.416208  1
  Si  Si268  1  0.162993  0.919611  0.279405  1
  Si  Si269  1  0.662887  0.922081  0.308475  1
  Si  Si270  1  0.127076  0.727275  0.438211  1
  Si  Si271  1  0.624848  0.728235  0.468133  1
  Si  Si272  1  0.373298  0.269504  0.497891  1
  Si  Si273  1  0.873169  0.268149  0.527809  1
  Si  Si274  1  0.581375  0.433391  0.520272  1
  Si  Si275  1  0.161506  0.579639  0.518915  1
  Si  Si276  1  0.662577  0.578811  0.547909  1
  Si  Si277  1  0.269684  0.427087  0.497801  1
  Si  Si278  1  0.773897  0.427904  0.551720  1
  Si  Si279  1  0.427413  0.372838  0.497743  1
  Si  Si280  1  0.919763  0.931804  0.486587  1
  Si  Si281  1  0.071629  0.872788  0.528366  1
  Si  Si282  1  0.125054  0.772268  0.550468  1
  Si  Si283  1  0.231316  0.927862  0.593579  1
  Si  Si284  1  0.626350  0.770630  0.580591  1
  Si  Si285  1  0.582332  0.067803  0.548427  1
  Si  Si286  1  0.931013  0.162642  0.486209  1
  Si  Si287  1  0.432077  0.163974  0.519975  1
  Si  Si288  1  0.272984  0.073538  0.529029  1
  Si  Si289  1  0.426656  0.126474  0.551092  1
  Si  Si290  1  0.067754  0.664450  0.548233  1
  Si  Si291  1  0.569134  0.663181  0.514995  1
  Si  Si292  1  0.917638  0.568837  0.514299  1
  Si  Si293  1  0.162993  0.919611  0.486639  1
  Si  Si294  1  0.662887  0.922081  0.515709  1
  H  H295  1  0.254576  0.017976  0.200144  1
  H  H296  1  0.421287  0.253661  0.199933  1
  H  H297  1  0.932832  0.302261  0.136729  1
  H  H298  1  0.850112  0.435578  0.156576  1
  H  H299  1  0.320884  0.899754  0.170180  1
  H  H300  1  0.669123  0.679183  0.149221  1
  H  H301  1  0.331042  0.320630  0.170741  1
  H  H302  1  0.803292  0.150512  0.164393  1
  H  H303  1  0.849282  0.064829  0.182914  1
  H  H304  1  0.151482  0.568008  0.164600  1
  H  H305  1  0.578690  0.746252  0.120134  1
  H  H306  1  0.067170  0.696333  0.182987  1
  H  H307  1  0.254576  0.017976  0.639598  1
  H  H308  1  0.932832  0.302261  0.576182  1
  H  H309  1  0.850112  0.435578  0.596030  1
  H  H310  1  0.320884  0.899754  0.609634  1
  H  H311  1  0.695935  0.848168  0.622655  1
  H  H312  1  0.567597  0.804050  0.604318  1
  H  H313  1  0.680524  0.098837  0.589362  1
  H  H314  1  0.302754  0.151708  0.576506  1
  H  H315  1  0.434626  0.196430  0.595433  1
  H  H316  1  0.982032  0.578627  0.559213  1
  H  H317  1  0.747125  0.981483  0.559443  1
  H  H318  1  0.100041  0.671615  0.589211  1
