# generated using pymatgen
data_Si61(HO31)4
_symmetry_space_group_name_H-M   'P 1'
_cell_length_a   19.80640796
_cell_length_b   19.84885801
_cell_length_c   74.30208355
_cell_angle_alpha   90.00000000
_cell_angle_beta   90.00000000
_cell_angle_gamma   90.00000000
_symmetry_Int_Tables_number   1
_chemical_formula_structural   Si61(HO31)4
_chemical_formula_sum   'Si244 H16 O496'
_cell_volume   29210.7183561
_cell_formula_units_Z   4
loop_
 _symmetry_equiv_pos_site_id
 _symmetry_equiv_pos_as_xyz
  1  'x, y, z'
loop_
 _atom_site_type_symbol
 _atom_site_label
 _atom_site_symmetry_multiplicity
 _atom_site_fract_x
 _atom_site_fract_y
 _atom_site_fract_z
 _atom_site_occupancy
  O  O1  1  0.488365  0.019083  0.132712  1
  O  O2  1  0.376780  0.012727  0.170068  1
  O  O3  1  0.017550  0.121031  0.295714  1
  O  O4  1  0.441599  0.131633  0.141763  1
  O  O5  1  0.410663  0.056350  0.200799  1
  O  O6  1  0.131733  0.089078  0.283600  1
  O  O7  1  0.366582  0.027576  0.137646  1
  O  O8  1  0.395373  0.134140  0.173721  1
  O  O9  1  0.028745  0.103311  0.263114  1
  O  O10  1  0.071415  0.288580  0.146659  1
  O  O11  1  0.428982  0.071286  0.108771  1
  O  O12  1  0.288023  0.071751  0.185196  1
  O  O13  1  0.073358  0.211676  0.279830  1
  O  O14  1  0.000000  0.177987  0.141812  1
  O  O15  1  0.410859  0.000000  0.079406  1
  O  O16  1  0.079260  0.061477  0.182619  1
  O  O17  1  0.179063  0.090521  0.165993  1
  O  O18  1  0.002899  0.320810  0.275183  1
  O  O19  1  0.080227  0.181681  0.167210  1
  O  O20  1  0.003474  0.078563  0.116943  1
  O  O21  1  0.475856  0.233096  0.164297  1
  O  O22  1  0.234460  0.004667  0.293091  1
  O  O23  1  0.475962  0.266302  0.297635  1
  O  O24  1  0.493117  0.023376  0.228191  1
  O  O25  1  0.063301  0.079971  0.149302  1
  O  O26  1  0.123097  0.513833  0.169960  1
  O  O27  1  0.019473  0.379093  0.162175  1
  O  O28  1  0.482526  0.624425  0.295313  1
  O  O29  1  0.011373  0.520210  0.132533  1
  O  O30  1  0.486732  0.482665  0.266492  1
  O  O31  1  0.089108  0.557764  0.200655  1
  O  O32  1  0.134988  0.408874  0.150364  1
  O  O33  1  0.367243  0.590113  0.284022  1
  O  O34  1  0.058334  0.632953  0.141660  1
  O  O35  1  0.441855  0.368640  0.275196  1
  O  O36  1  0.104490  0.635411  0.173583  1
  O  O37  1  0.031635  0.399523  0.129634  1
  O  O38  1  0.468287  0.603481  0.263066  1
  O  O39  1  0.133124  0.528343  0.137581  1
  O  O40  1  0.364837  0.471134  0.271333  1
  O  O41  1  0.211998  0.572470  0.185097  1
  O  O42  1  0.070920  0.571439  0.108638  1
  O  O43  1  0.428069  0.428750  0.242321  1
  O  O44  1  0.320960  0.590498  0.165987  1
  O  O45  1  0.090464  0.499677  0.079721  1
  O  O46  1  0.408730  0.499569  0.213376  1
  O  O47  1  0.319144  0.496103  0.186687  1
  O  O48  1  0.004720  0.421025  0.250934  1
  O  O49  1  0.496081  0.579419  0.117256  1
  O  O50  1  0.265506  0.505486  0.292887  1
  O  O51  1  0.233235  0.496709  0.159344  1
  O  O52  1  0.003355  0.522728  0.227979  1
  O  O53  1  0.495089  0.477184  0.094317  1
  O  O54  1  0.420492  0.561416  0.182808  1
  O  O55  1  0.436492  0.579707  0.149563  1
  O  O56  1  0.065872  0.421971  0.282688  1
  O  O57  1  0.440131  0.436356  0.186669  1
  O  O58  1  0.014024  0.981733  0.266220  1
  O  O59  1  0.481931  0.877296  0.161598  1
  O  O60  1  0.057995  0.865587  0.274541  1
  O  O61  1  0.364985  0.908261  0.150404  1
  O  O62  1  0.135096  0.968640  0.271869  1
  O  O63  1  0.466993  0.898904  0.129354  1
  O  O64  1  0.426779  0.712009  0.279557  1
  O  O65  1  0.071882  0.928572  0.242607  1
  O  O66  1  0.428061  0.788809  0.146278  1
  O  O67  1  0.498379  0.821053  0.274588  1
  O  O68  1  0.180556  0.996503  0.186854  1
  O  O69  1  0.420639  0.681258  0.166724  1
  O  O70  1  0.492397  0.919875  0.250204  1
  O  O71  1  0.022996  0.767063  0.297786  1
  O  O72  1  0.266421  0.996167  0.159459  1
  O  O73  1  0.024907  0.735021  0.164151  1
  O  O74  1  0.003956  0.976145  0.093835  1
  O  O75  1  0.435189  0.920436  0.282379  1
  O  O76  1  0.060769  0.936754  0.186776  1
  O  O77  1  0.499435  0.679226  0.141742  1
  O  O78  1  0.089051  0.000000  0.213363  1
  O  O79  1  0.876143  0.013489  0.294517  1
  O  O80  1  0.516521  0.122695  0.169456  1
  O  O81  1  0.909933  0.055621  0.263689  1
  O  O82  1  0.631771  0.088345  0.180875  1
  O  O83  1  0.896637  0.133947  0.290709  1
  O  O84  1  0.530252  0.103045  0.201789  1
  O  O85  1  0.788133  0.071754  0.279524  1
  O  O86  1  0.573179  0.210522  0.184868  1
  O  O87  1  0.927801  0.072409  0.088239  1
  O  O88  1  0.679507  0.089458  0.298768  1
  O  O89  1  0.501763  0.319961  0.189310  1
  O  O90  1  0.910149  0.001235  0.117389  1
  O  O91  1  0.818626  0.003561  0.144147  1
  O  O92  1  0.578981  0.318248  0.164357  1
  O  O93  1  0.504618  0.079483  0.079955  1
  O  O94  1  0.579200  0.181291  0.298017  1
  O  O95  1  0.734129  0.004162  0.171743  1
  O  O96  1  0.977450  0.265493  0.167021  1
  O  O97  1  0.994516  0.023198  0.236446  1
  O  O98  1  0.578933  0.060487  0.282228  1
  O  O99  1  0.937918  0.064356  0.144351  1
  O  O100  1  0.987173  0.482421  0.197975  1
  O  O101  1  0.621466  0.513056  0.294278  1
  O  O102  1  0.876481  0.485814  0.160711  1
  O  O103  1  0.983123  0.623694  0.169204  1
  O  O104  1  0.942704  0.368546  0.189105  1
  O  O105  1  0.588664  0.558089  0.263872  1
  O  O106  1  0.910436  0.443372  0.129881  1
  O  O107  1  0.867729  0.589780  0.180439  1
  O  O108  1  0.865327  0.470786  0.193103  1
  O  O109  1  0.604039  0.634929  0.291209  1
  O  O110  1  0.898322  0.365097  0.156892  1
  O  O111  1  0.968480  0.603131  0.201351  1
  O  O112  1  0.928605  0.428248  0.222135  1
  O  O113  1  0.571664  0.572973  0.088371  1
  O  O114  1  0.712291  0.571072  0.279824  1
  O  O115  1  0.788519  0.427001  0.145883  1
  O  O116  1  0.908922  0.499262  0.251010  1
  O  O117  1  0.589058  0.501814  0.117626  1
  O  O118  1  0.821542  0.590044  0.298504  1
  O  O119  1  0.679283  0.409728  0.165042  1
  O  O120  1  0.819991  0.495569  0.277829  1
  O  O121  1  0.681063  0.503953  0.144219  1
  O  O122  1  0.995211  0.578809  0.079629  1
  O  O123  1  0.504003  0.420732  0.213548  1
  O  O124  1  0.765892  0.504545  0.171678  1
  O  O125  1  0.994921  0.476422  0.102405  1
  O  O126  1  0.503179  0.522879  0.236460  1
  O  O127  1  0.565532  0.420773  0.181897  1
  O  O128  1  0.940763  0.436532  0.277766  1
  O  O129  1  0.561859  0.565226  0.144636  1
  O  O130  1  0.920873  0.561424  0.281573  1
  O  O131  1  0.578680  0.439955  0.148581  1
  O  O132  1  0.623532  0.985033  0.160844  1
  O  O133  1  0.514447  0.982272  0.198349  1
  O  O134  1  0.589137  0.941876  0.130101  1
  O  O135  1  0.557176  0.867624  0.189193  1
  O  O136  1  0.603259  0.864195  0.157235  1
  O  O137  1  0.635488  0.968558  0.193122  1
  O  O138  1  0.711558  0.926564  0.145939  1
  O  O139  1  0.928754  0.711922  0.184464  1
  O  O140  1  0.570489  0.927926  0.221957  1
  O  O141  1  0.821149  0.909728  0.165067  1
  O  O142  1  0.000000  0.821395  0.189318  1
  O  O143  1  0.560146  0.936104  0.277342  1
  O  O144  1  0.587515  0.000000  0.251331  1
  O  O145  1  0.680663  0.995750  0.277800  1
  O  O146  1  0.920567  0.681292  0.297607  1
  O  O147  1  0.995727  0.920859  0.213744  1
  O  O148  1  0.921978  0.819446  0.164213  1
  O  O149  1  0.505170  0.977070  0.102587  1
  O  O150  1  0.523093  0.765829  0.166854  1
  O  O151  1  0.920917  0.939483  0.148376  1
  O  O152  1  0.936079  0.920489  0.181710  1
  O  O153  1  0.488365  0.019083  0.400051  1
  O  O154  1  0.376780  0.012727  0.437407  1
  O  O155  1  0.017550  0.121031  0.563053  1
  O  O156  1  0.441599  0.131633  0.409102  1
  O  O157  1  0.410663  0.056350  0.468138  1
  O  O158  1  0.131733  0.089078  0.550939  1
  O  O159  1  0.366582  0.027576  0.404985  1
  O  O160  1  0.395373  0.134140  0.441060  1
  O  O161  1  0.028745  0.103311  0.530453  1
  O  O162  1  0.071415  0.288580  0.413998  1
  O  O163  1  0.428982  0.071286  0.376110  1
  O  O164  1  0.288023  0.071751  0.452534  1
  O  O165  1  0.073358  0.211676  0.547168  1
  O  O166  1  0.000000  0.177987  0.409150  1
  O  O167  1  0.410859  0.000000  0.346744  1
  O  O168  1  0.079260  0.061477  0.449958  1
  O  O169  1  0.179063  0.090521  0.433331  1
  O  O170  1  0.002899  0.320810  0.542522  1
  O  O171  1  0.080227  0.181681  0.434549  1
  O  O172  1  0.319438  0.005705  0.320392  1
  O  O173  1  0.079806  0.319337  0.300133  1
  O  O174  1  0.003474  0.078563  0.384282  1
  O  O175  1  0.475856  0.233096  0.431635  1
  O  O176  1  0.234460  0.004667  0.560429  1
  O  O177  1  0.475962  0.266302  0.564974  1
  O  O178  1  0.493117  0.023376  0.495530  1
  O  O179  1  0.063301  0.079971  0.416641  1
  O  O180  1  0.440007  0.063623  0.320126  1
  O  O181  1  0.376151  0.485809  0.303682  1
  O  O182  1  0.123097  0.513833  0.437299  1
  O  O183  1  0.019473  0.379093  0.429514  1
  O  O184  1  0.482526  0.624425  0.562652  1
  O  O185  1  0.011373  0.520210  0.399872  1
  O  O186  1  0.486732  0.482665  0.533830  1
  O  O187  1  0.410616  0.442151  0.334344  1
  O  O188  1  0.089108  0.557764  0.467994  1
  O  O189  1  0.134988  0.408874  0.417702  1
  O  O190  1  0.367243  0.590113  0.551361  1
  O  O191  1  0.058334  0.632953  0.408999  1
  O  O192  1  0.441855  0.368640  0.542534  1
  O  O193  1  0.395408  0.364619  0.307146  1
  O  O194  1  0.104490  0.635411  0.440922  1
  O  O195  1  0.031635  0.399523  0.396973  1
  O  O196  1  0.468287  0.603481  0.530405  1
  O  O197  1  0.133124  0.528343  0.404919  1
  O  O198  1  0.364837  0.471134  0.538672  1
  O  O199  1  0.288032  0.427907  0.318685  1
  O  O200  1  0.211998  0.572470  0.452435  1
  O  O201  1  0.070920  0.571439  0.375977  1
  O  O202  1  0.428069  0.428750  0.509660  1
  O  O203  1  0.179282  0.410940  0.299495  1
  O  O204  1  0.320960  0.590498  0.433325  1
  O  O205  1  0.090464  0.499677  0.347060  1
  O  O206  1  0.408730  0.499569  0.480714  1
  O  O207  1  0.180708  0.504674  0.320492  1
  O  O208  1  0.319144  0.496103  0.454026  1
  O  O209  1  0.004720  0.421025  0.518272  1
  O  O210  1  0.496081  0.579419  0.384594  1
  O  O211  1  0.265506  0.505486  0.560226  1
  O  O212  1  0.233235  0.496709  0.426683  1
  O  O213  1  0.003355  0.522728  0.495318  1
  O  O214  1  0.495089  0.477184  0.361656  1
  O  O215  1  0.078884  0.440210  0.316128  1
  O  O216  1  0.420492  0.561416  0.450147  1
  O  O217  1  0.436492  0.579707  0.416902  1
  O  O218  1  0.065872  0.421971  0.550026  1
  O  O219  1  0.060593  0.565142  0.320479  1
  O  O220  1  0.440131  0.436356  0.454007  1
  O  O221  1  0.014024  0.981733  0.533559  1
  O  O222  1  0.123196  0.987317  0.303999  1
  O  O223  1  0.481931  0.877296  0.428937  1
  O  O224  1  0.057995  0.865587  0.541880  1
  O  O225  1  0.091579  0.942269  0.334872  1
  O  O226  1  0.364985  0.908261  0.417743  1
  O  O227  1  0.135096  0.968640  0.539208  1
  O  O228  1  0.103263  0.866736  0.306946  1
  O  O229  1  0.466993  0.898904  0.396693  1
  O  O230  1  0.426779  0.712009  0.546896  1
  O  O231  1  0.071882  0.928572  0.509945  1
  O  O232  1  0.212423  0.928824  0.318439  1
  O  O233  1  0.428061  0.788809  0.413616  1
  O  O234  1  0.498379  0.821053  0.541927  1
  O  O235  1  0.320470  0.909510  0.299088  1
  O  O236  1  0.420540  0.819054  0.299863  1
  O  O237  1  0.180556  0.996503  0.454193  1
  O  O238  1  0.420639  0.681258  0.434063  1
  O  O239  1  0.492397  0.919875  0.517543  1
  O  O240  1  0.022996  0.767063  0.565125  1
  O  O241  1  0.266421  0.996167  0.426798  1
  O  O242  1  0.024907  0.735021  0.431489  1
  O  O243  1  0.003956  0.976145  0.361173  1
  O  O244  1  0.435189  0.920436  0.549718  1
  O  O245  1  0.060769  0.936754  0.454114  1
  O  O246  1  0.419553  0.939160  0.315845  1
  O  O247  1  0.499435  0.679226  0.409081  1
  O  O248  1  0.089051  -0.000000  0.480702  1
  O  O249  1  0.876143  0.013489  0.561856  1
  O  O250  1  0.516521  0.122695  0.436795  1
  O  O251  1  0.986580  0.015965  0.331828  1
  O  O252  1  0.909933  0.055621  0.531028  1
  O  O253  1  0.631771  0.088345  0.448214  1
  O  O254  1  0.942219  0.130916  0.322855  1
  O  O255  1  0.896637  0.133947  0.558048  1
  O  O256  1  0.530252  0.103045  0.469127  1
  O  O257  1  0.864819  0.029410  0.326897  1
  O  O258  1  0.788133  0.071754  0.546862  1
  O  O259  1  0.573179  0.210522  0.452207  1
  O  O260  1  0.572920  0.288811  0.318371  1
  O  O261  1  0.927801  0.072409  0.355578  1
  O  O262  1  0.679507  0.089458  0.566107  1
  O  O263  1  0.501763  0.319961  0.456649  1
  O  O264  1  0.501429  0.179618  0.322856  1
  O  O265  1  0.910149  0.001235  0.384728  1
  O  O266  1  0.818626  0.003561  0.411486  1
  O  O267  1  0.578981  0.318248  0.431696  1
  O  O268  1  0.504618  0.079483  0.347293  1
  O  O269  1  0.579200  0.181291  0.565356  1
  O  O270  1  0.734129  0.004162  0.439082  1
  O  O271  1  0.977450  0.265493  0.434360  1
  O  O272  1  0.994516  0.023198  0.503784  1
  O  O273  1  0.978131  0.232610  0.300015  1
  O  O274  1  0.578933  0.060487  0.549567  1
  O  O275  1  0.565391  0.078799  0.315563  1
  O  O276  1  0.937918  0.064356  0.411690  1
  O  O277  1  0.987173  0.482421  0.465314  1
  O  O278  1  0.511619  0.518715  0.331759  1
  O  O279  1  0.621466  0.513056  0.561616  1
  O  O280  1  0.876481  0.485814  0.428050  1
  O  O281  1  0.983123  0.623694  0.436543  1
  O  O282  1  0.516644  0.376654  0.302849  1
  O  O283  1  0.942704  0.368546  0.456444  1
  O  O284  1  0.556634  0.632769  0.323018  1
  O  O285  1  0.588664  0.558089  0.531211  1
  O  O286  1  0.910436  0.443372  0.397220  1
  O  O287  1  0.867729  0.589780  0.447778  1
  O  O288  1  0.632253  0.410766  0.314132  1
  O  O289  1  0.865327  0.470786  0.460442  1
  O  O290  1  0.633561  0.530166  0.326628  1
  O  O291  1  0.604039  0.634929  0.558548  1
  O  O292  1  0.898322  0.365097  0.424230  1
  O  O293  1  0.968480  0.603131  0.468690  1
  O  O294  1  0.531433  0.397566  0.335084  1
  O  O295  1  0.928605  0.428248  0.489473  1
  O  O296  1  0.571664  0.572973  0.355709  1
  O  O297  1  0.712291  0.571072  0.547162  1
  O  O298  1  0.788519  0.427001  0.413221  1
  O  O299  1  0.908922  0.499262  0.518348  1
  O  O300  1  0.589058  0.501814  0.384964  1
  O  O301  1  0.821542  0.590044  0.565843  1
  O  O302  1  0.679283  0.409728  0.432380  1
  O  O303  1  0.819991  0.495569  0.545168  1
  O  O304  1  0.681063  0.503953  0.411558  1
  O  O305  1  0.995211  0.578809  0.346968  1
  O  O306  1  0.504003  0.420732  0.480886  1
  O  O307  1  0.734178  0.496610  0.304987  1
  O  O308  1  0.765892  0.504545  0.439017  1
  O  O309  1  0.994921  0.476422  0.369744  1
  O  O310  1  0.503179  0.522879  0.503798  1
  O  O311  1  0.565532  0.420773  0.449236  1
  O  O312  1  0.936154  0.580000  0.314834  1
  O  O313  1  0.940763  0.436532  0.545105  1
  O  O314  1  0.561859  0.565226  0.411974  1
  O  O315  1  0.920873  0.561424  0.548911  1
  O  O316  1  0.578680  0.439955  0.415919  1
  O  O317  1  0.623532  0.985033  0.428183  1
  O  O318  1  0.982407  0.876915  0.302075  1
  O  O319  1  0.514447  0.982272  0.465687  1
  O  O320  1  0.589137  0.941876  0.397440  1
  O  O321  1  0.867686  0.910299  0.314334  1
  O  O322  1  0.557176  0.867624  0.456532  1
  O  O323  1  0.603259  0.864195  0.424574  1
  O  O324  1  0.971631  0.894671  0.334450  1
  O  O325  1  0.635488  0.968558  0.460460  1
  O  O326  1  0.711558  0.926564  0.413278  1
  O  O327  1  0.926139  0.788124  0.317930  1
  O  O328  1  0.928754  0.711922  0.451803  1
  O  O329  1  0.570489  0.927926  0.489296  1
  O  O330  1  0.821149  0.909728  0.432406  1
  O  O331  1  0.997821  0.679975  0.322915  1
  O  O332  1  0.000000  0.821395  0.456657  1
  O  O333  1  0.560146  0.936104  0.544681  1
  O  O334  1  0.587515  0.000000  0.518670  1
  O  O335  1  0.680663  0.995750  0.545139  1
  O  O336  1  0.920567  0.681292  0.564946  1
  O  O337  1  0.995727  0.920859  0.481083  1
  O  O338  1  0.921978  0.819446  0.431552  1
  O  O339  1  0.765544  0.994603  0.305433  1
  O  O340  1  0.524014  0.734788  0.300099  1
  O  O341  1  0.505170  0.977070  0.369926  1
  O  O342  1  0.523093  0.765829  0.434193  1
  O  O343  1  0.920917  0.939483  0.415714  1
  O  O344  1  0.936079  0.920489  0.449049  1
  O  O345  1  0.488365  0.019083  0.667390  1
  O  O346  1  0.376780  0.012727  0.704746  1
  O  O347  1  0.441599  0.131633  0.676440  1
  O  O348  1  0.410663  0.056350  0.735476  1
  O  O349  1  0.366582  0.027576  0.672323  1
  O  O350  1  0.395373  0.134140  0.708399  1
  O  O351  1  0.071415  0.288580  0.681337  1
  O  O352  1  0.428982  0.071286  0.643449  1
  O  O353  1  0.288023  0.071751  0.719873  1
  O  O354  1  0.000000  0.177987  0.676489  1
  O  O355  1  0.410859  -0.000000  0.614083  1
  O  O356  1  0.079260  0.061477  0.717297  1
  O  O357  1  0.179063  0.090521  0.700670  1
  O  O358  1  0.080227  0.181681  0.701888  1
  O  O359  1  0.319438  0.005705  0.587731  1
  O  O360  1  0.079806  0.319337  0.567472  1
  O  O361  1  0.003474  0.078563  0.651620  1
  O  O362  1  0.475856  0.233096  0.698974  1
  O  O363  1  0.493117  0.023376  0.762869  1
  O  O364  1  0.063301  0.079971  0.683980  1
  O  O365  1  0.440007  0.063623  0.587465  1
  O  O366  1  0.376151  0.485809  0.571021  1
  O  O367  1  0.123097  0.513833  0.704637  1
  O  O368  1  0.019473  0.379093  0.696852  1
  O  O369  1  0.011373  0.520210  0.667211  1
  O  O370  1  0.410616  0.442151  0.601683  1
  O  O371  1  0.089108  0.557764  0.735333  1
  O  O372  1  0.134988  0.408874  0.685041  1
  O  O373  1  0.058334  0.632953  0.676338  1
  O  O374  1  0.395408  0.364619  0.574485  1
  O  O375  1  0.104490  0.635411  0.708261  1
  O  O376  1  0.031635  0.399523  0.664312  1
  O  O377  1  0.133124  0.528343  0.672258  1
  O  O378  1  0.288032  0.427907  0.586024  1
  O  O379  1  0.211998  0.572470  0.719774  1
  O  O380  1  0.070920  0.571439  0.643316  1
  O  O381  1  0.428069  0.428750  0.776999  1
  O  O382  1  0.179282  0.410940  0.566834  1
  O  O383  1  0.320960  0.590498  0.700664  1
  O  O384  1  0.090464  0.499677  0.614398  1
  O  O385  1  0.408730  0.499569  0.748053  1
  O  O386  1  0.180708  0.504674  0.587830  1
  O  O387  1  0.319144  0.496103  0.721365  1
  O  O388  1  0.004720  0.421025  0.785611  1
  O  O389  1  0.496081  0.579419  0.651933  1
  O  O390  1  0.233235  0.496709  0.694022  1
  O  O391  1  0.003355  0.522728  0.762657  1
  O  O392  1  0.495089  0.477184  0.628994  1
  O  O393  1  0.078884  0.440210  0.583467  1
  O  O394  1  0.420492  0.561416  0.717485  1
  O  O395  1  0.436492  0.579707  0.684240  1
  O  O396  1  0.060593  0.565142  0.587818  1
  O  O397  1  0.440131  0.436356  0.721346  1
  O  O398  1  0.123196  0.987317  0.571338  1
  O  O399  1  0.481931  0.877296  0.696276  1
  O  O400  1  0.091579  0.942269  0.602211  1
  O  O401  1  0.364985  0.908261  0.685082  1
  O  O402  1  0.103263  0.866736  0.574285  1
  O  O403  1  0.466993  0.898904  0.664032  1
  O  O404  1  0.071882  0.928572  0.777284  1
  O  O405  1  0.212423  0.928824  0.585778  1
  O  O406  1  0.428061  0.788809  0.680955  1
  O  O407  1  0.320470  0.909510  0.566427  1
  O  O408  1  0.420540  0.819054  0.567202  1
  O  O409  1  0.180556  0.996503  0.721532  1
  O  O410  1  0.420639  0.681258  0.701402  1
  O  O411  1  0.492397  0.919875  0.784881  1
  O  O412  1  0.266421  0.996167  0.694137  1
  O  O413  1  0.024907  0.735021  0.698828  1
  O  O414  1  0.003956  0.976145  0.628512  1
  O  O415  1  0.060769  0.936754  0.721453  1
  O  O416  1  0.419553  0.939160  0.583184  1
  O  O417  1  0.499435  0.679226  0.676420  1
  O  O418  1  0.089051  0.000000  0.748041  1
  O  O419  1  0.516521  0.122695  0.704134  1
  O  O420  1  0.986580  0.015965  0.599167  1
  O  O421  1  0.631771  0.088345  0.715553  1
  O  O422  1  0.942219  0.130916  0.590194  1
  O  O423  1  0.530252  0.103045  0.736466  1
  O  O424  1  0.864819  0.029410  0.594236  1
  O  O425  1  0.573179  0.210522  0.719546  1
  O  O426  1  0.572920  0.288811  0.585710  1
  O  O427  1  0.927801  0.072409  0.622917  1
  O  O428  1  0.501763  0.319961  0.723987  1
  O  O429  1  0.501429  0.179618  0.590195  1
  O  O430  1  0.910149  0.001235  0.652066  1
  O  O431  1  0.818626  0.003561  0.678825  1
  O  O432  1  0.578981  0.318248  0.699034  1
  O  O433  1  0.504618  0.079483  0.614632  1
  O  O434  1  0.734129  0.004162  0.706421  1
  O  O435  1  0.977450  0.265493  0.701699  1
  O  O436  1  0.994516  0.023198  0.771123  1
  O  O437  1  0.978131  0.232610  0.567354  1
  O  O438  1  0.565391  0.078799  0.582902  1
  O  O439  1  0.937918  0.064356  0.679029  1
  O  O440  1  0.987173  0.482421  0.732653  1
  O  O441  1  0.511619  0.518715  0.599098  1
  O  O442  1  0.876481  0.485814  0.695389  1
  O  O443  1  0.983123  0.623694  0.703881  1
  O  O444  1  0.516644  0.376654  0.570188  1
  O  O445  1  0.942704  0.368546  0.723783  1
  O  O446  1  0.556634  0.632769  0.590357  1
  O  O447  1  0.910436  0.443372  0.664558  1
  O  O448  1  0.867729  0.589780  0.715117  1
  O  O449  1  0.632253  0.410766  0.581471  1
  O  O450  1  0.865327  0.470786  0.727781  1
  O  O451  1  0.633561  0.530166  0.593966  1
  O  O452  1  0.898322  0.365097  0.691569  1
  O  O453  1  0.968480  0.603131  0.736029  1
  O  O454  1  0.531433  0.397566  0.602423  1
  O  O455  1  0.928605  0.428248  0.756812  1
  O  O456  1  0.571664  0.572973  0.623048  1
  O  O457  1  0.788519  0.427001  0.680560  1
  O  O458  1  0.908922  0.499262  0.785687  1
  O  O459  1  0.589058  0.501814  0.652303  1
  O  O460  1  0.679283  0.409728  0.699719  1
  O  O461  1  0.681063  0.503953  0.678897  1
  O  O462  1  0.995211  0.578809  0.614307  1
  O  O463  1  0.504003  0.420732  0.748225  1
  O  O464  1  0.734178  0.496610  0.572326  1
  O  O465  1  0.765892  0.504545  0.706356  1
  O  O466  1  0.994921  0.476422  0.637082  1
  O  O467  1  0.503179  0.522879  0.771137  1
  O  O468  1  0.565532  0.420773  0.716575  1
  O  O469  1  0.936154  0.580000  0.582173  1
  O  O470  1  0.561859  0.565226  0.679313  1
  O  O471  1  0.578680  0.439955  0.683258  1
  O  O472  1  0.623532  0.985033  0.695521  1
  O  O473  1  0.982407  0.876915  0.569414  1
  O  O474  1  0.514447  0.982272  0.733026  1
  O  O475  1  0.589137  0.941876  0.664779  1
  O  O476  1  0.867686  0.910299  0.581673  1
  O  O477  1  0.557176  0.867624  0.723871  1
  O  O478  1  0.603259  0.864195  0.691913  1
  O  O479  1  0.971631  0.894671  0.601788  1
  O  O480  1  0.635488  0.968558  0.727799  1
  O  O481  1  0.711558  0.926564  0.680617  1
  O  O482  1  0.926139  0.788124  0.585269  1
  O  O483  1  0.928754  0.711922  0.719141  1
  O  O484  1  0.570489  0.927926  0.756635  1
  O  O485  1  0.821149  0.909728  0.699745  1
  O  O486  1  0.997821  0.679975  0.590254  1
  O  O487  1  0.000000  0.821395  0.723996  1
  O  O488  1  0.587515  0.000000  0.786009  1
  O  O489  1  0.995727  0.920859  0.748422  1
  O  O490  1  0.921978  0.819446  0.698891  1
  O  O491  1  0.765544  0.994603  0.572772  1
  O  O492  1  0.524014  0.734788  0.567438  1
  O  O493  1  0.505170  0.977070  0.637264  1
  O  O494  1  0.523093  0.765829  0.701532  1
  O  O495  1  0.920917  0.939483  0.683053  1
  O  O496  1  0.936079  0.920489  0.716388  1
  Si  Si497  1  0.428049  0.068203  0.129874  1
  Si  Si498  1  0.366142  0.071745  0.184000  1
  Si  Si499  1  0.067517  0.133609  0.279873  1
  Si  Si500  1  0.032711  0.227799  0.156085  1
  Si  Si501  1  0.463381  0.032168  0.092859  1
  Si  Si502  1  0.229567  0.038199  0.174509  1
  Si  Si503  1  0.034271  0.269904  0.288988  1
  Si  Si504  1  0.453421  0.159340  0.161132  1
  Si  Si505  1  0.483075  0.044645  0.208380  1
  Si  Si506  1  0.159852  0.017121  0.287033  1
  Si  Si507  1  0.101497  0.106991  0.166390  1
  Si  Si508  1  0.001774  0.100712  0.137180  1
  Si  Si509  1  0.133893  0.573013  0.183848  1
  Si  Si510  1  0.070276  0.368778  0.146423  1
  Si  Si511  1  0.430168  0.634106  0.279622  1
  Si  Si512  1  0.071830  0.569295  0.129834  1
  Si  Si513  1  0.427417  0.432479  0.263450  1
  Si  Si514  1  0.270254  0.538496  0.174419  1
  Si  Si515  1  0.037151  0.531096  0.092530  1
  Si  Si516  1  0.461437  0.467690  0.226160  1
  Si  Si517  1  0.016151  0.544987  0.207976  1
  Si  Si518  1  0.158958  0.481399  0.153082  1
  Si  Si519  1  0.339402  0.517631  0.286960  1
  Si  Si520  1  0.046264  0.660886  0.161032  1
  Si  Si521  1  0.453586  0.340092  0.294500  1
  Si  Si522  1  0.394856  0.496792  0.192934  1
  Si  Si523  1  0.005531  0.398170  0.271099  1
  Si  Si524  1  0.497856  0.601726  0.137575  1
  Si  Si525  1  0.398106  0.605994  0.166567  1
  Si  Si526  1  0.073411  0.929446  0.263810  1
  Si  Si527  1  0.428802  0.868089  0.145960  1
  Si  Si528  1  0.467694  0.769597  0.288758  1
  Si  Si529  1  0.036698  0.968090  0.226769  1
  Si  Si530  1  0.467691  0.729679  0.155670  1
  Si  Si531  1  0.046569  0.841297  0.293810  1
  Si  Si532  1  0.340673  0.980686  0.153171  1
  Si  Si533  1  0.105082  0.997521  0.192829  1
  Si  Si534  1  0.496003  0.898568  0.270117  1
  Si  Si535  1  0.866118  0.072018  0.280507  1
  Si  Si536  1  0.568816  0.132660  0.185160  1
  Si  Si537  1  0.730750  0.036673  0.290372  1
  Si  Si538  1  0.532707  0.267820  0.175424  1
  Si  Si539  1  0.962038  0.032478  0.103749  1
  Si  Si540  1  0.982502  0.044410  0.256252  1
  Si  Si541  1  0.660202  0.016138  0.177680  1
  Si  Si542  1  0.894826  0.003626  0.138075  1
  Si  Si543  1  0.601690  0.105385  0.298483  1
  Si  Si544  1  0.927866  0.432203  0.201018  1
  Si  Si545  1  0.633193  0.572238  0.280898  1
  Si  Si546  1  0.866616  0.426963  0.146788  1
  Si  Si547  1  0.930661  0.633314  0.184800  1
  Si  Si548  1  0.961764  0.467417  0.238277  1
  Si  Si549  1  0.537028  0.532974  0.103790  1
  Si  Si550  1  0.772165  0.537566  0.290195  1
  Si  Si551  1  0.730901  0.462169  0.156679  1
  Si  Si552  1  0.957218  0.340383  0.169650  1
  Si  Si553  1  0.515765  0.545142  0.256465  1
  Si  Si554  1  0.983331  0.457236  0.122408  1
  Si  Si555  1  0.839825  0.517313  0.177490  1
  Si  Si556  1  0.601406  0.394246  0.164735  1
  Si  Si557  1  0.898289  0.605975  0.297788  1
  Si  Si558  1  0.895325  0.496728  0.271455  1
  Si  Si559  1  0.604701  0.504338  0.138356  1
  Si  Si560  1  0.504606  0.397599  0.193402  1
  Si  Si561  1  0.633506  0.926038  0.146957  1
  Si  Si562  1  0.573319  0.930253  0.200881  1
  Si  Si563  1  0.769065  0.961819  0.156733  1
  Si  Si564  1  0.969080  0.770799  0.175253  1
  Si  Si565  1  0.534186  0.967326  0.237899  1
  Si  Si566  1  0.516383  0.956164  0.122546  1
  Si  Si567  1  0.544901  0.839913  0.169880  1
  Si  Si568  1  0.604984  0.997203  0.271842  1
  Si  Si569  1  0.996920  0.898342  0.193610  1
  Si  Si570  1  0.898670  0.894561  0.164578  1
  Si  Si571  1  0.428049  0.068203  0.397212  1
  Si  Si572  1  0.366142  0.071745  0.451339  1
  Si  Si573  1  0.067517  0.133609  0.547212  1
  Si  Si574  1  0.032711  0.227799  0.423424  1
  Si  Si575  1  0.463381  0.032168  0.360198  1
  Si  Si576  1  0.229567  0.038199  0.441848  1
  Si  Si577  1  0.034271  0.269904  0.556326  1
  Si  Si578  1  0.453421  0.159340  0.428471  1
  Si  Si579  1  0.483075  0.044645  0.475719  1
  Si  Si580  1  0.159852  0.017121  0.554372  1
  Si  Si581  1  0.101497  0.106991  0.433728  1
  Si  Si582  1  0.394114  0.003199  0.326126  1
  Si  Si583  1  0.001774  0.100712  0.404519  1
  Si  Si584  1  0.366028  0.426652  0.317511  1
  Si  Si585  1  0.133893  0.573013  0.451187  1
  Si  Si586  1  0.070276  0.368778  0.413762  1
  Si  Si587  1  0.430168  0.634106  0.546961  1
  Si  Si588  1  0.071830  0.569295  0.397172  1
  Si  Si589  1  0.427417  0.432479  0.530789  1
  Si  Si590  1  0.230566  0.463364  0.307928  1
  Si  Si591  1  0.270254  0.538496  0.441757  1
  Si  Si592  1  0.037151  0.531096  0.359869  1
  Si  Si593  1  0.461437  0.467690  0.493499  1
  Si  Si594  1  0.483554  0.455971  0.341786  1
  Si  Si595  1  0.016151  0.544987  0.475315  1
  Si  Si596  1  0.158958  0.481399  0.420421  1
  Si  Si597  1  0.339402  0.517631  0.554299  1
  Si  Si598  1  0.046264  0.660886  0.428371  1
  Si  Si599  1  0.453586  0.340092  0.561839  1
  Si  Si600  1  0.104712  0.503975  0.326670  1
  Si  Si601  1  0.394856  0.496792  0.460273  1
  Si  Si602  1  0.005531  0.398170  0.538438  1
  Si  Si603  1  0.497856  0.601726  0.404914  1
  Si  Si604  1  0.398106  0.605994  0.433906  1
  Si  Si605  1  0.101535  0.395217  0.299820  1
  Si  Si606  1  0.073411  0.929446  0.531148  1
  Si  Si607  1  0.132656  0.927859  0.317875  1
  Si  Si608  1  0.428802  0.868089  0.413299  1
  Si  Si609  1  0.467694  0.769597  0.556097  1
  Si  Si610  1  0.036698  0.968090  0.494108  1
  Si  Si611  1  0.273698  0.962795  0.307940  1
  Si  Si612  1  0.467691  0.729679  0.423009  1
  Si  Si613  1  0.046569  0.841297  0.561149  1
  Si  Si614  1  0.019007  0.952535  0.341324  1
  Si  Si615  1  0.340673  0.980686  0.420510  1
  Si  Si616  1  0.396869  0.894599  0.299586  1
  Si  Si617  1  0.105082  0.997521  0.460168  1
  Si  Si618  1  0.496003  0.898568  0.537456  1
  Si  Si619  1  0.866118  0.072018  0.547846  1
  Si  Si620  1  0.568816  0.132660  0.452498  1
  Si  Si621  1  0.927243  0.067893  0.334748  1
  Si  Si622  1  0.730750  0.036673  0.557711  1
  Si  Si623  1  0.532707  0.267820  0.442763  1
  Si  Si624  1  0.532368  0.231558  0.308926  1
  Si  Si625  1  0.962038  0.032478  0.371088  1
  Si  Si626  1  0.982502  0.044410  0.523591  1
  Si  Si627  1  0.660202  0.016138  0.445019  1
  Si  Si628  1  0.954955  0.158171  0.303433  1
  Si  Si629  1  0.894826  0.003626  0.405413  1
  Si  Si630  1  0.504456  0.102091  0.327050  1
  Si  Si631  1  0.601690  0.105385  0.565822  1
  Si  Si632  1  0.927866  0.432203  0.468357  1
  Si  Si633  1  0.570910  0.568656  0.334860  1
  Si  Si634  1  0.633193  0.572238  0.548237  1
  Si  Si635  1  0.866616  0.426963  0.414126  1
  Si  Si636  1  0.930661  0.633314  0.452139  1
  Si  Si637  1  0.569215  0.366669  0.318474  1
  Si  Si638  1  0.961764  0.467417  0.505615  1
  Si  Si639  1  0.537028  0.532974  0.371128  1
  Si  Si640  1  0.772165  0.537566  0.557533  1
  Si  Si641  1  0.730901  0.462169  0.424017  1
  Si  Si642  1  0.957218  0.340383  0.436989  1
  Si  Si643  1  0.545674  0.660993  0.303616  1
  Si  Si644  1  0.515765  0.545142  0.523804  1
  Si  Si645  1  0.983331  0.457236  0.389747  1
  Si  Si646  1  0.839825  0.517313  0.444829  1
  Si  Si647  1  0.659300  0.483734  0.310871  1
  Si  Si648  1  0.601406  0.394246  0.432074  1
  Si  Si649  1  0.898289  0.605975  0.565126  1
  Si  Si650  1  0.895325  0.496728  0.538794  1
  Si  Si651  1  0.604701  0.504338  0.405695  1
  Si  Si652  1  0.995926  0.603011  0.326958  1
  Si  Si653  1  0.504606  0.397599  0.460741  1
  Si  Si654  1  0.633506  0.926038  0.414296  1
  Si  Si655  1  0.931027  0.865967  0.318021  1
  Si  Si656  1  0.573319  0.930253  0.468220  1
  Si  Si657  1  0.769065  0.961819  0.424072  1
  Si  Si658  1  0.966372  0.730137  0.308900  1
  Si  Si659  1  0.969080  0.770799  0.442592  1
  Si  Si660  1  0.534186  0.967326  0.505238  1
  Si  Si661  1  0.516383  0.956164  0.389885  1
  Si  Si662  1  0.839436  0.982581  0.311364  1
  Si  Si663  1  0.544901  0.839913  0.437219  1
  Si  Si664  1  0.604984  0.997203  0.539181  1
  Si  Si665  1  0.996920  0.898342  0.460949  1
  Si  Si666  1  0.898670  0.894561  0.431917  1
  Si  Si667  1  0.428049  0.068203  0.664551  1
  Si  Si668  1  0.366142  0.071745  0.718678  1
  Si  Si669  1  0.032711  0.227799  0.690763  1
  Si  Si670  1  0.463381  0.032168  0.627537  1
  Si  Si671  1  0.229567  0.038199  0.709187  1
  Si  Si672  1  0.453421  0.159340  0.695810  1
  Si  Si673  1  0.483075  0.044645  0.743058  1
  Si  Si674  1  0.101497  0.106991  0.701067  1
  Si  Si675  1  0.394114  0.003199  0.593465  1
  Si  Si676  1  0.001774  0.100712  0.671858  1
  Si  Si677  1  0.366028  0.426652  0.584850  1
  Si  Si678  1  0.133893  0.573013  0.718526  1
  Si  Si679  1  0.070276  0.368778  0.681101  1
  Si  Si680  1  0.071830  0.569295  0.664511  1
  Si  Si681  1  0.230566  0.463364  0.575267  1
  Si  Si682  1  0.270254  0.538496  0.709096  1
  Si  Si683  1  0.037151  0.531096  0.627207  1
  Si  Si684  1  0.461437  0.467690  0.760837  1
  Si  Si685  1  0.483554  0.455971  0.609125  1
  Si  Si686  1  0.016151  0.544987  0.742653  1
  Si  Si687  1  0.158958  0.481399  0.687760  1
  Si  Si688  1  0.046264  0.660886  0.695710  1
  Si  Si689  1  0.104712  0.503975  0.594009  1
  Si  Si690  1  0.394856  0.496792  0.727612  1
  Si  Si691  1  0.497856  0.601726  0.672252  1
  Si  Si692  1  0.398106  0.605994  0.701245  1
  Si  Si693  1  0.101535  0.395217  0.567158  1
  Si  Si694  1  0.132656  0.927859  0.585213  1
  Si  Si695  1  0.428802  0.868089  0.680637  1
  Si  Si696  1  0.036698  0.968090  0.761447  1
  Si  Si697  1  0.273698  0.962795  0.575279  1
  Si  Si698  1  0.467691  0.729679  0.690348  1
  Si  Si699  1  0.019007  0.952535  0.608663  1
  Si  Si700  1  0.340673  0.980686  0.687848  1
  Si  Si701  1  0.396869  0.894599  0.566925  1
  Si  Si702  1  0.105082  0.997521  0.727507  1
  Si  Si703  1  0.568816  0.132660  0.719837  1
  Si  Si704  1  0.927243  0.067893  0.602087  1
  Si  Si705  1  0.532707  0.267820  0.710102  1
  Si  Si706  1  0.532368  0.231558  0.576265  1
  Si  Si707  1  0.962038  0.032478  0.638426  1
  Si  Si708  1  0.660202  0.016138  0.712357  1
  Si  Si709  1  0.954955  0.158171  0.570772  1
  Si  Si710  1  0.894826  0.003626  0.672752  1
  Si  Si711  1  0.504456  0.102091  0.594388  1
  Si  Si712  1  0.927866  0.432203  0.735696  1
  Si  Si713  1  0.570910  0.568656  0.602199  1
  Si  Si714  1  0.866616  0.426963  0.681465  1
  Si  Si715  1  0.930661  0.633314  0.719477  1
  Si  Si716  1  0.569215  0.366669  0.585812  1
  Si  Si717  1  0.961764  0.467417  0.772954  1
  Si  Si718  1  0.537028  0.532974  0.638467  1
  Si  Si719  1  0.730901  0.462169  0.691356  1
  Si  Si720  1  0.957218  0.340383  0.704328  1
  Si  Si721  1  0.545674  0.660993  0.570954  1
  Si  Si722  1  0.983331  0.457236  0.657085  1
  Si  Si723  1  0.839825  0.517313  0.712167  1
  Si  Si724  1  0.659300  0.483734  0.578209  1
  Si  Si725  1  0.601406  0.394246  0.699413  1
  Si  Si726  1  0.604701  0.504338  0.673034  1
  Si  Si727  1  0.995926  0.603011  0.594296  1
  Si  Si728  1  0.504606  0.397599  0.728079  1
  Si  Si729  1  0.633506  0.926038  0.681635  1
  Si  Si730  1  0.931027  0.865967  0.585360  1
  Si  Si731  1  0.573319  0.930253  0.735559  1
  Si  Si732  1  0.769065  0.961819  0.691411  1
  Si  Si733  1  0.966372  0.730137  0.576238  1
  Si  Si734  1  0.969080  0.770799  0.709931  1
  Si  Si735  1  0.534186  0.967326  0.772577  1
  Si  Si736  1  0.516383  0.956164  0.657224  1
  Si  Si737  1  0.839436  0.982581  0.578702  1
  Si  Si738  1  0.544901  0.839913  0.704558  1
  Si  Si739  1  0.996920  0.898342  0.728287  1
  Si  Si740  1  0.898670  0.894561  0.699255  1
  H  H741  1  0.410859  -0.000000  0.067293  1
  H  H742  1  0.090464  0.499677  0.067608  1
  H  H743  1  0.495089  0.477184  0.082204  1
  H  H744  1  0.003956  0.976145  0.081722  1
  H  H745  1  0.927801  0.072409  0.076127  1
  H  H746  1  0.504618  0.079483  0.067842  1
  H  H747  1  0.571664  0.572973  0.076258  1
  H  H748  1  0.995211  0.578809  0.067516  1
  H  H749  1  0.428069  0.428750  0.789111  1
  H  H750  1  0.004720  0.421025  0.797724  1
  H  H751  1  0.071882  0.928572  0.789397  1
  H  H752  1  0.492397  0.919875  0.796994  1
  H  H753  1  0.994516  0.023198  0.783236  1
  H  H754  1  0.908922  0.499262  0.797800  1
  H  H755  1  0.503179  0.522879  0.783250  1
  H  H756  1  0.587515  0.000000  0.798121  1
