# generated using pymatgen
data_Si24H2O49
_symmetry_space_group_name_H-M   'P 1'
_cell_length_a   16.03258684
_cell_length_b   9.70609838
_cell_length_c   55.64461337
_cell_angle_alpha   90.00000000
_cell_angle_beta   90.00000000
_cell_angle_gamma   90.00000000
_symmetry_Int_Tables_number   1
_chemical_formula_structural   Si24H2O49
_chemical_formula_sum   'Si96 H8 O196'
_cell_volume   8659.07336099
_cell_formula_units_Z   4
loop_
 _symmetry_equiv_pos_site_id
 _symmetry_equiv_pos_as_xyz
  1  'x, y, z'
loop_
 _atom_site_type_symbol
 _atom_site_label
 _atom_site_symmetry_multiplicity
 _atom_site_fract_x
 _atom_site_fract_y
 _atom_site_fract_z
 _atom_site_occupancy
  O  O1  1  0.178244  0.054056  0.106030  1
  O  O2  1  0.321887  0.554057  0.106030  1
  O  O3  1  0.178244  0.054056  0.406672  1
  O  O4  1  0.321887  0.945674  0.256351  1
  O  O5  1  0.821887  0.554057  0.263295  1
  O  O6  1  0.678244  0.445673  0.112974  1
  O  O7  1  0.821886  0.945674  0.112974  1
  O  O8  1  0.678244  0.054056  0.263295  1
  O  O9  1  0.178243  0.445673  0.256351  1
  O  O10  1  0.321887  0.554057  0.406672  1
  O  O11  1  0.286111  0.131686  0.139362  1
  O  O12  1  0.214019  0.868043  0.289683  1
  O  O13  1  0.714020  0.631687  0.229963  1
  O  O14  1  0.786111  0.368043  0.380284  1
  O  O15  1  0.714019  0.868043  0.380284  1
  O  O16  1  0.786111  0.131686  0.229963  1
  O  O17  1  0.286111  0.368043  0.289683  1
  O  O18  1  0.214020  0.631686  0.139362  1
  O  O19  1  0.209188  0.894067  0.142547  1
  O  O20  1  0.290943  0.105662  0.292868  1
  O  O21  1  0.790943  0.394068  0.226778  1
  O  O22  1  0.709187  0.605662  0.377099  1
  O  O23  1  0.790943  0.105662  0.377099  1
  O  O24  1  0.709188  0.894067  0.226778  1
  O  O25  1  0.209187  0.605662  0.292868  1
  O  O26  1  0.290943  0.394068  0.142547  1
  O  O27  1  0.133481  0.115174  0.149631  1
  O  O28  1  0.366649  0.884555  0.299952  1
  O  O29  1  0.866649  0.615175  0.219694  1
  O  O30  1  0.633481  0.384555  0.370015  1
  O  O31  1  0.866649  0.884555  0.370015  1
  O  O32  1  0.633481  0.115174  0.219694  1
  O  O33  1  0.133481  0.384555  0.299952  1
  O  O34  1  0.366649  0.615174  0.149631  1
  O  O35  1  0.073824  0.775500  0.154243  1
  O  O36  1  0.426306  0.224229  0.304564  1
  O  O37  1  0.926306  0.275500  0.215082  1
  O  O38  1  0.573824  0.724230  0.365403  1
  O  O39  1  0.926306  0.224230  0.365403  1
  O  O40  1  0.573824  0.775500  0.215082  1
  O  O41  1  0.073824  0.724229  0.304564  1
  O  O42  1  0.426307  0.275500  0.154243  1
  O  O43  1  0.201034  0.739900  0.180380  1
  O  O44  1  0.299096  0.259830  0.330701  1
  O  O45  1  0.799096  0.239900  0.188945  1
  O  O46  1  0.701035  0.759829  0.339266  1
  O  O47  1  0.799096  0.259830  0.339266  1
  O  O48  1  0.701035  0.739900  0.188945  1
  O  O49  1  0.201034  0.759830  0.330701  1
  O  O50  1  0.299096  0.239900  0.180380  1
  O  O51  1  0.958623  0.756793  0.186503  1
  O  O52  1  0.541508  0.242937  0.336825  1
  O  O53  1  0.041508  0.256792  0.182822  1
  O  O54  1  0.458622  0.742937  0.333143  1
  O  O55  1  0.041508  0.242937  0.333143  1
  O  O56  1  0.458623  0.756792  0.182822  1
  O  O57  1  0.958623  0.742937  0.336825  1
  O  O58  1  0.541508  0.256793  0.186503  1
  O  O59  1  0.923260  0.893790  0.148310  1
  O  O60  1  0.576871  0.105940  0.298631  1
  O  O61  1  0.076871  0.393790  0.221015  1
  O  O62  1  0.423259  0.605940  0.371336  1
  O  O63  1  0.076871  0.105940  0.371336  1
  O  O64  1  0.423260  0.893790  0.221015  1
  O  O65  1  0.923260  0.605940  0.298631  1
  O  O66  1  0.576871  0.393790  0.148310  1
  O  O67  1  0.033275  0.989586  0.177114  1
  O  O68  1  0.466855  0.010144  0.327435  1
  O  O69  1  0.966856  0.489586  0.192211  1
  O  O70  1  0.533275  0.510144  0.342532  1
  O  O71  1  0.966856  0.010143  0.342532  1
  O  O72  1  0.533275  0.989586  0.192211  1
  O  O73  1  0.033275  0.510144  0.327435  1
  O  O74  1  0.466856  0.489586  0.177114  1
  O  O75  1  0.168604  0.117751  0.193113  1
  O  O76  1  0.331526  0.881979  0.343434  1
  O  O77  1  0.831526  0.617750  0.176212  1
  O  O78  1  0.668604  0.381979  0.326533  1
  O  O79  1  0.831526  0.881979  0.326533  1
  O  O80  1  0.668604  0.117750  0.176212  1
  O  O81  1  0.168604  0.381979  0.343434  1
  O  O82  1  0.331526  0.617751  0.193113  1
  O  O83  1  0.303799  0.065771  0.215924  1
  O  O84  1  0.196331  0.933959  0.366245  1
  O  O85  1  0.696332  0.565771  0.153401  1
  O  O86  1  0.803799  0.433959  0.303722  1
  O  O87  1  0.696332  0.933959  0.303722  1
  O  O88  1  0.803799  0.065770  0.153401  1
  O  O89  1  0.303799  0.433959  0.366245  1
  O  O90  1  0.196332  0.565771  0.215924  1
  O  O91  1  0.274278  0.806544  0.219531  1
  O  O92  1  0.225853  0.193185  0.369852  1
  O  O93  1  0.725853  0.306544  0.149794  1
  O  O94  1  0.774278  0.693186  0.300115  1
  O  O95  1  0.725853  0.193186  0.300115  1
  O  O96  1  0.774278  0.806544  0.149794  1
  O  O97  1  0.274278  0.693186  0.369852  1
  O  O98  1  0.225853  0.306544  0.219531  1
  O  O99  1  0.178244  0.054056  0.707314  1
  O  O100  1  0.321887  0.945674  0.556993  1
  O  O101  1  0.821887  0.554057  0.563937  1
  O  O102  1  0.678244  0.445673  0.413616  1
  O  O103  1  0.821886  0.945674  0.413616  1
  O  O104  1  0.678244  0.054056  0.563937  1
  O  O105  1  0.178243  0.445673  0.556993  1
  O  O106  1  0.321887  0.554057  0.707314  1
  O  O107  1  0.286111  0.131686  0.440004  1
  O  O108  1  0.214019  0.868043  0.590325  1
  O  O109  1  0.714020  0.631687  0.530605  1
  O  O110  1  0.786111  0.368043  0.680926  1
  O  O111  1  0.714019  0.868043  0.680926  1
  O  O112  1  0.786111  0.131686  0.530605  1
  O  O113  1  0.286111  0.368043  0.590325  1
  O  O114  1  0.214020  0.631686  0.440004  1
  O  O115  1  0.209188  0.894067  0.443189  1
  O  O116  1  0.290943  0.105662  0.593510  1
  O  O117  1  0.790943  0.394068  0.527420  1
  O  O118  1  0.709187  0.605662  0.677741  1
  O  O119  1  0.790943  0.105662  0.677741  1
  O  O120  1  0.709188  0.894067  0.527420  1
  O  O121  1  0.209187  0.605662  0.593510  1
  O  O122  1  0.290943  0.394068  0.443189  1
  O  O123  1  0.133481  0.115174  0.450273  1
  O  O124  1  0.366649  0.884555  0.600594  1
  O  O125  1  0.866649  0.615175  0.520336  1
  O  O126  1  0.633481  0.384555  0.670657  1
  O  O127  1  0.866649  0.884555  0.670657  1
  O  O128  1  0.633481  0.115174  0.520336  1
  O  O129  1  0.133481  0.384555  0.600594  1
  O  O130  1  0.366649  0.615174  0.450273  1
  O  O131  1  0.073824  0.775500  0.454885  1
  O  O132  1  0.426306  0.224229  0.605206  1
  O  O133  1  0.926306  0.275500  0.515724  1
  O  O134  1  0.573824  0.724230  0.666045  1
  O  O135  1  0.926306  0.224230  0.666045  1
  O  O136  1  0.573824  0.775500  0.515724  1
  O  O137  1  0.073824  0.724229  0.605206  1
  O  O138  1  0.426307  0.275500  0.454885  1
  O  O139  1  0.201034  0.739900  0.481022  1
  O  O140  1  0.299096  0.259830  0.631343  1
  O  O141  1  0.799096  0.239900  0.489587  1
  O  O142  1  0.701035  0.759829  0.639908  1
  O  O143  1  0.799096  0.259830  0.639908  1
  O  O144  1  0.701035  0.739900  0.489587  1
  O  O145  1  0.201034  0.759830  0.631343  1
  O  O146  1  0.299096  0.239900  0.481022  1
  O  O147  1  0.958623  0.756793  0.487146  1
  O  O148  1  0.541508  0.242937  0.637467  1
  O  O149  1  0.041508  0.256792  0.483464  1
  O  O150  1  0.458622  0.742937  0.633785  1
  O  O151  1  0.041508  0.242937  0.633785  1
  O  O152  1  0.458623  0.756792  0.483464  1
  O  O153  1  0.958623  0.742937  0.637467  1
  O  O154  1  0.541508  0.256793  0.487146  1
  O  O155  1  0.923260  0.893790  0.448952  1
  O  O156  1  0.576871  0.105940  0.599273  1
  O  O157  1  0.076871  0.393790  0.521657  1
  O  O158  1  0.423259  0.605940  0.671978  1
  O  O159  1  0.076871  0.105940  0.671978  1
  O  O160  1  0.423260  0.893790  0.521657  1
  O  O161  1  0.923260  0.605940  0.599273  1
  O  O162  1  0.576871  0.393790  0.448952  1
  O  O163  1  0.033275  0.989586  0.477756  1
  O  O164  1  0.466855  0.010144  0.628077  1
  O  O165  1  0.966856  0.489586  0.492853  1
  O  O166  1  0.533275  0.510144  0.643174  1
  O  O167  1  0.966856  0.010143  0.643174  1
  O  O168  1  0.533275  0.989586  0.492853  1
  O  O169  1  0.033275  0.510144  0.628077  1
  O  O170  1  0.466856  0.489586  0.477756  1
  O  O171  1  0.168604  0.117751  0.493755  1
  O  O172  1  0.331526  0.881979  0.644076  1
  O  O173  1  0.831526  0.617750  0.476854  1
  O  O174  1  0.668604  0.381979  0.627175  1
  O  O175  1  0.831526  0.881979  0.627175  1
  O  O176  1  0.668604  0.117750  0.476854  1
  O  O177  1  0.168604  0.381979  0.644076  1
  O  O178  1  0.331526  0.617751  0.493755  1
  O  O179  1  0.303799  0.065771  0.516566  1
  O  O180  1  0.196331  0.933959  0.666887  1
  O  O181  1  0.696332  0.565771  0.454043  1
  O  O182  1  0.803799  0.433959  0.604364  1
  O  O183  1  0.696332  0.933959  0.604364  1
  O  O184  1  0.803799  0.065770  0.454043  1
  O  O185  1  0.303799  0.433959  0.666887  1
  O  O186  1  0.196332  0.565771  0.516566  1
  O  O187  1  0.274278  0.806544  0.520173  1
  O  O188  1  0.225853  0.193185  0.670494  1
  O  O189  1  0.725853  0.306544  0.450436  1
  O  O190  1  0.774278  0.693186  0.600757  1
  O  O191  1  0.725853  0.193186  0.600757  1
  O  O192  1  0.774278  0.806544  0.450436  1
  O  O193  1  0.274278  0.693186  0.670494  1
  O  O194  1  0.225853  0.306544  0.520173  1
  O  O195  1  0.678244  0.445673  0.714258  1
  O  O196  1  0.821886  0.945674  0.714258  1
  Si  Si197  1  0.203638  0.047294  0.133108  1
  Si  Si198  1  0.296493  0.952436  0.283429  1
  Si  Si199  1  0.796493  0.547294  0.236217  1
  Si  Si200  1  0.703637  0.452435  0.386538  1
  Si  Si201  1  0.796493  0.952436  0.386538  1
  Si  Si202  1  0.703638  0.047294  0.236217  1
  Si  Si203  1  0.203637  0.452436  0.283429  1
  Si  Si204  1  0.296493  0.547294  0.133108  1
  Si  Si205  1  0.995945  0.852572  0.166057  1
  Si  Si206  1  0.504185  0.147157  0.316378  1
  Si  Si207  1  0.004185  0.352572  0.203268  1
  Si  Si208  1  0.495945  0.647157  0.353589  1
  Si  Si209  1  0.004185  0.147157  0.353589  1
  Si  Si210  1  0.495945  0.852572  0.203268  1
  Si  Si211  1  0.995945  0.647157  0.316378  1
  Si  Si212  1  0.504185  0.352572  0.166057  1
  Si  Si213  1  0.252259  0.181728  0.203072  1
  Si  Si214  1  0.247871  0.818001  0.353393  1
  Si  Si215  1  0.747871  0.681729  0.166253  1
  Si  Si216  1  0.752259  0.318001  0.316574  1
  Si  Si217  1  0.747871  0.818001  0.316574  1
  Si  Si218  1  0.752259  0.181728  0.166253  1
  Si  Si219  1  0.252259  0.318001  0.353393  1
  Si  Si220  1  0.247871  0.681729  0.203072  1
  Si  Si221  1  0.330884  0.928515  0.228609  1
  Si  Si222  1  0.169246  0.071215  0.378930  1
  Si  Si223  1  0.669246  0.428515  0.140716  1
  Si  Si224  1  0.830884  0.571215  0.291037  1
  Si  Si225  1  0.669246  0.071215  0.291037  1
  Si  Si226  1  0.830884  0.928515  0.140716  1
  Si  Si227  1  0.330884  0.571215  0.378930  1
  Si  Si228  1  0.169246  0.428514  0.228609  1
  Si  Si229  1  0.172253  0.756323  0.153399  1
  Si  Si230  1  0.327878  0.243406  0.303720  1
  Si  Si231  1  0.827878  0.256323  0.215926  1
  Si  Si232  1  0.672252  0.743406  0.366247  1
  Si  Si233  1  0.827878  0.243406  0.366247  1
  Si  Si234  1  0.672253  0.756323  0.215926  1
  Si  Si235  1  0.172252  0.743406  0.303720  1
  Si  Si236  1  0.327878  0.256323  0.153399  1
  Si  Si237  1  0.090920  0.121859  0.175447  1
  Si  Si238  1  0.409210  0.877870  0.325768  1
  Si  Si239  1  0.909210  0.621859  0.193878  1
  Si  Si240  1  0.590920  0.377870  0.344199  1
  Si  Si241  1  0.909210  0.877870  0.344199  1
  Si  Si242  1  0.590920  0.121859  0.193878  1
  Si  Si243  1  0.090920  0.377870  0.325768  1
  Si  Si244  1  0.409210  0.621859  0.175447  1
  Si  Si245  1  0.203638  0.047294  0.433750  1
  Si  Si246  1  0.296493  0.952436  0.584071  1
  Si  Si247  1  0.796493  0.547294  0.536859  1
  Si  Si248  1  0.703637  0.452435  0.687180  1
  Si  Si249  1  0.796493  0.952436  0.687180  1
  Si  Si250  1  0.703638  0.047294  0.536859  1
  Si  Si251  1  0.203637  0.452436  0.584071  1
  Si  Si252  1  0.296493  0.547294  0.433750  1
  Si  Si253  1  0.995945  0.852572  0.466699  1
  Si  Si254  1  0.504185  0.147157  0.617020  1
  Si  Si255  1  0.004185  0.352572  0.503910  1
  Si  Si256  1  0.495945  0.647157  0.654231  1
  Si  Si257  1  0.004185  0.147157  0.654231  1
  Si  Si258  1  0.495945  0.852572  0.503910  1
  Si  Si259  1  0.995945  0.647157  0.617020  1
  Si  Si260  1  0.504185  0.352572  0.466699  1
  Si  Si261  1  0.252259  0.181728  0.503714  1
  Si  Si262  1  0.247871  0.818001  0.654035  1
  Si  Si263  1  0.747871  0.681729  0.466895  1
  Si  Si264  1  0.752259  0.318001  0.617216  1
  Si  Si265  1  0.747871  0.818001  0.617216  1
  Si  Si266  1  0.752259  0.181728  0.466895  1
  Si  Si267  1  0.252259  0.318001  0.654035  1
  Si  Si268  1  0.247871  0.681729  0.503714  1
  Si  Si269  1  0.330884  0.928515  0.529251  1
  Si  Si270  1  0.169246  0.071215  0.679572  1
  Si  Si271  1  0.669246  0.428515  0.441358  1
  Si  Si272  1  0.830884  0.571215  0.591679  1
  Si  Si273  1  0.669246  0.071215  0.591679  1
  Si  Si274  1  0.830884  0.928515  0.441358  1
  Si  Si275  1  0.330884  0.571215  0.679572  1
  Si  Si276  1  0.169246  0.428514  0.529251  1
  Si  Si277  1  0.172253  0.756323  0.454041  1
  Si  Si278  1  0.327878  0.243406  0.604362  1
  Si  Si279  1  0.827878  0.256323  0.516568  1
  Si  Si280  1  0.672252  0.743406  0.666889  1
  Si  Si281  1  0.827878  0.243406  0.666889  1
  Si  Si282  1  0.672253  0.756323  0.516568  1
  Si  Si283  1  0.172252  0.743406  0.604362  1
  Si  Si284  1  0.327878  0.256323  0.454041  1
  Si  Si285  1  0.090920  0.121859  0.476089  1
  Si  Si286  1  0.409210  0.877870  0.626410  1
  Si  Si287  1  0.909210  0.621859  0.494520  1
  Si  Si288  1  0.590920  0.377870  0.644841  1
  Si  Si289  1  0.909210  0.877870  0.644841  1
  Si  Si290  1  0.590920  0.121859  0.494520  1
  Si  Si291  1  0.090920  0.377870  0.626410  1
  Si  Si292  1  0.409210  0.621859  0.476089  1
  H  H293  1  0.178244  0.054056  0.089856  1
  H  H294  1  0.321887  0.554057  0.089856  1
  H  H295  1  0.678244  0.445673  0.096800  1
  H  H296  1  0.821886  0.945674  0.096800  1
  H  H297  1  0.178244  0.054056  0.723488  1
  H  H298  1  0.321887  0.554057  0.723488  1
  H  H299  1  0.678244  0.445673  0.730432  1
  H  H300  1  0.821886  0.945674  0.730432  1
