# generated using pymatgen
data_Si12H2O25
_symmetry_space_group_name_H-M   'P 1'
_cell_length_a   18.42952014
_cell_length_b   18.43506050
_cell_length_c   40.23999787
_cell_angle_alpha   90.00000000
_cell_angle_beta   90.00000000
_cell_angle_gamma   90.00000000
_symmetry_Int_Tables_number   1
_chemical_formula_structural   Si12H2O25
_chemical_formula_sum   'Si96 H16 O200'
_cell_volume   13671.5118628
_cell_formula_units_Z   8
loop_
 _symmetry_equiv_pos_site_id
 _symmetry_equiv_pos_as_xyz
  1  'x, y, z'
loop_
 _atom_site_type_symbol
 _atom_site_label
 _atom_site_symmetry_multiplicity
 _atom_site_fract_x
 _atom_site_fract_y
 _atom_site_fract_z
 _atom_site_occupancy
  O  O1  1  0.332381  0.811452  0.146623  1
  O  O2  1  0.188490  0.667365  0.146620  1
  O  O3  1  0.499940  0.311245  0.528174  1
  O  O4  1  0.499896  0.167330  0.462258  1
  O  O5  1  0.332454  0.188629  0.146700  1
  O  O6  1  0.167392  0.311356  0.375767  1
  O  O7  1  0.311317  0.167293  0.375794  1
  O  O8  1  0.499958  0.167409  0.289298  1
  O  O9  1  0.248951  0.249107  0.189101  1
  O  O10  1  0.092604  0.249119  0.260832  1
  O  O11  1  0.248988  0.092564  0.260841  1
  O  O12  1  0.248972  0.249182  0.562457  1
  O  O13  1  0.092588  0.249202  0.490721  1
  O  O14  1  0.248913  0.092611  0.490741  1
  O  O15  1  0.407257  0.250884  0.489935  1
  O  O16  1  0.250867  0.250882  0.418183  1
  O  O17  1  0.250924  0.250810  0.333377  1
  O  O18  1  0.407253  0.250837  0.261647  1
  O  O19  1  0.117716  0.250033  0.321847  1
  O  O20  1  0.382209  0.117651  0.261214  1
  O  O21  1  0.117643  0.250074  0.429699  1
  O  O22  1  0.382134  0.117718  0.490359  1
  O  O23  1  0.382180  0.249914  0.200625  1
  O  O24  1  0.249936  0.117601  0.321873  1
  O  O25  1  0.249904  0.117698  0.429716  1
  O  O26  1  0.382187  0.249976  0.550955  1
  O  O27  1  0.130871  0.313357  0.206709  1
  O  O28  1  0.130882  0.130955  0.290261  1
  O  O29  1  0.313089  0.130961  0.206704  1
  O  O30  1  0.130888  0.313428  0.544843  1
  O  O31  1  0.130843  0.131030  0.461312  1
  O  O32  1  0.313075  0.131003  0.544874  1
  O  O33  1  0.368953  0.186674  0.435810  1
  O  O34  1  0.369003  0.186566  0.315778  1
  O  O35  1  0.188502  0.000000  0.452434  1
  O  O36  1  0.188535  0.332686  0.146690  1
  O  O37  1  0.499912  0.311292  0.223377  1
  O  O38  1  0.332391  -0.000000  0.518425  1
  O  O39  1  0.311332  0.500054  0.528140  1
  O  O40  1  0.167525  0.499980  0.289331  1
  O  O41  1  0.167465  0.500011  0.462139  1
  O  O42  1  0.311372  0.499982  0.223319  1
  O  O43  1  0.250934  0.592618  0.489850  1
  O  O44  1  0.250906  0.407428  0.489900  1
  O  O45  1  0.250943  0.407402  0.261627  1
  O  O46  1  0.251001  0.592584  0.261554  1
  O  O47  1  0.249931  0.382307  0.200602  1
  O  O48  1  0.249961  0.617647  0.200521  1
  O  O49  1  0.249935  0.382396  0.550939  1
  O  O50  1  0.249899  0.617725  0.550877  1
  O  O51  1  0.117732  0.382290  0.261269  1
  O  O52  1  0.117776  0.617635  0.261204  1
  O  O53  1  0.117687  0.382380  0.490284  1
  O  O54  1  0.117719  0.617703  0.490209  1
  O  O55  1  0.186835  0.630981  0.435709  1
  O  O56  1  0.368992  0.631053  0.519301  1
  O  O57  1  0.186751  0.369034  0.435767  1
  O  O58  1  0.368992  0.369041  0.519347  1
  O  O59  1  0.368986  0.368981  0.232207  1
  O  O60  1  0.186841  0.368993  0.315771  1
  O  O61  1  0.369077  0.630996  0.232085  1
  O  O62  1  0.186900  0.630929  0.315701  1
  O  O63  1  0.499930  0.688807  0.528177  1
  O  O64  1  0.332445  0.000000  0.233079  1
  O  O65  1  0.332381  0.811452  0.604795  1
  O  O66  1  0.167523  0.688561  0.375709  1
  O  O67  1  0.311430  0.832634  0.375712  1
  O  O68  1  0.499958  0.832721  0.289205  1
  O  O69  1  0.248953  0.750860  0.189034  1
  O  O70  1  0.092644  0.750820  0.260801  1
  O  O71  1  0.248971  0.907387  0.260779  1
  O  O72  1  0.248908  0.750921  0.562386  1
  O  O73  1  0.092582  0.750871  0.490613  1
  O  O74  1  0.248943  0.907424  0.490648  1
  O  O75  1  0.407278  0.749192  0.489885  1
  O  O76  1  0.250946  0.749164  0.418124  1
  O  O77  1  0.251005  0.749074  0.333305  1
  O  O78  1  0.407337  0.749124  0.261526  1
  O  O79  1  0.117759  0.749873  0.321808  1
  O  O80  1  0.382179  0.882287  0.261131  1
  O  O81  1  0.117705  0.749939  0.429599  1
  O  O82  1  0.382168  0.882378  0.490294  1
  O  O83  1  0.382193  0.750094  0.200513  1
  O  O84  1  0.250023  0.882269  0.321803  1
  O  O85  1  0.249956  0.882381  0.429614  1
  O  O86  1  0.382145  0.750115  0.550895  1
  O  O87  1  0.130902  0.686612  0.206656  1
  O  O88  1  0.130925  0.868944  0.290229  1
  O  O89  1  0.313059  0.869043  0.206631  1
  O  O90  1  0.130851  0.686685  0.544758  1
  O  O91  1  0.130863  0.869007  0.461194  1
  O  O92  1  0.313034  0.869070  0.544790  1
  O  O93  1  0.369010  0.813401  0.435746  1
  O  O94  1  0.369065  0.813293  0.315677  1
  O  O95  1  0.188490  0.667365  0.604791  1
  O  O96  1  0.499943  0.832661  0.462235  1
  O  O97  1  0.188561  0.000000  0.299075  1
  O  O98  1  0.688530  0.167386  0.375758  1
  O  O99  1  0.832450  0.311445  0.375774  1
  O  O100  1  0.667394  0.188682  0.146678  1
  O  O101  1  0.811363  0.000000  0.299081  1
  O  O102  1  -0.000000  0.188767  0.452471  1
  O  O103  1  0.748942  0.250859  0.418175  1
  O  O104  1  0.592581  0.250820  0.489903  1
  O  O105  1  0.748973  0.250993  0.333362  1
  O  O106  1  0.592604  0.250991  0.261619  1
  O  O107  1  0.907282  0.249270  0.260835  1
  O  O108  1  0.750895  0.249246  0.189087  1
  O  O109  1  0.750926  0.092729  0.260813  1
  O  O110  1  0.750916  0.249104  0.562444  1
  O  O111  1  0.907254  0.249155  0.490712  1
  O  O112  1  0.750876  0.092566  0.490706  1
  O  O113  1  0.749913  0.117652  0.429675  1
  O  O114  1  0.617691  0.249917  0.550918  1
  O  O115  1  0.749936  0.117791  0.321841  1
  O  O116  1  0.617670  0.250073  0.200593  1
  O  O117  1  0.617661  0.117644  0.490336  1
  O  O118  1  0.882163  0.250046  0.429689  1
  O  O119  1  0.882200  0.250193  0.321851  1
  O  O120  1  0.617709  0.117815  0.261195  1
  O  O121  1  0.630846  0.186591  0.435777  1
  O  O122  1  0.630892  0.186779  0.315745  1
  O  O123  1  0.869002  0.313468  0.206702  1
  O  O124  1  0.686772  0.131114  0.206681  1
  O  O125  1  0.868994  0.131132  0.290250  1
  O  O126  1  0.868995  0.313369  0.544837  1
  O  O127  1  0.868957  0.130993  0.461291  1
  O  O128  1  0.686762  0.130943  0.544850  1
  O  O129  1  0.000000  0.332696  0.518378  1
  O  O130  1  0.000000  0.332727  0.233179  1
  O  O131  1  0.811347  0.332704  0.146678  1
  O  O132  1  -0.000000  0.188811  0.299093  1
  O  O133  1  0.667486  0.000000  0.233083  1
  O  O134  1  0.832378  0.499979  0.462161  1
  O  O135  1  0.832415  0.500109  0.289344  1
  O  O136  1  0.688535  0.499983  0.528177  1
  O  O137  1  0.688575  0.500133  0.223328  1
  O  O138  1  0.748923  0.592573  0.489907  1
  O  O139  1  0.748957  0.407392  0.489908  1
  O  O140  1  0.748987  0.592712  0.261589  1
  O  O141  1  0.748951  0.407531  0.261616  1
  O  O142  1  0.882142  0.617648  0.490236  1
  O  O143  1  0.882177  0.382330  0.490283  1
  O  O144  1  0.882206  0.617775  0.261245  1
  O  O145  1  0.882174  0.382441  0.261251  1
  O  O146  1  0.749990  0.617645  0.550940  1
  O  O147  1  0.749925  0.382305  0.550934  1
  O  O148  1  0.750032  0.617806  0.200564  1
  O  O149  1  0.749952  0.382446  0.200588  1
  O  O150  1  0.630877  0.630988  0.519368  1
  O  O151  1  0.812980  0.630933  0.435744  1
  O  O152  1  0.630879  0.368973  0.519323  1
  O  O153  1  0.813069  0.369002  0.435775  1
  O  O154  1  0.630944  0.631154  0.232132  1
  O  O155  1  0.813040  0.631085  0.315731  1
  O  O156  1  0.630865  0.369147  0.232179  1
  O  O157  1  0.813082  0.369153  0.315764  1
  O  O158  1  0.688465  0.832708  0.375744  1
  O  O159  1  0.832355  0.688615  0.375736  1
  O  O160  1  0.667581  0.811506  0.146655  1
  O  O161  1  0.748887  0.749111  0.418144  1
  O  O162  1  0.592604  0.749119  0.489922  1
  O  O163  1  0.748929  0.749249  0.333327  1
  O  O164  1  0.592647  0.749279  0.261556  1
  O  O165  1  0.907324  0.750949  0.260832  1
  O  O166  1  0.751058  0.751024  0.189067  1
  O  O167  1  0.750969  0.907548  0.260818  1
  O  O168  1  0.750979  0.750857  0.562412  1
  O  O169  1  0.907276  0.750819  0.490649  1
  O  O170  1  0.750912  0.907394  0.490682  1
  O  O171  1  0.749892  0.882318  0.429656  1
  O  O172  1  0.617727  0.750070  0.550944  1
  O  O173  1  0.749935  0.882457  0.321846  1
  O  O174  1  0.617820  0.750238  0.200553  1
  O  O175  1  0.617696  0.882294  0.490326  1
  O  O176  1  0.882115  0.749884  0.429643  1
  O  O177  1  0.882169  0.750029  0.321846  1
  O  O178  1  0.617746  0.882458  0.261153  1
  O  O179  1  0.630849  0.813331  0.435775  1
  O  O180  1  0.630875  0.813497  0.315704  1
  O  O181  1  0.869093  0.686747  0.206691  1
  O  O182  1  0.686922  0.869203  0.206661  1
  O  O183  1  0.869036  0.869105  0.290262  1
  O  O184  1  0.869043  0.686606  0.544791  1
  O  O185  1  0.868974  0.868958  0.461233  1
  O  O186  1  0.686850  0.869013  0.544818  1
  O  O187  1  -0.000000  0.811237  0.299090  1
  O  O188  1  0.500018  0.688887  0.223252  1
  O  O189  1  -0.000000  0.667311  0.518288  1
  O  O190  1  0.000000  0.667357  0.233159  1
  O  O191  1  0.811468  0.667426  0.146662  1
  O  O192  1  -0.000000  0.811199  0.452356  1
  O  O193  1  0.811324  0.000000  0.452432  1
  O  O194  1  0.667432  0.000000  0.518429  1
  O  O195  1  0.332454  0.188629  0.604871  1
  O  O196  1  0.188535  0.332686  0.604861  1
  O  O197  1  0.667394  0.188682  0.604850  1
  O  O198  1  0.811347  0.332704  0.604849  1
  O  O199  1  0.667581  0.811506  0.604826  1
  O  O200  1  0.811468  0.667426  0.604833  1
  Si  Si201  1  0.201812  0.083640  0.458245  1
  Si  Si202  1  0.319845  0.201963  0.566567  1
  Si  Si203  1  0.201837  0.320037  0.184995  1
  Si  Si204  1  0.083608  0.201993  0.293315  1
  Si  Si205  1  0.319862  0.083607  0.239210  1
  Si  Si206  1  0.201859  0.320112  0.566553  1
  Si  Si207  1  0.083560  0.202055  0.458246  1
  Si  Si208  1  0.319802  0.083659  0.512362  1
  Si  Si209  1  0.083602  0.320038  0.239250  1
  Si  Si210  1  0.319842  0.201910  0.185006  1
  Si  Si211  1  0.201862  0.083570  0.293326  1
  Si  Si212  1  0.416248  0.179983  0.468343  1
  Si  Si213  1  0.179979  0.298076  0.414076  1
  Si  Si214  1  0.298026  0.179876  0.337484  1
  Si  Si215  1  0.416270  0.297956  0.229162  1
  Si  Si216  1  0.297991  0.179958  0.414097  1
  Si  Si217  1  0.416274  0.298014  0.522415  1
  Si  Si218  1  0.416285  0.179933  0.283237  1
  Si  Si219  1  0.180051  0.298035  0.337466  1
  Si  Si220  1  0.083595  0.320110  0.512308  1
  Si  Si221  1  0.180066  0.583635  0.468217  1
  Si  Si222  1  0.180030  0.416400  0.468270  1
  Si  Si223  1  0.298084  0.583619  0.229053  1
  Si  Si224  1  0.298027  0.416376  0.229127  1
  Si  Si225  1  0.298014  0.583670  0.522353  1
  Si  Si226  1  0.298012  0.416426  0.522394  1
  Si  Si227  1  0.180080  0.416347  0.283264  1
  Si  Si228  1  0.180141  0.583584  0.283194  1
  Si  Si229  1  0.319789  0.798128  0.566491  1
  Si  Si230  1  0.083594  0.679980  0.512213  1
  Si  Si231  1  0.201842  0.916396  0.458153  1
  Si  Si232  1  0.180123  0.701867  0.337404  1
  Si  Si233  1  0.201847  0.679929  0.184928  1
  Si  Si234  1  0.083628  0.797929  0.293288  1
  Si  Si235  1  0.319836  0.916371  0.239144  1
  Si  Si236  1  0.201797  0.679990  0.566484  1
  Si  Si237  1  0.083576  0.797982  0.458127  1
  Si  Si238  1  0.319803  0.916423  0.512286  1
  Si  Si239  1  0.083652  0.679925  0.239204  1
  Si  Si240  1  0.319814  0.798097  0.184927  1
  Si  Si241  1  0.201898  0.916329  0.293285  1
  Si  Si242  1  0.416277  0.820086  0.468289  1
  Si  Si243  1  0.180082  0.701933  0.414012  1
  Si  Si244  1  0.298124  0.819997  0.337406  1
  Si  Si245  1  0.416343  0.702041  0.229031  1
  Si  Si246  1  0.298062  0.820090  0.414020  1
  Si  Si247  1  0.416281  0.702074  0.522370  1
  Si  Si248  1  0.416316  0.820011  0.283131  1
  Si  Si249  1  0.819855  0.298200  0.337463  1
  Si  Si250  1  0.583602  0.180088  0.283211  1
  Si  Si251  1  0.701825  0.179934  0.414069  1
  Si  Si252  1  0.583588  0.297952  0.522383  1
  Si  Si253  1  0.701857  0.180064  0.337456  1
  Si  Si254  1  0.583585  0.298109  0.229134  1
  Si  Si255  1  0.583563  0.179914  0.468315  1
  Si  Si256  1  0.819829  0.298062  0.414074  1
  Si  Si257  1  0.916286  0.320163  0.239240  1
  Si  Si258  1  0.680004  0.202055  0.184980  1
  Si  Si259  1  0.798028  0.083740  0.293307  1
  Si  Si260  1  0.798022  0.320040  0.566546  1
  Si  Si261  1  0.916246  0.202017  0.458234  1
  Si  Si262  1  0.680007  0.083599  0.512338  1
  Si  Si263  1  0.798036  0.320155  0.184988  1
  Si  Si264  1  0.916292  0.202144  0.293317  1
  Si  Si265  1  0.680043  0.083766  0.239188  1
  Si  Si266  1  0.916280  0.320059  0.512301  1
  Si  Si267  1  0.680020  0.201911  0.566540  1
  Si  Si268  1  0.797990  0.083599  0.458215  1
  Si  Si269  1  0.701910  0.583755  0.229087  1
  Si  Si270  1  0.701846  0.416363  0.522399  1
  Si  Si271  1  0.701858  0.583606  0.522415  1
  Si  Si272  1  0.701858  0.416511  0.229118  1
  Si  Si273  1  0.819765  0.583595  0.468256  1
  Si  Si274  1  0.819828  0.416362  0.468277  1
  Si  Si275  1  0.819839  0.583724  0.283232  1
  Si  Si276  1  0.819823  0.416489  0.283250  1
  Si  Si277  1  0.798006  0.916357  0.458185  1
  Si  Si278  1  0.680110  0.798080  0.566525  1
  Si  Si279  1  0.583629  0.820169  0.283154  1
  Si  Si280  1  0.819796  0.702022  0.337435  1
  Si  Si281  1  0.701790  0.820051  0.414048  1
  Si  Si282  1  0.583599  0.702023  0.522415  1
  Si  Si283  1  0.701816  0.820175  0.337435  1
  Si  Si284  1  0.583663  0.702178  0.229065  1
  Si  Si285  1  0.583589  0.820007  0.468320  1
  Si  Si286  1  0.819753  0.701883  0.414044  1
  Si  Si287  1  0.916339  0.680048  0.239239  1
  Si  Si288  1  0.680186  0.798247  0.184963  1
  Si  Si289  1  0.798057  0.916496  0.293318  1
  Si  Si290  1  0.798103  0.679939  0.566523  1
  Si  Si291  1  0.916258  0.797934  0.458162  1
  Si  Si292  1  0.680046  0.916365  0.512317  1
  Si  Si293  1  0.798146  0.680076  0.184965  1
  Si  Si294  1  0.916309  0.798065  0.293318  1
  Si  Si295  1  0.680116  0.916532  0.239174  1
  Si  Si296  1  0.916282  0.679919  0.512240  1
  H  H297  1  0.332381  0.811452  0.124258  1
  H  H298  1  0.188490  0.667365  0.124254  1
  H  H299  1  0.332454  0.188629  0.124334  1
  H  H300  1  0.188535  0.332686  0.124324  1
  H  H301  1  0.332381  0.811452  0.627161  1
  H  H302  1  0.188490  0.667365  0.627157  1
  H  H303  1  0.667394  0.188682  0.124313  1
  H  H304  1  0.811347  0.332704  0.124312  1
  H  H305  1  0.667581  0.811506  0.124289  1
  H  H306  1  0.811468  0.667426  0.124296  1
  H  H307  1  0.332454  0.188629  0.627237  1
  H  H308  1  0.188535  0.332686  0.627227  1
  H  H309  1  0.667394  0.188682  0.627215  1
  H  H310  1  0.811347  0.332704  0.627215  1
  H  H311  1  0.667581  0.811506  0.627192  1
  H  H312  1  0.811468  0.667426  0.627199  1
