# generated using pymatgen
data_Si24H2O49
_symmetry_space_group_name_H-M   'P 1'
_cell_length_a   18.42952014
_cell_length_b   18.43506050
_cell_length_c   58.67680617
_cell_angle_alpha   90.00000000
_cell_angle_beta   90.00000000
_cell_angle_gamma   90.00000000
_symmetry_Int_Tables_number   1
_chemical_formula_structural   Si24H2O49
_chemical_formula_sum   'Si192 H16 O392'
_cell_volume   19935.4049229
_cell_formula_units_Z   8
loop_
 _symmetry_equiv_pos_site_id
 _symmetry_equiv_pos_as_xyz
  1  'x, y, z'
loop_
 _atom_site_type_symbol
 _atom_site_label
 _atom_site_symmetry_multiplicity
 _atom_site_fract_x
 _atom_site_fract_y
 _atom_site_fract_z
 _atom_site_occupancy
  O  O1  1  0.332381  0.811452  0.100553  1
  O  O2  1  0.188490  0.667365  0.100551  1
  O  O3  1  0.499940  0.311245  0.362217  1
  O  O4  1  0.499896  0.167330  0.317012  1
  O  O5  1  0.332454  0.188629  0.100605  1
  O  O6  1  0.167392  0.311356  0.257698  1
  O  O7  1  0.311317  0.167293  0.257716  1
  O  O8  1  0.499958  0.167409  0.198398  1
  O  O9  1  0.248951  0.249107  0.129683  1
  O  O10  1  0.092604  0.249119  0.178876  1
  O  O11  1  0.248988  0.092564  0.178882  1
  O  O12  1  0.248972  0.249182  0.385728  1
  O  O13  1  0.092588  0.249202  0.336532  1
  O  O14  1  0.248913  0.092611  0.336546  1
  O  O15  1  0.407257  0.250884  0.335993  1
  O  O16  1  0.250867  0.250882  0.286786  1
  O  O17  1  0.250924  0.250810  0.228627  1
  O  O18  1  0.407253  0.250837  0.179435  1
  O  O19  1  0.117716  0.250033  0.220720  1
  O  O20  1  0.382209  0.117651  0.179138  1
  O  O21  1  0.117643  0.250074  0.294683  1
  O  O22  1  0.382134  0.117718  0.336283  1
  O  O23  1  0.382180  0.249914  0.137587  1
  O  O24  1  0.249936  0.117601  0.220737  1
  O  O25  1  0.249904  0.117698  0.294695  1
  O  O26  1  0.382187  0.249976  0.377840  1
  O  O27  1  0.130871  0.313357  0.141759  1
  O  O28  1  0.130882  0.130955  0.199058  1
  O  O29  1  0.313089  0.130961  0.141756  1
  O  O30  1  0.130888  0.313428  0.373648  1
  O  O31  1  0.130843  0.131030  0.316363  1
  O  O32  1  0.313075  0.131003  0.373669  1
  O  O33  1  0.368953  0.186674  0.298874  1
  O  O34  1  0.369003  0.186566  0.216557  1
  O  O35  1  0.188502  0.000000  0.310275  1
  O  O36  1  0.188535  0.332686  0.100599  1
  O  O37  1  0.499912  0.311292  0.153190  1
  O  O38  1  0.332391  0.000000  0.355531  1
  O  O39  1  0.311332  0.500054  0.362193  1
  O  O40  1  0.167525  0.499980  0.198420  1
  O  O41  1  0.167465  0.500011  0.316931  1
  O  O42  1  0.311372  0.499982  0.153150  1
  O  O43  1  0.250934  0.592618  0.335935  1
  O  O44  1  0.250906  0.407428  0.335969  1
  O  O45  1  0.250943  0.407402  0.179421  1
  O  O46  1  0.251001  0.592584  0.179372  1
  O  O47  1  0.249931  0.382307  0.137571  1
  O  O48  1  0.249961  0.617647  0.137516  1
  O  O49  1  0.249935  0.382396  0.377829  1
  O  O50  1  0.249899  0.617725  0.377786  1
  O  O51  1  0.117732  0.382290  0.179176  1
  O  O52  1  0.117776  0.617635  0.179131  1
  O  O53  1  0.117687  0.382380  0.336232  1
  O  O54  1  0.117719  0.617703  0.336181  1
  O  O55  1  0.186835  0.630981  0.298805  1
  O  O56  1  0.368992  0.631053  0.356132  1
  O  O57  1  0.186751  0.369034  0.298845  1
  O  O58  1  0.368992  0.369041  0.356163  1
  O  O59  1  0.368986  0.368981  0.159245  1
  O  O60  1  0.186841  0.368993  0.216553  1
  O  O61  1  0.369077  0.630996  0.159162  1
  O  O62  1  0.186900  0.630929  0.216505  1
  O  O63  1  0.499930  0.688807  0.362219  1
  O  O64  1  0.332445  0.000000  0.159843  1
  O  O65  1  0.332381  0.811452  0.414762  1
  O  O66  1  0.167523  0.688561  0.257657  1
  O  O67  1  0.311430  0.832634  0.257660  1
  O  O68  1  0.499958  0.832721  0.198334  1
  O  O69  1  0.248953  0.750860  0.129638  1
  O  O70  1  0.092644  0.750820  0.178855  1
  O  O71  1  0.248971  0.907387  0.178840  1
  O  O72  1  0.248908  0.750921  0.385679  1
  O  O73  1  0.092582  0.750871  0.336458  1
  O  O74  1  0.248943  0.907424  0.336482  1
  O  O75  1  0.407278  0.749192  0.335958  1
  O  O76  1  0.250946  0.749164  0.286746  1
  O  O77  1  0.251005  0.749074  0.228578  1
  O  O78  1  0.407337  0.749124  0.179352  1
  O  O79  1  0.117759  0.749873  0.220693  1
  O  O80  1  0.382179  0.882287  0.179081  1
  O  O81  1  0.117705  0.749939  0.294615  1
  O  O82  1  0.382168  0.882378  0.336239  1
  O  O83  1  0.382193  0.750094  0.137510  1
  O  O84  1  0.250023  0.882269  0.220689  1
  O  O85  1  0.249956  0.882381  0.294625  1
  O  O86  1  0.382145  0.750115  0.377798  1
  O  O87  1  0.130902  0.686612  0.141723  1
  O  O88  1  0.130925  0.868944  0.199037  1
  O  O89  1  0.313059  0.869043  0.141705  1
  O  O90  1  0.130851  0.686685  0.373590  1
  O  O91  1  0.130863  0.869007  0.316282  1
  O  O92  1  0.313034  0.869070  0.373612  1
  O  O93  1  0.369010  0.813401  0.298830  1
  O  O94  1  0.369065  0.813293  0.216488  1
  O  O95  1  0.188490  0.667365  0.414760  1
  O  O96  1  0.499943  0.832661  0.316996  1
  O  O97  1  0.188561  -0.000000  0.205103  1
  O  O98  1  0.688530  0.167386  0.257691  1
  O  O99  1  0.832450  0.311445  0.257702  1
  O  O100  1  0.667394  0.188682  0.100591  1
  O  O101  1  0.811363  0.000000  0.205107  1
  O  O102  1  -0.000000  0.188767  0.310300  1
  O  O103  1  0.748942  0.250859  0.286781  1
  O  O104  1  0.592581  0.250820  0.335971  1
  O  O105  1  0.748973  0.250993  0.228617  1
  O  O106  1  0.592604  0.250991  0.179415  1
  O  O107  1  0.907282  0.249270  0.178879  1
  O  O108  1  0.750895  0.249246  0.129674  1
  O  O109  1  0.750926  0.092729  0.178863  1
  O  O110  1  0.750916  0.249104  0.385719  1
  O  O111  1  0.907254  0.249155  0.336526  1
  O  O112  1  0.750876  0.092566  0.336522  1
  O  O113  1  0.749913  0.117652  0.294667  1
  O  O114  1  0.617691  0.249917  0.377815  1
  O  O115  1  0.749936  0.117791  0.220715  1
  O  O116  1  0.617670  0.250073  0.137565  1
  O  O117  1  0.617661  0.117644  0.336268  1
  O  O118  1  0.882163  0.250046  0.294676  1
  O  O119  1  0.882200  0.250193  0.220722  1
  O  O120  1  0.617709  0.117815  0.179125  1
  O  O121  1  0.630846  0.186591  0.298852  1
  O  O122  1  0.630892  0.186779  0.216535  1
  O  O123  1  0.869002  0.313468  0.141754  1
  O  O124  1  0.686772  0.131114  0.141740  1
  O  O125  1  0.868994  0.131132  0.199051  1
  O  O126  1  0.868995  0.313369  0.373644  1
  O  O127  1  0.868957  0.130993  0.316349  1
  O  O128  1  0.686762  0.130943  0.373653  1
  O  O129  1  0.000000  0.332696  0.355499  1
  O  O130  1  0.000000  0.332727  0.159912  1
  O  O131  1  0.811347  0.332704  0.100590  1
  O  O132  1  0.000000  0.188811  0.205115  1
  O  O133  1  0.667486  -0.000000  0.159846  1
  O  O134  1  0.832378  0.499979  0.316946  1
  O  O135  1  0.832415  0.500109  0.198429  1
  O  O136  1  0.688535  0.499983  0.362219  1
  O  O137  1  0.688575  0.500133  0.153156  1
  O  O138  1  0.748923  0.592573  0.335974  1
  O  O139  1  0.748957  0.407392  0.335974  1
  O  O140  1  0.748987  0.592712  0.179395  1
  O  O141  1  0.748951  0.407531  0.179414  1
  O  O142  1  0.882142  0.617648  0.336199  1
  O  O143  1  0.882177  0.382330  0.336231  1
  O  O144  1  0.882206  0.617775  0.179159  1
  O  O145  1  0.882174  0.382441  0.179163  1
  O  O146  1  0.749990  0.617645  0.377830  1
  O  O147  1  0.749925  0.382305  0.377826  1
  O  O148  1  0.750032  0.617806  0.137545  1
  O  O149  1  0.749952  0.382446  0.137561  1
  O  O150  1  0.630877  0.630988  0.356177  1
  O  O151  1  0.812980  0.630933  0.298829  1
  O  O152  1  0.630879  0.368973  0.356147  1
  O  O153  1  0.813069  0.369002  0.298851  1
  O  O154  1  0.630944  0.631154  0.159194  1
  O  O155  1  0.813040  0.631085  0.216526  1
  O  O156  1  0.630865  0.369147  0.159226  1
  O  O157  1  0.813082  0.369153  0.216548  1
  O  O158  1  0.688465  0.832708  0.257682  1
  O  O159  1  0.832355  0.688615  0.257676  1
  O  O160  1  0.667581  0.811506  0.100575  1
  O  O161  1  0.748887  0.749111  0.286759  1
  O  O162  1  0.592604  0.749119  0.335984  1
  O  O163  1  0.748929  0.749249  0.228593  1
  O  O164  1  0.592647  0.749279  0.179373  1
  O  O165  1  0.907324  0.750949  0.178876  1
  O  O166  1  0.751058  0.751024  0.129660  1
  O  O167  1  0.750969  0.907548  0.178866  1
  O  O168  1  0.750979  0.750857  0.385697  1
  O  O169  1  0.907276  0.750819  0.336482  1
  O  O170  1  0.750912  0.907394  0.336505  1
  O  O171  1  0.749892  0.882318  0.294654  1
  O  O172  1  0.617727  0.750070  0.377832  1
  O  O173  1  0.749935  0.882457  0.220719  1
  O  O174  1  0.617820  0.750238  0.137537  1
  O  O175  1  0.617696  0.882294  0.336261  1
  O  O176  1  0.882115  0.749884  0.294645  1
  O  O177  1  0.882169  0.750029  0.220719  1
  O  O178  1  0.617746  0.882458  0.179096  1
  O  O179  1  0.630849  0.813331  0.298850  1
  O  O180  1  0.630875  0.813497  0.216507  1
  O  O181  1  0.869093  0.686747  0.141747  1
  O  O182  1  0.686922  0.869203  0.141726  1
  O  O183  1  0.869036  0.869105  0.199059  1
  O  O184  1  0.869043  0.686606  0.373612  1
  O  O185  1  0.868974  0.868958  0.316309  1
  O  O186  1  0.686850  0.869013  0.373631  1
  O  O187  1  0.000000  0.811237  0.205113  1
  O  O188  1  0.500018  0.688887  0.153104  1
  O  O189  1  0.000000  0.667311  0.355437  1
  O  O190  1  0.000000  0.667357  0.159898  1
  O  O191  1  0.811468  0.667426  0.100579  1
  O  O192  1  -0.000000  0.811199  0.310221  1
  O  O193  1  0.811324  0.000000  0.310273  1
  O  O194  1  0.667432  -0.000000  0.355534  1
  O  O195  1  0.499940  0.311245  0.676426  1
  O  O196  1  0.499896  0.167330  0.631221  1
  O  O197  1  0.332454  0.188629  0.414815  1
  O  O198  1  0.167392  0.311356  0.571907  1
  O  O199  1  0.311317  0.167293  0.571926  1
  O  O200  1  0.499958  0.167409  0.512607  1
  O  O201  1  0.248951  0.249107  0.443893  1
  O  O202  1  0.092604  0.249119  0.493085  1
  O  O203  1  0.248988  0.092564  0.493091  1
  O  O204  1  0.248972  0.249182  0.699937  1
  O  O205  1  0.092588  0.249202  0.650741  1
  O  O206  1  0.248913  0.092611  0.650755  1
  O  O207  1  0.407257  0.250884  0.650202  1
  O  O208  1  0.250867  0.250882  0.600996  1
  O  O209  1  0.250924  0.250810  0.542836  1
  O  O210  1  0.407253  0.250837  0.493644  1
  O  O211  1  0.117716  0.250033  0.534929  1
  O  O212  1  0.382209  0.117651  0.493348  1
  O  O213  1  0.117643  0.250074  0.608893  1
  O  O214  1  0.382134  0.117718  0.650493  1
  O  O215  1  0.382180  0.249914  0.451796  1
  O  O216  1  0.249936  0.117601  0.534947  1
  O  O217  1  0.249904  0.117698  0.608904  1
  O  O218  1  0.382187  0.249976  0.692050  1
  O  O219  1  0.130871  0.313357  0.455968  1
  O  O220  1  0.130882  0.130955  0.513268  1
  O  O221  1  0.313089  0.130961  0.455965  1
  O  O222  1  0.130888  0.313428  0.687857  1
  O  O223  1  0.130843  0.131030  0.630573  1
  O  O224  1  0.313075  0.131003  0.687879  1
  O  O225  1  0.368953  0.186674  0.613084  1
  O  O226  1  0.369003  0.186566  0.530767  1
  O  O227  1  0.188502  -0.000000  0.624484  1
  O  O228  1  0.188535  0.332686  0.414808  1
  O  O229  1  0.499912  0.311292  0.467399  1
  O  O230  1  0.332391  -0.000000  0.669741  1
  O  O231  1  0.311332  0.500054  0.676403  1
  O  O232  1  0.167525  0.499980  0.512630  1
  O  O233  1  0.167465  0.500011  0.631140  1
  O  O234  1  0.311372  0.499982  0.467360  1
  O  O235  1  0.250934  0.592618  0.650144  1
  O  O236  1  0.250906  0.407428  0.650179  1
  O  O237  1  0.250943  0.407402  0.493631  1
  O  O238  1  0.251001  0.592584  0.493581  1
  O  O239  1  0.249931  0.382307  0.451780  1
  O  O240  1  0.249961  0.617647  0.451725  1
  O  O241  1  0.249935  0.382396  0.692039  1
  O  O242  1  0.249899  0.617725  0.691995  1
  O  O243  1  0.117732  0.382290  0.493385  1
  O  O244  1  0.117776  0.617635  0.493341  1
  O  O245  1  0.117687  0.382380  0.650442  1
  O  O246  1  0.117719  0.617703  0.650390  1
  O  O247  1  0.186835  0.630981  0.613015  1
  O  O248  1  0.368992  0.631053  0.670341  1
  O  O249  1  0.186751  0.369034  0.613054  1
  O  O250  1  0.368992  0.369041  0.670373  1
  O  O251  1  0.368986  0.368981  0.473455  1
  O  O252  1  0.186841  0.368993  0.530762  1
  O  O253  1  0.369077  0.630996  0.473371  1
  O  O254  1  0.186900  0.630929  0.530714  1
  O  O255  1  0.499930  0.688807  0.676429  1
  O  O256  1  0.332445  0.000000  0.474053  1
  O  O257  1  0.332381  0.811452  0.728972  1
  O  O258  1  0.167523  0.688561  0.571867  1
  O  O259  1  0.311430  0.832634  0.571869  1
  O  O260  1  0.499958  0.832721  0.512544  1
  O  O261  1  0.248953  0.750860  0.443847  1
  O  O262  1  0.092644  0.750820  0.493064  1
  O  O263  1  0.248971  0.907387  0.493049  1
  O  O264  1  0.248908  0.750921  0.699888  1
  O  O265  1  0.092582  0.750871  0.650667  1
  O  O266  1  0.248943  0.907424  0.650691  1
  O  O267  1  0.407278  0.749192  0.650168  1
  O  O268  1  0.250946  0.749164  0.600955  1
  O  O269  1  0.251005  0.749074  0.542787  1
  O  O270  1  0.407337  0.749124  0.493561  1
  O  O271  1  0.117759  0.749873  0.534903  1
  O  O272  1  0.382179  0.882287  0.493291  1
  O  O273  1  0.117705  0.749939  0.608824  1
  O  O274  1  0.382168  0.882378  0.650448  1
  O  O275  1  0.382193  0.750094  0.451719  1
  O  O276  1  0.250023  0.882269  0.534899  1
  O  O277  1  0.249956  0.882381  0.608835  1
  O  O278  1  0.382145  0.750115  0.692008  1
  O  O279  1  0.130902  0.686612  0.455932  1
  O  O280  1  0.130925  0.868944  0.513246  1
  O  O281  1  0.313059  0.869043  0.455915  1
  O  O282  1  0.130851  0.686685  0.687800  1
  O  O283  1  0.130863  0.869007  0.630492  1
  O  O284  1  0.313034  0.869070  0.687821  1
  O  O285  1  0.369010  0.813401  0.613040  1
  O  O286  1  0.369065  0.813293  0.530698  1
  O  O287  1  0.188490  0.667365  0.728970  1
  O  O288  1  0.499943  0.832661  0.631206  1
  O  O289  1  0.188561  0.000000  0.519313  1
  O  O290  1  0.688530  0.167386  0.571901  1
  O  O291  1  0.832450  0.311445  0.571912  1
  O  O292  1  0.667394  0.188682  0.414800  1
  O  O293  1  0.811363  0.000000  0.519317  1
  O  O294  1  0.000000  0.188767  0.624510  1
  O  O295  1  0.748942  0.250859  0.600990  1
  O  O296  1  0.592581  0.250820  0.650180  1
  O  O297  1  0.748973  0.250993  0.542826  1
  O  O298  1  0.592604  0.250991  0.493625  1
  O  O299  1  0.907282  0.249270  0.493088  1
  O  O300  1  0.750895  0.249246  0.443884  1
  O  O301  1  0.750926  0.092729  0.493073  1
  O  O302  1  0.750916  0.249104  0.699928  1
  O  O303  1  0.907254  0.249155  0.650735  1
  O  O304  1  0.750876  0.092566  0.650731  1
  O  O305  1  0.749913  0.117652  0.608876  1
  O  O306  1  0.617691  0.249917  0.692024  1
  O  O307  1  0.749936  0.117791  0.534925  1
  O  O308  1  0.617670  0.250073  0.451774  1
  O  O309  1  0.617661  0.117644  0.650477  1
  O  O310  1  0.882163  0.250046  0.608886  1
  O  O311  1  0.882200  0.250193  0.534932  1
  O  O312  1  0.617709  0.117815  0.493335  1
  O  O313  1  0.630846  0.186591  0.613061  1
  O  O314  1  0.630892  0.186779  0.530745  1
  O  O315  1  0.869002  0.313468  0.455964  1
  O  O316  1  0.686772  0.131114  0.455949  1
  O  O317  1  0.868994  0.131132  0.513260  1
  O  O318  1  0.868995  0.313369  0.687854  1
  O  O319  1  0.868957  0.130993  0.630559  1
  O  O320  1  0.686762  0.130943  0.687863  1
  O  O321  1  0.000000  0.332696  0.669708  1
  O  O322  1  -0.000000  0.332727  0.474121  1
  O  O323  1  0.811347  0.332704  0.414800  1
  O  O324  1  0.000000  0.188811  0.519325  1
  O  O325  1  0.667486  0.000000  0.474055  1
  O  O326  1  0.832378  0.499979  0.631155  1
  O  O327  1  0.832415  0.500109  0.512639  1
  O  O328  1  0.688535  0.499983  0.676429  1
  O  O329  1  0.688575  0.500133  0.467366  1
  O  O330  1  0.748923  0.592573  0.650183  1
  O  O331  1  0.748957  0.407392  0.650184  1
  O  O332  1  0.748987  0.592712  0.493605  1
  O  O333  1  0.748951  0.407531  0.493623  1
  O  O334  1  0.882142  0.617648  0.650409  1
  O  O335  1  0.882177  0.382330  0.650441  1
  O  O336  1  0.882206  0.617775  0.493369  1
  O  O337  1  0.882174  0.382441  0.493373  1
  O  O338  1  0.749990  0.617645  0.692039  1
  O  O339  1  0.749925  0.382305  0.692035  1
  O  O340  1  0.750032  0.617806  0.451754  1
  O  O341  1  0.749952  0.382446  0.451771  1
  O  O342  1  0.630877  0.630988  0.670387  1
  O  O343  1  0.812980  0.630933  0.613039  1
  O  O344  1  0.630879  0.368973  0.670356  1
  O  O345  1  0.813069  0.369002  0.613060  1
  O  O346  1  0.630944  0.631154  0.473404  1
  O  O347  1  0.813040  0.631085  0.530735  1
  O  O348  1  0.630865  0.369147  0.473435  1
  O  O349  1  0.813082  0.369153  0.530758  1
  O  O350  1  0.688465  0.832708  0.571891  1
  O  O351  1  0.832355  0.688615  0.571886  1
  O  O352  1  0.667581  0.811506  0.414784  1
  O  O353  1  0.748887  0.749111  0.600968  1
  O  O354  1  0.592604  0.749119  0.650194  1
  O  O355  1  0.748929  0.749249  0.542802  1
  O  O356  1  0.592647  0.749279  0.493582  1
  O  O357  1  0.907324  0.750949  0.493085  1
  O  O358  1  0.751058  0.751024  0.443870  1
  O  O359  1  0.750969  0.907548  0.493076  1
  O  O360  1  0.750979  0.750857  0.699906  1
  O  O361  1  0.907276  0.750819  0.650692  1
  O  O362  1  0.750912  0.907394  0.650715  1
  O  O363  1  0.749892  0.882318  0.608864  1
  O  O364  1  0.617727  0.750070  0.692041  1
  O  O365  1  0.749935  0.882457  0.534928  1
  O  O366  1  0.617820  0.750238  0.451747  1
  O  O367  1  0.617696  0.882294  0.650470  1
  O  O368  1  0.882115  0.749884  0.608854  1
  O  O369  1  0.882169  0.750029  0.534929  1
  O  O370  1  0.617746  0.882458  0.493305  1
  O  O371  1  0.630849  0.813331  0.613060  1
  O  O372  1  0.630875  0.813497  0.530716  1
  O  O373  1  0.869093  0.686747  0.455956  1
  O  O374  1  0.686922  0.869203  0.455936  1
  O  O375  1  0.869036  0.869105  0.513269  1
  O  O376  1  0.869043  0.686606  0.687822  1
  O  O377  1  0.868974  0.868958  0.630519  1
  O  O378  1  0.686850  0.869013  0.687841  1
  O  O379  1  0.000000  0.811237  0.519323  1
  O  O380  1  0.500018  0.688887  0.467314  1
  O  O381  1  0.000000  0.667311  0.669647  1
  O  O382  1  0.000000  0.667357  0.474108  1
  O  O383  1  0.811468  0.667426  0.414789  1
  O  O384  1  0.000000  0.811199  0.624431  1
  O  O385  1  0.811324  0.000000  0.624483  1
  O  O386  1  0.667432  -0.000000  0.669743  1
  O  O387  1  0.332454  0.188629  0.729024  1
  O  O388  1  0.188535  0.332686  0.729018  1
  O  O389  1  0.667394  0.188682  0.729010  1
  O  O390  1  0.811347  0.332704  0.729009  1
  O  O391  1  0.667581  0.811506  0.728994  1
  O  O392  1  0.811468  0.667426  0.728998  1
  Si  Si393  1  0.201812  0.083640  0.314260  1
  Si  Si394  1  0.319845  0.201963  0.388546  1
  Si  Si395  1  0.201837  0.320037  0.126868  1
  Si  Si396  1  0.083608  0.201993  0.201153  1
  Si  Si397  1  0.319862  0.083607  0.164048  1
  Si  Si398  1  0.201859  0.320112  0.388537  1
  Si  Si399  1  0.083560  0.202055  0.314261  1
  Si  Si400  1  0.319802  0.083659  0.351373  1
  Si  Si401  1  0.083602  0.320038  0.164075  1
  Si  Si402  1  0.319842  0.201910  0.126876  1
  Si  Si403  1  0.201862  0.083570  0.201160  1
  Si  Si404  1  0.416248  0.179983  0.321185  1
  Si  Si405  1  0.179979  0.298076  0.283969  1
  Si  Si406  1  0.298026  0.179876  0.231444  1
  Si  Si407  1  0.416270  0.297956  0.157157  1
  Si  Si408  1  0.297991  0.179958  0.283984  1
  Si  Si409  1  0.416274  0.298014  0.358267  1
  Si  Si410  1  0.416285  0.179933  0.194241  1
  Si  Si411  1  0.180051  0.298035  0.231431  1
  Si  Si412  1  0.083595  0.320110  0.351336  1
  Si  Si413  1  0.180066  0.583635  0.321099  1
  Si  Si414  1  0.180030  0.416400  0.321135  1
  Si  Si415  1  0.298084  0.583619  0.157082  1
  Si  Si416  1  0.298027  0.416376  0.157133  1
  Si  Si417  1  0.298014  0.583670  0.358225  1
  Si  Si418  1  0.298012  0.416426  0.358253  1
  Si  Si419  1  0.180080  0.416347  0.194260  1
  Si  Si420  1  0.180141  0.583584  0.194212  1
  Si  Si421  1  0.319789  0.798128  0.388494  1
  Si  Si422  1  0.083594  0.679980  0.351271  1
  Si  Si423  1  0.201842  0.916396  0.314197  1
  Si  Si424  1  0.180123  0.701867  0.231389  1
  Si  Si425  1  0.201847  0.679929  0.126822  1
  Si  Si426  1  0.083628  0.797929  0.201134  1
  Si  Si427  1  0.319836  0.916371  0.164003  1
  Si  Si428  1  0.201797  0.679990  0.388490  1
  Si  Si429  1  0.083576  0.797982  0.314179  1
  Si  Si430  1  0.319803  0.916423  0.351321  1
  Si  Si431  1  0.083652  0.679925  0.164044  1
  Si  Si432  1  0.319814  0.798097  0.126821  1
  Si  Si433  1  0.201898  0.916329  0.201132  1
  Si  Si434  1  0.416277  0.820086  0.321148  1
  Si  Si435  1  0.180082  0.701933  0.283925  1
  Si  Si436  1  0.298124  0.819997  0.231390  1
  Si  Si437  1  0.416343  0.702041  0.157067  1
  Si  Si438  1  0.298062  0.820090  0.283931  1
  Si  Si439  1  0.416281  0.702074  0.358236  1
  Si  Si440  1  0.416316  0.820011  0.194168  1
  Si  Si441  1  0.819855  0.298200  0.231429  1
  Si  Si442  1  0.583602  0.180088  0.194223  1
  Si  Si443  1  0.701825  0.179934  0.283965  1
  Si  Si444  1  0.583588  0.297952  0.358246  1
  Si  Si445  1  0.701857  0.180064  0.231424  1
  Si  Si446  1  0.583585  0.298109  0.157138  1
  Si  Si447  1  0.583563  0.179914  0.321166  1
  Si  Si448  1  0.819829  0.298062  0.283968  1
  Si  Si449  1  0.916286  0.320163  0.164069  1
  Si  Si450  1  0.680004  0.202055  0.126857  1
  Si  Si451  1  0.798028  0.083740  0.201147  1
  Si  Si452  1  0.798022  0.320040  0.388532  1
  Si  Si453  1  0.916246  0.202017  0.314252  1
  Si  Si454  1  0.680007  0.083599  0.351357  1
  Si  Si455  1  0.798036  0.320155  0.126863  1
  Si  Si456  1  0.916292  0.202144  0.201154  1
  Si  Si457  1  0.680043  0.083766  0.164033  1
  Si  Si458  1  0.916280  0.320059  0.351331  1
  Si  Si459  1  0.680020  0.201911  0.388528  1
  Si  Si460  1  0.797990  0.083599  0.314239  1
  Si  Si461  1  0.701910  0.583755  0.157105  1
  Si  Si462  1  0.701846  0.416363  0.358257  1
  Si  Si463  1  0.701858  0.583606  0.358267  1
  Si  Si464  1  0.701858  0.416511  0.157127  1
  Si  Si465  1  0.819765  0.583595  0.321125  1
  Si  Si466  1  0.819828  0.416362  0.321140  1
  Si  Si467  1  0.819839  0.583724  0.194238  1
  Si  Si468  1  0.819823  0.416489  0.194250  1
  Si  Si469  1  0.798006  0.916357  0.314219  1
  Si  Si470  1  0.680110  0.798080  0.388518  1
  Si  Si471  1  0.583629  0.820169  0.194185  1
  Si  Si472  1  0.819796  0.702022  0.231410  1
  Si  Si473  1  0.701790  0.820051  0.283950  1
  Si  Si474  1  0.583599  0.702023  0.358267  1
  Si  Si475  1  0.701816  0.820175  0.231410  1
  Si  Si476  1  0.583663  0.702178  0.157091  1
  Si  Si477  1  0.583589  0.820007  0.321170  1
  Si  Si478  1  0.819753  0.701883  0.283947  1
  Si  Si479  1  0.916339  0.680048  0.164068  1
  Si  Si480  1  0.680186  0.798247  0.126846  1
  Si  Si481  1  0.798057  0.916496  0.201154  1
  Si  Si482  1  0.798103  0.679939  0.388516  1
  Si  Si483  1  0.916258  0.797934  0.314203  1
  Si  Si484  1  0.680046  0.916365  0.351342  1
  Si  Si485  1  0.798146  0.680076  0.126847  1
  Si  Si486  1  0.916309  0.798065  0.201155  1
  Si  Si487  1  0.680116  0.916532  0.164023  1
  Si  Si488  1  0.916282  0.679919  0.351290  1
  Si  Si489  1  0.201812  0.083640  0.628470  1
  Si  Si490  1  0.319845  0.201963  0.702756  1
  Si  Si491  1  0.201837  0.320037  0.441077  1
  Si  Si492  1  0.083608  0.201993  0.515362  1
  Si  Si493  1  0.319862  0.083607  0.478257  1
  Si  Si494  1  0.201859  0.320112  0.702746  1
  Si  Si495  1  0.083560  0.202055  0.628470  1
  Si  Si496  1  0.319802  0.083659  0.665583  1
  Si  Si497  1  0.083602  0.320038  0.478285  1
  Si  Si498  1  0.319842  0.201910  0.441085  1
  Si  Si499  1  0.201862  0.083570  0.515370  1
  Si  Si500  1  0.416248  0.179983  0.635395  1
  Si  Si501  1  0.179979  0.298076  0.598179  1
  Si  Si502  1  0.298026  0.179876  0.545653  1
  Si  Si503  1  0.416270  0.297956  0.471366  1
  Si  Si504  1  0.297991  0.179958  0.598193  1
  Si  Si505  1  0.416274  0.298014  0.672477  1
  Si  Si506  1  0.416285  0.179933  0.508451  1
  Si  Si507  1  0.180051  0.298035  0.545640  1
  Si  Si508  1  0.083595  0.320110  0.665545  1
  Si  Si509  1  0.180066  0.583635  0.635308  1
  Si  Si510  1  0.180030  0.416400  0.635345  1
  Si  Si511  1  0.298084  0.583619  0.471292  1
  Si  Si512  1  0.298027  0.416376  0.471343  1
  Si  Si513  1  0.298014  0.583670  0.672434  1
  Si  Si514  1  0.298012  0.416426  0.672462  1
  Si  Si515  1  0.180080  0.416347  0.508469  1
  Si  Si516  1  0.180141  0.583584  0.508421  1
  Si  Si517  1  0.319789  0.798128  0.702703  1
  Si  Si518  1  0.083594  0.679980  0.665481  1
  Si  Si519  1  0.201842  0.916396  0.628406  1
  Si  Si520  1  0.180123  0.701867  0.545598  1
  Si  Si521  1  0.201847  0.679929  0.441031  1
  Si  Si522  1  0.083628  0.797929  0.515344  1
  Si  Si523  1  0.319836  0.916371  0.478212  1
  Si  Si524  1  0.201797  0.679990  0.702699  1
  Si  Si525  1  0.083576  0.797982  0.628389  1
  Si  Si526  1  0.319803  0.916423  0.665531  1
  Si  Si527  1  0.083652  0.679925  0.478254  1
  Si  Si528  1  0.319814  0.798097  0.441031  1
  Si  Si529  1  0.201898  0.916329  0.515341  1
  Si  Si530  1  0.416277  0.820086  0.635357  1
  Si  Si531  1  0.180082  0.701933  0.598135  1
  Si  Si532  1  0.298124  0.819997  0.545600  1
  Si  Si533  1  0.416343  0.702041  0.471277  1
  Si  Si534  1  0.298062  0.820090  0.598141  1
  Si  Si535  1  0.416281  0.702074  0.672446  1
  Si  Si536  1  0.416316  0.820011  0.508378  1
  Si  Si537  1  0.819855  0.298200  0.545638  1
  Si  Si538  1  0.583602  0.180088  0.508433  1
  Si  Si539  1  0.701825  0.179934  0.598174  1
  Si  Si540  1  0.583588  0.297952  0.672455  1
  Si  Si541  1  0.701857  0.180064  0.545634  1
  Si  Si542  1  0.583585  0.298109  0.471348  1
  Si  Si543  1  0.583563  0.179914  0.635376  1
  Si  Si544  1  0.819829  0.298062  0.598177  1
  Si  Si545  1  0.916286  0.320163  0.478278  1
  Si  Si546  1  0.680004  0.202055  0.441067  1
  Si  Si547  1  0.798028  0.083740  0.515357  1
  Si  Si548  1  0.798022  0.320040  0.702741  1
  Si  Si549  1  0.916246  0.202017  0.628462  1
  Si  Si550  1  0.680007  0.083599  0.665566  1
  Si  Si551  1  0.798036  0.320155  0.441072  1
  Si  Si552  1  0.916292  0.202144  0.515363  1
  Si  Si553  1  0.680043  0.083766  0.478243  1
  Si  Si554  1  0.916280  0.320059  0.665541  1
  Si  Si555  1  0.680020  0.201911  0.702737  1
  Si  Si556  1  0.797990  0.083599  0.628449  1
  Si  Si557  1  0.701910  0.583755  0.471315  1
  Si  Si558  1  0.701846  0.416363  0.672466  1
  Si  Si559  1  0.701858  0.583606  0.672476  1
  Si  Si560  1  0.701858  0.416511  0.471336  1
  Si  Si561  1  0.819765  0.583595  0.635335  1
  Si  Si562  1  0.819828  0.416362  0.635349  1
  Si  Si563  1  0.819839  0.583724  0.508447  1
  Si  Si564  1  0.819823  0.416489  0.508459  1
  Si  Si565  1  0.798006  0.916357  0.628429  1
  Si  Si566  1  0.680110  0.798080  0.702727  1
  Si  Si567  1  0.583629  0.820169  0.508394  1
  Si  Si568  1  0.819796  0.702022  0.545619  1
  Si  Si569  1  0.701790  0.820051  0.598160  1
  Si  Si570  1  0.583599  0.702023  0.672477  1
  Si  Si571  1  0.701816  0.820175  0.545619  1
  Si  Si572  1  0.583663  0.702178  0.471300  1
  Si  Si573  1  0.583589  0.820007  0.635379  1
  Si  Si574  1  0.819753  0.701883  0.598157  1
  Si  Si575  1  0.916339  0.680048  0.478277  1
  Si  Si576  1  0.680186  0.798247  0.441055  1
  Si  Si577  1  0.798057  0.916496  0.515364  1
  Si  Si578  1  0.798103  0.679939  0.702726  1
  Si  Si579  1  0.916258  0.797934  0.628413  1
  Si  Si580  1  0.680046  0.916365  0.665551  1
  Si  Si581  1  0.798146  0.680076  0.441057  1
  Si  Si582  1  0.916309  0.798065  0.515364  1
  Si  Si583  1  0.680116  0.916532  0.478233  1
  Si  Si584  1  0.916282  0.679919  0.665499  1
  H  H585  1  0.332381  0.811452  0.085215  1
  H  H586  1  0.188490  0.667365  0.085213  1
  H  H587  1  0.332454  0.188629  0.085267  1
  H  H588  1  0.188535  0.332686  0.085260  1
  H  H589  1  0.667394  0.188682  0.085252  1
  H  H590  1  0.811347  0.332704  0.085252  1
  H  H591  1  0.667581  0.811506  0.085236  1
  H  H592  1  0.811468  0.667426  0.085241  1
  H  H593  1  0.332381  0.811452  0.744310  1
  H  H594  1  0.188490  0.667365  0.744308  1
  H  H595  1  0.332454  0.188629  0.744362  1
  H  H596  1  0.188535  0.332686  0.744356  1
  H  H597  1  0.667394  0.188682  0.744348  1
  H  H598  1  0.811347  0.332704  0.744347  1
  H  H599  1  0.667581  0.811506  0.744332  1
  H  H600  1  0.811468  0.667426  0.744336  1
