# generated using pymatgen
data_Si12H2O25
_symmetry_space_group_name_H-M   'P 1'
_cell_length_a   7.63839237
_cell_length_b   19.20240711
_cell_length_c   58.92597327
_cell_angle_alpha   45.52683880
_cell_angle_beta   90.00000000
_cell_angle_gamma   75.07399054
_symmetry_Int_Tables_number   1
_chemical_formula_structural   Si12H2O25
_chemical_formula_sum   'Si48 H8 O100'
_cell_volume   5751.6633796
_cell_formula_units_Z   4
loop_
 _symmetry_equiv_pos_site_id
 _symmetry_equiv_pos_as_xyz
  1  'x, y, z'
loop_
 _atom_site_type_symbol
 _atom_site_label
 _atom_site_symmetry_multiplicity
 _atom_site_fract_x
 _atom_site_fract_y
 _atom_site_fract_z
 _atom_site_occupancy
  O  O1  1  0.222132  0.687962  0.250556  1
  O  O2  1  0.222133  0.187959  0.250557  1
  O  O3  1  0.222133  0.687959  0.188944  1
  O  O4  1  0.222131  0.187962  0.188943  1
  O  O5  1  0.315625  0.791032  0.196218  1
  O  O6  1  0.315625  0.291031  0.196219  1
  O  O7  1  0.712652  0.153569  0.158514  1
  O  O8  1  0.712655  0.653565  0.158514  1
  O  O9  1  0.287101  0.846568  0.228602  1
  O  O10  1  0.287103  0.346565  0.228603  1
  O  O11  1  0.287103  0.846565  0.138478  1
  O  O12  1  0.287101  0.346567  0.138478  1
  O  O13  1  0.552015  0.689088  0.249612  1
  O  O14  1  0.552018  0.189085  0.249613  1
  O  O15  1  0.552019  0.689084  0.189373  1
  O  O16  1  0.552016  0.189088  0.189373  1
  O  O17  1  0.913482  0.641849  0.196761  1
  O  O18  1  0.913481  0.141851  0.196761  1
  O  O19  1  0.086276  0.358282  0.261499  1
  O  O20  1  0.086273  0.858284  0.261498  1
  O  O21  1  0.770655  0.502321  0.223570  1
  O  O22  1  0.770653  0.002324  0.223570  1
  O  O23  1  0.229103  0.497809  0.224601  1
  O  O24  1  0.229100  0.997811  0.224600  1
  O  O25  1  0.139253  0.584300  0.243415  1
  O  O26  1  0.139253  0.084300  0.243416  1
  O  O27  1  0.777621  0.312173  0.336348  1
  O  O28  1  0.777624  0.812171  0.336348  1
  O  O29  1  0.222132  0.687962  0.478854  1
  O  O30  1  0.222133  0.187959  0.478855  1
  O  O31  1  0.222133  0.687959  0.417242  1
  O  O32  1  0.222131  0.187962  0.417242  1
  O  O33  1  0.777625  0.312172  0.274736  1
  O  O34  1  0.777622  0.812173  0.274735  1
  O  O35  1  0.684131  0.209102  0.329073  1
  O  O36  1  0.684131  0.709102  0.329072  1
  O  O37  1  0.315625  0.791032  0.424517  1
  O  O38  1  0.315625  0.291031  0.424518  1
  O  O39  1  0.712652  0.153569  0.386813  1
  O  O40  1  0.712655  0.653565  0.386813  1
  O  O41  1  0.287101  0.846568  0.456901  1
  O  O42  1  0.287103  0.346565  0.456902  1
  O  O43  1  0.287103  0.846565  0.366777  1
  O  O44  1  0.287101  0.346567  0.366777  1
  O  O45  1  0.712655  0.153565  0.296690  1
  O  O46  1  0.712652  0.653568  0.296689  1
  O  O47  1  0.447739  0.311047  0.335919  1
  O  O48  1  0.447740  0.811045  0.335919  1
  O  O49  1  0.552015  0.689088  0.477911  1
  O  O50  1  0.552018  0.189085  0.477912  1
  O  O51  1  0.552019  0.689084  0.417672  1
  O  O52  1  0.552016  0.189088  0.417671  1
  O  O53  1  0.447740  0.311045  0.275680  1
  O  O54  1  0.447739  0.811048  0.275679  1
  O  O55  1  0.086274  0.358284  0.328531  1
  O  O56  1  0.086277  0.858282  0.328531  1
  O  O57  1  0.913478  0.641852  0.263792  1
  O  O58  1  0.913480  0.141849  0.263793  1
  O  O59  1  0.913482  0.641849  0.425060  1
  O  O60  1  0.913481  0.141851  0.425060  1
  O  O61  1  0.086276  0.358282  0.489798  1
  O  O62  1  0.086273  0.858284  0.489797  1
  O  O63  1  0.229100  0.497811  0.301721  1
  O  O64  1  0.229104  0.997808  0.301722  1
  O  O65  1  0.770652  0.502325  0.300690  1
  O  O66  1  0.770655  0.002322  0.300692  1
  O  O67  1  0.770655  0.502321  0.451869  1
  O  O68  1  0.770653  0.002324  0.451869  1
  O  O69  1  0.229103  0.497809  0.452900  1
  O  O70  1  0.229100  0.997811  0.452899  1
  O  O71  1  0.860503  0.415833  0.281876  1
  O  O72  1  0.860503  0.915833  0.281876  1
  O  O73  1  0.139253  0.584300  0.471714  1
  O  O74  1  0.139253  0.084300  0.471714  1
  O  O75  1  0.777621  0.312173  0.564647  1
  O  O76  1  0.777624  0.812171  0.564647  1
  O  O77  1  0.777625  0.312172  0.503035  1
  O  O78  1  0.777622  0.812173  0.503034  1
  O  O79  1  0.684131  0.209102  0.557372  1
  O  O80  1  0.684131  0.709102  0.557371  1
  O  O81  1  0.712652  0.153569  0.615112  1
  O  O82  1  0.712655  0.653565  0.615112  1
  O  O83  1  0.287103  0.846565  0.595076  1
  O  O84  1  0.287101  0.346567  0.595076  1
  O  O85  1  0.712655  0.153565  0.524989  1
  O  O86  1  0.712652  0.653568  0.524987  1
  O  O87  1  0.447739  0.311047  0.564217  1
  O  O88  1  0.447740  0.811045  0.564217  1
  O  O89  1  0.447740  0.311045  0.503978  1
  O  O90  1  0.447739  0.811048  0.503977  1
  O  O91  1  0.086274  0.358284  0.556829  1
  O  O92  1  0.086277  0.858282  0.556829  1
  O  O93  1  0.913478  0.641852  0.492091  1
  O  O94  1  0.913480  0.141849  0.492092  1
  O  O95  1  0.229100  0.497811  0.530020  1
  O  O96  1  0.229104  0.997808  0.530020  1
  O  O97  1  0.770652  0.502325  0.528989  1
  O  O98  1  0.770655  0.002322  0.528990  1
  O  O99  1  0.860503  0.415833  0.510175  1
  O  O100  1  0.860503  0.915833  0.510175  1
  Si  Si101  1  0.340564  0.759103  0.229546  1
  Si  Si102  1  0.340566  0.259102  0.229547  1
  Si  Si103  1  0.340565  0.759103  0.177469  1
  Si  Si104  1  0.340563  0.259105  0.177470  1
  Si  Si105  1  0.735651  0.621615  0.191860  1
  Si  Si106  1  0.735653  0.121614  0.191861  1
  Si  Si107  1  0.264104  0.378517  0.247359  1
  Si  Si108  1  0.264099  0.878522  0.247358  1
  Si  Si109  1  0.126346  0.605944  0.212257  1
  Si  Si110  1  0.126344  0.105944  0.212257  1
  Si  Si111  1  0.873411  0.394187  0.260601  1
  Si  Si112  1  0.873410  0.894191  0.260600  1
  Si  Si113  1  0.659188  0.241032  0.347822  1
  Si  Si114  1  0.659192  0.741028  0.347823  1
  Si  Si115  1  0.340564  0.759103  0.457845  1
  Si  Si116  1  0.340566  0.259102  0.457846  1
  Si  Si117  1  0.340565  0.759103  0.405768  1
  Si  Si118  1  0.340563  0.259105  0.405768  1
  Si  Si119  1  0.659192  0.241027  0.295746  1
  Si  Si120  1  0.659189  0.741032  0.295744  1
  Si  Si121  1  0.264100  0.378522  0.333431  1
  Si  Si122  1  0.264105  0.878516  0.333432  1
  Si  Si123  1  0.735653  0.621614  0.277932  1
  Si  Si124  1  0.735653  0.121614  0.277933  1
  Si  Si125  1  0.735651  0.621615  0.420158  1
  Si  Si126  1  0.735653  0.121614  0.420160  1
  Si  Si127  1  0.264104  0.378517  0.475658  1
  Si  Si128  1  0.264099  0.878522  0.475657  1
  Si  Si129  1  0.873410  0.394191  0.313034  1
  Si  Si130  1  0.873411  0.894187  0.313034  1
  Si  Si131  1  0.126345  0.605944  0.264691  1
  Si  Si132  1  0.126347  0.105944  0.264691  1
  Si  Si133  1  0.126346  0.605944  0.440556  1
  Si  Si134  1  0.126344  0.105944  0.440556  1
  Si  Si135  1  0.873411  0.394187  0.488900  1
  Si  Si136  1  0.873410  0.894191  0.488899  1
  Si  Si137  1  0.659188  0.241032  0.576120  1
  Si  Si138  1  0.659192  0.741028  0.576121  1
  Si  Si139  1  0.659192  0.241027  0.524044  1
  Si  Si140  1  0.659189  0.741032  0.524043  1
  Si  Si141  1  0.264100  0.378522  0.561729  1
  Si  Si142  1  0.264105  0.878516  0.561731  1
  Si  Si143  1  0.735653  0.621614  0.506231  1
  Si  Si144  1  0.735653  0.121614  0.506232  1
  Si  Si145  1  0.873410  0.394191  0.541333  1
  Si  Si146  1  0.873411  0.894187  0.541333  1
  Si  Si147  1  0.126345  0.605944  0.492990  1
  Si  Si148  1  0.126347  0.105944  0.492990  1
  H  H149  1  0.712652  0.153569  0.143241  1
  H  H150  1  0.712655  0.653565  0.143241  1
  H  H151  1  0.287103  0.846565  0.123205  1
  H  H152  1  0.287101  0.346567  0.123205  1
  H  H153  1  0.712652  0.153569  0.630385  1
  H  H154  1  0.712655  0.653565  0.630385  1
  H  H155  1  0.287103  0.846565  0.610349  1
  H  H156  1  0.287101  0.346567  0.610349  1
