# generated using pymatgen
data_Si9H2O19
_symmetry_space_group_name_H-M   'P 1'
_cell_length_a   22.81355033
_cell_length_b   22.29290311
_cell_length_c   80.41595165
_cell_angle_alpha   149.99892106
_cell_angle_beta   90.00000000
_cell_angle_gamma   90.00000000
_symmetry_Int_Tables_number   1
_chemical_formula_structural   Si9H2O19
_chemical_formula_sum   'Si162 H36 O342'
_cell_volume   20449.6500546
_cell_formula_units_Z   18
loop_
 _symmetry_equiv_pos_site_id
 _symmetry_equiv_pos_as_xyz
  1  'x, y, z'
loop_
 _atom_site_type_symbol
 _atom_site_label
 _atom_site_symmetry_multiplicity
 _atom_site_fract_x
 _atom_site_fract_y
 _atom_site_fract_z
 _atom_site_occupancy
  O  O1  1  0.927126  0.104480  0.135541  1
  O  O2  1  0.824539  0.219977  0.135567  1
  O  O3  1  0.842115  0.446932  0.135557  1
  O  O4  1  0.508697  0.113577  0.135617  1
  O  O5  1  0.406151  0.228944  0.135593  1
  O  O6  1  0.414624  0.456373  0.135612  1
  O  O7  1  0.081281  0.123167  0.135568  1
  O  O8  1  0.260447  0.437785  0.135568  1
  O  O9  1  0.251971  0.210382  0.135585  1
  O  O10  1  0.739478  0.562432  0.135583  1
  O  O11  1  0.918658  0.877071  0.135550  1
  O  O12  1  0.747919  0.789794  0.135591  1
  O  O13  1  0.593774  0.771133  0.135611  1
  O  O14  1  0.585351  0.543828  0.135603  1
  O  O15  1  0.491185  0.886562  0.135600  1
  O  O16  1  0.072801  0.895769  0.135587  1
  O  O17  1  0.175398  0.780337  0.135571  1
  O  O18  1  0.157880  0.553137  0.135558  1
  O  O19  1  0.888644  0.654796  0.235275  1
  O  O20  1  0.888654  0.313798  0.180693  1
  O  O21  1  0.777940  0.353098  0.190133  1
  O  O22  1  0.777909  0.635219  0.235303  1
  O  O23  1  0.927138  0.791324  0.245479  1
  O  O24  1  0.927126  0.104480  0.295589  1
  O  O25  1  0.842046  0.447059  0.190096  1
  O  O26  1  -0.000000  0.729254  0.252254  1
  O  O27  1  0.000000  0.270986  0.178915  1
  O  O28  1  0.888694  0.654720  0.190126  1
  O  O29  1  0.888666  0.031792  0.250466  1
  O  O30  1  0.777988  0.635084  0.180697  1
  O  O31  1  0.918665  0.877082  0.236534  1
  O  O32  1  0.824539  0.219977  0.295615  1
  O  O33  1  0.777949  0.012173  0.241062  1
  O  O34  1  0.842115  0.446932  0.295605  1
  O  O35  1  0.842062  0.106399  0.241099  1
  O  O36  1  0.747966  0.789813  0.194648  1
  O  O37  1  0.824514  0.560537  0.190085  1
  O  O38  1  -0.000000  0.000000  0.252248  1
  O  O39  1  0.000000  0.729263  0.208912  1
  O  O40  1  0.444599  0.301767  0.180747  1
  O  O41  1  0.444583  0.678751  0.241083  1
  O  O42  1  0.414593  0.456364  0.194644  1
  O  O43  1  0.508767  0.772896  0.241115  1
  O  O44  1  0.508697  0.113577  0.295665  1
  O  O45  1  0.406117  0.542242  0.185740  1
  O  O46  1  0.406151  0.228944  0.295641  1
  O  O47  1  0.593789  0.771248  0.185756  1
  O  O48  1  0.555347  0.698354  0.195926  1
  O  O49  1  0.444619  0.678746  0.195943  1
  O  O50  1  0.414624  0.456373  0.295660  1
  O  O51  1  0.555328  0.980508  0.241112  1
  O  O52  1  0.414638  0.087336  0.236583  1
  O  O53  1  0.491229  0.886507  0.241143  1
  O  O54  1  0.444605  0.019665  0.250514  1
  O  O55  1  0.666664  0.666781  0.178945  1
  O  O56  1  0.666632  0.937698  0.222319  1
  O  O57  1  0.081281  0.123167  0.295616  1
  O  O58  1  0.081313  0.754282  0.236596  1
  O  O59  1  0.260463  0.437759  0.185695  1
  O  O60  1  0.333284  0.333386  0.178944  1
  O  O61  1  0.333268  0.604260  0.222292  1
  O  O62  1  0.111288  0.968416  0.235261  1
  O  O63  1  0.333305  0.062509  0.252291  1
  O  O64  1  0.260480  0.124598  0.245510  1
  O  O65  1  0.072816  0.895774  0.245494  1
  O  O66  1  0.260447  0.437785  0.295616  1
  O  O67  1  0.221997  0.988018  0.235274  1
  O  O68  1  0.222003  0.647084  0.180703  1
  O  O69  1  0.251962  0.579319  0.194610  1
  O  O70  1  0.175413  0.780214  0.190054  1
  O  O71  1  0.111295  0.686444  0.190146  1
  O  O72  1  0.251971  0.210382  0.295632  1
  O  O73  1  0.333294  0.604268  0.178940  1
  O  O74  1  0.927122  0.104426  0.185668  1
  O  O75  1  0.739447  0.875613  0.185723  1
  O  O76  1  0.739483  0.562386  0.245491  1
  O  O77  1  0.739478  0.562432  0.295631  1
  O  O78  1  0.888660  0.313733  0.241017  1
  O  O79  1  0.888620  0.031704  0.195882  1
  O  O80  1  0.777894  0.012145  0.195921  1
  O  O81  1  0.777977  0.353146  0.250486  1
  O  O82  1  0.918658  0.877071  0.295598  1
  O  O83  1  0.918619  0.245958  0.194575  1
  O  O84  1  0.747919  0.789794  0.295639  1
  O  O85  1  0.747977  0.420841  0.236572  1
  O  O86  1  0.824520  0.219885  0.241086  1
  O  O87  1  0.000000  0.000000  0.178924  1
  O  O88  1  0.666672  0.395924  0.252287  1
  O  O89  1  0.000000  0.270939  0.222247  1
  O  O90  1  0.593820  0.457896  0.245502  1
  O  O91  1  0.593774  0.771133  0.295659  1
  O  O92  1  0.406148  0.228983  0.245530  1
  O  O93  1  0.555353  0.321444  0.235325  1
  O  O94  1  0.555283  0.698390  0.250523  1
  O  O95  1  0.555325  0.321336  0.190159  1
  O  O96  1  0.555299  0.980410  0.180735  1
  O  O97  1  0.444610  0.019715  0.190171  1
  O  O98  1  0.444646  0.301790  0.235339  1
  O  O99  1  0.585351  0.543828  0.295651  1
  O  O100  1  0.585289  0.912825  0.194685  1
  O  O101  1  0.585304  0.543729  0.236594  1
  O  O102  1  0.508748  0.113638  0.190123  1
  O  O103  1  0.491185  0.886562  0.295648  1
  O  O104  1  0.491174  0.227246  0.190149  1
  O  O105  1  0.666646  0.395868  0.208919  1
  O  O106  1  0.666593  0.666789  0.252297  1
  O  O107  1  0.666590  0.937645  0.178950  1
  O  O108  1  0.072796  0.208888  0.185681  1
  O  O109  1  0.072801  0.895769  0.295635  1
  O  O110  1  0.221959  0.647059  0.241035  1
  O  O111  1  0.222008  0.364970  0.250462  1
  O  O112  1  0.221964  0.365135  0.195933  1
  O  O113  1  0.222009  0.988071  0.190154  1
  O  O114  1  0.111255  0.345515  0.195929  1
  O  O115  1  0.111281  0.968499  0.180721  1
  O  O116  1  0.111274  0.345405  0.241032  1
  O  O117  1  0.111267  0.686461  0.250484  1
  O  O118  1  0.252004  0.210393  0.236577  1
  O  O119  1  0.081262  0.123123  0.194626  1
  O  O120  1  0.175398  0.780337  0.295619  1
  O  O121  1  0.175414  0.439701  0.241116  1
  O  O122  1  0.157880  0.553137  0.295605  1
  O  O123  1  0.157868  0.893780  0.190067  1
  O  O124  1  0.157828  0.553294  0.241129  1
  O  O125  1  0.333321  0.062505  0.208935  1
  O  O126  1  0.333329  0.333381  0.252288  1
  O  O127  1  0.888644  0.654796  0.395323  1
  O  O128  1  0.888654  0.313798  0.340741  1
  O  O129  1  0.777940  0.353098  0.350181  1
  O  O130  1  0.777909  0.635219  0.395351  1
  O  O131  1  0.927138  0.791324  0.405527  1
  O  O132  1  0.927126  0.104480  0.455637  1
  O  O133  1  0.842046  0.447059  0.350144  1
  O  O134  1  0.000000  0.729254  0.412302  1
  O  O135  1  -0.000000  0.270986  0.338963  1
  O  O136  1  0.888694  0.654720  0.350174  1
  O  O137  1  0.888666  0.031792  0.410514  1
  O  O138  1  0.777988  0.635084  0.340745  1
  O  O139  1  0.918665  0.877082  0.396582  1
  O  O140  1  0.824539  0.219977  0.455663  1
  O  O141  1  0.777949  0.012173  0.401109  1
  O  O142  1  0.842115  0.446932  0.455653  1
  O  O143  1  0.842062  0.106399  0.401146  1
  O  O144  1  0.747966  0.789813  0.354696  1
  O  O145  1  0.824514  0.560537  0.350133  1
  O  O146  1  0.000000  -0.000000  0.412296  1
  O  O147  1  0.000000  0.729263  0.368960  1
  O  O148  1  0.444599  0.301767  0.340795  1
  O  O149  1  0.444583  0.678751  0.401131  1
  O  O150  1  0.414593  0.456364  0.354692  1
  O  O151  1  0.508767  0.772896  0.401163  1
  O  O152  1  0.508697  0.113577  0.455712  1
  O  O153  1  0.406117  0.542242  0.345788  1
  O  O154  1  0.406151  0.228944  0.455689  1
  O  O155  1  0.593789  0.771248  0.345804  1
  O  O156  1  0.555347  0.698354  0.355974  1
  O  O157  1  0.444619  0.678746  0.355991  1
  O  O158  1  0.414624  0.456373  0.455708  1
  O  O159  1  0.555328  0.980508  0.401160  1
  O  O160  1  0.414638  0.087336  0.396631  1
  O  O161  1  0.491229  0.886507  0.401191  1
  O  O162  1  0.444605  0.019665  0.410562  1
  O  O163  1  0.666664  0.666781  0.338993  1
  O  O164  1  0.666632  0.937698  0.382367  1
  O  O165  1  0.081281  0.123167  0.455663  1
  O  O166  1  0.081313  0.754282  0.396644  1
  O  O167  1  0.260463  0.437759  0.345742  1
  O  O168  1  0.333284  0.333386  0.338992  1
  O  O169  1  0.333268  0.604260  0.382339  1
  O  O170  1  0.111288  0.968416  0.395309  1
  O  O171  1  0.333305  0.062509  0.412339  1
  O  O172  1  0.260480  0.124598  0.405558  1
  O  O173  1  0.072816  0.895774  0.405542  1
  O  O174  1  0.260447  0.437785  0.455664  1
  O  O175  1  0.221997  0.988018  0.395322  1
  O  O176  1  0.222003  0.647084  0.340751  1
  O  O177  1  0.251962  0.579319  0.354658  1
  O  O178  1  0.175413  0.780214  0.350102  1
  O  O179  1  0.111295  0.686444  0.350194  1
  O  O180  1  0.251971  0.210382  0.455680  1
  O  O181  1  0.333294  0.604268  0.338988  1
  O  O182  1  0.927122  0.104426  0.345716  1
  O  O183  1  0.739447  0.875613  0.345771  1
  O  O184  1  0.739483  0.562386  0.405539  1
  O  O185  1  0.739478  0.562432  0.455678  1
  O  O186  1  0.888660  0.313733  0.401064  1
  O  O187  1  0.888620  0.031704  0.355930  1
  O  O188  1  0.777894  0.012145  0.355969  1
  O  O189  1  0.777977  0.353146  0.410534  1
  O  O190  1  0.918658  0.877071  0.455645  1
  O  O191  1  0.918619  0.245958  0.354623  1
  O  O192  1  0.747919  0.789794  0.455687  1
  O  O193  1  0.747977  0.420841  0.396620  1
  O  O194  1  0.824520  0.219885  0.401133  1
  O  O195  1  0.000000  0.000000  0.338972  1
  O  O196  1  0.666672  0.395924  0.412334  1
  O  O197  1  0.000000  0.270939  0.382295  1
  O  O198  1  0.593820  0.457896  0.405550  1
  O  O199  1  0.593774  0.771133  0.455706  1
  O  O200  1  0.406148  0.228983  0.405577  1
  O  O201  1  0.555353  0.321444  0.395373  1
  O  O202  1  0.555283  0.698390  0.410570  1
  O  O203  1  0.555325  0.321336  0.350207  1
  O  O204  1  0.555299  0.980410  0.340782  1
  O  O205  1  0.444610  0.019715  0.350219  1
  O  O206  1  0.444646  0.301790  0.395387  1
  O  O207  1  0.585351  0.543828  0.455698  1
  O  O208  1  0.585289  0.912825  0.354733  1
  O  O209  1  0.585304  0.543729  0.396642  1
  O  O210  1  0.508748  0.113638  0.350171  1
  O  O211  1  0.491185  0.886562  0.455695  1
  O  O212  1  0.491174  0.227246  0.350197  1
  O  O213  1  0.666646  0.395868  0.368967  1
  O  O214  1  0.666593  0.666789  0.412345  1
  O  O215  1  0.666590  0.937645  0.338998  1
  O  O216  1  0.072796  0.208888  0.345729  1
  O  O217  1  0.072801  0.895769  0.455683  1
  O  O218  1  0.221959  0.647059  0.401083  1
  O  O219  1  0.222008  0.364970  0.410509  1
  O  O220  1  0.221964  0.365135  0.355981  1
  O  O221  1  0.222009  0.988071  0.350202  1
  O  O222  1  0.111255  0.345515  0.355976  1
  O  O223  1  0.111281  0.968499  0.340769  1
  O  O224  1  0.111274  0.345405  0.401080  1
  O  O225  1  0.111267  0.686461  0.410532  1
  O  O226  1  0.252004  0.210393  0.396625  1
  O  O227  1  0.081262  0.123123  0.354674  1
  O  O228  1  0.175398  0.780337  0.455667  1
  O  O229  1  0.175414  0.439701  0.401164  1
  O  O230  1  0.157880  0.553137  0.455653  1
  O  O231  1  0.157868  0.893780  0.350115  1
  O  O232  1  0.157828  0.553294  0.401177  1
  O  O233  1  0.333321  0.062505  0.368983  1
  O  O234  1  0.333329  0.333381  0.412335  1
  O  O235  1  0.888644  0.654796  0.555370  1
  O  O236  1  0.888654  0.313798  0.500789  1
  O  O237  1  0.777940  0.353098  0.510229  1
  O  O238  1  0.777909  0.635219  0.555398  1
  O  O239  1  0.927138  0.791324  0.565575  1
  O  O240  1  0.927126  0.104480  0.615685  1
  O  O241  1  0.842046  0.447059  0.510192  1
  O  O242  1  0.000000  0.729254  0.572350  1
  O  O243  1  -0.000000  0.270986  0.499010  1
  O  O244  1  0.888694  0.654720  0.510222  1
  O  O245  1  0.888666  0.031792  0.570562  1
  O  O246  1  0.777988  0.635084  0.500793  1
  O  O247  1  0.918665  0.877082  0.556630  1
  O  O248  1  0.824539  0.219977  0.615711  1
  O  O249  1  0.777949  0.012173  0.561157  1
  O  O250  1  0.842115  0.446932  0.615701  1
  O  O251  1  0.842062  0.106399  0.561194  1
  O  O252  1  0.747966  0.789813  0.514744  1
  O  O253  1  0.824514  0.560537  0.510181  1
  O  O254  1  -0.000000  -0.000000  0.572343  1
  O  O255  1  0.000000  0.729263  0.529008  1
  O  O256  1  0.444599  0.301767  0.500843  1
  O  O257  1  0.444583  0.678751  0.561178  1
  O  O258  1  0.414593  0.456364  0.514740  1
  O  O259  1  0.508767  0.772896  0.561210  1
  O  O260  1  0.508697  0.113577  0.615760  1
  O  O261  1  0.406117  0.542242  0.505836  1
  O  O262  1  0.406151  0.228944  0.615737  1
  O  O263  1  0.593789  0.771248  0.505852  1
  O  O264  1  0.555347  0.698354  0.516021  1
  O  O265  1  0.444619  0.678746  0.516038  1
  O  O266  1  0.414624  0.456373  0.615755  1
  O  O267  1  0.555328  0.980508  0.561207  1
  O  O268  1  0.414638  0.087336  0.556679  1
  O  O269  1  0.491229  0.886507  0.561239  1
  O  O270  1  0.444605  0.019665  0.570610  1
  O  O271  1  0.666664  0.666781  0.499041  1
  O  O272  1  0.666632  0.937698  0.542415  1
  O  O273  1  0.081281  0.123167  0.615711  1
  O  O274  1  0.081313  0.754282  0.556692  1
  O  O275  1  0.260463  0.437759  0.505790  1
  O  O276  1  0.333284  0.333386  0.499040  1
  O  O277  1  0.333268  0.604260  0.542387  1
  O  O278  1  0.111288  0.968416  0.555357  1
  O  O279  1  0.333305  0.062509  0.572387  1
  O  O280  1  0.260480  0.124598  0.565606  1
  O  O281  1  0.072816  0.895774  0.565590  1
  O  O282  1  0.260447  0.437785  0.615712  1
  O  O283  1  0.221997  0.988018  0.555369  1
  O  O284  1  0.222003  0.647084  0.500799  1
  O  O285  1  0.251962  0.579319  0.514706  1
  O  O286  1  0.175413  0.780214  0.510149  1
  O  O287  1  0.111295  0.686444  0.510242  1
  O  O288  1  0.251971  0.210382  0.615728  1
  O  O289  1  0.333294  0.604268  0.499035  1
  O  O290  1  0.927122  0.104426  0.505764  1
  O  O291  1  0.739447  0.875613  0.505819  1
  O  O292  1  0.739483  0.562386  0.565587  1
  O  O293  1  0.739478  0.562432  0.615726  1
  O  O294  1  0.888660  0.313733  0.561112  1
  O  O295  1  0.888620  0.031704  0.515977  1
  O  O296  1  0.777894  0.012145  0.516017  1
  O  O297  1  0.777977  0.353146  0.570582  1
  O  O298  1  0.918658  0.877071  0.615693  1
  O  O299  1  0.918619  0.245958  0.514671  1
  O  O300  1  0.747919  0.789794  0.615734  1
  O  O301  1  0.747977  0.420841  0.556668  1
  O  O302  1  0.824520  0.219885  0.561181  1
  O  O303  1  -0.000000  0.000000  0.499020  1
  O  O304  1  0.666672  0.395924  0.572382  1
  O  O305  1  -0.000000  0.270939  0.542343  1
  O  O306  1  0.593820  0.457896  0.565598  1
  O  O307  1  0.593774  0.771133  0.615754  1
  O  O308  1  0.406148  0.228983  0.565625  1
  O  O309  1  0.555353  0.321444  0.555420  1
  O  O310  1  0.555283  0.698390  0.570618  1
  O  O311  1  0.555325  0.321336  0.510255  1
  O  O312  1  0.555299  0.980410  0.500830  1
  O  O313  1  0.444610  0.019715  0.510266  1
  O  O314  1  0.444646  0.301790  0.555434  1
  O  O315  1  0.585351  0.543828  0.615746  1
  O  O316  1  0.585289  0.912825  0.514780  1
  O  O317  1  0.585304  0.543729  0.556690  1
  O  O318  1  0.508748  0.113638  0.510218  1
  O  O319  1  0.491185  0.886562  0.615743  1
  O  O320  1  0.491174  0.227246  0.510245  1
  O  O321  1  0.666646  0.395868  0.529014  1
  O  O322  1  0.666593  0.666789  0.572393  1
  O  O323  1  0.666590  0.937645  0.499046  1
  O  O324  1  0.072796  0.208888  0.505776  1
  O  O325  1  0.072801  0.895769  0.615730  1
  O  O326  1  0.221959  0.647059  0.561131  1
  O  O327  1  0.222008  0.364970  0.570557  1
  O  O328  1  0.221964  0.365135  0.516028  1
  O  O329  1  0.222009  0.988071  0.510250  1
  O  O330  1  0.111255  0.345515  0.516024  1
  O  O331  1  0.111281  0.968499  0.500816  1
  O  O332  1  0.111274  0.345405  0.561128  1
  O  O333  1  0.111267  0.686461  0.570580  1
  O  O334  1  0.252004  0.210393  0.556673  1
  O  O335  1  0.081262  0.123123  0.514722  1
  O  O336  1  0.175398  0.780337  0.615715  1
  O  O337  1  0.175414  0.439701  0.561211  1
  O  O338  1  0.157880  0.553137  0.615701  1
  O  O339  1  0.157868  0.893780  0.510162  1
  O  O340  1  0.157828  0.553294  0.561225  1
  O  O341  1  0.333321  0.062505  0.529031  1
  O  O342  1  0.333329  0.333381  0.572383  1
  Si  Si343  1  0.833294  0.333483  0.174034  1
  Si  Si344  1  0.833262  0.573875  0.212521  1
  Si  Si345  1  0.932733  0.760658  0.257224  1
  Si  Si346  1  0.932709  0.239178  0.173760  1
  Si  Si347  1  0.932732  0.000000  0.257375  1
  Si  Si348  1  0.932749  0.760662  0.219011  1
  Si  Si349  1  0.733896  0.666454  0.173795  1
  Si  Si350  1  0.733868  0.906269  0.212190  1
  Si  Si351  1  0.833300  0.093137  0.257148  1
  Si  Si352  1  0.833337  0.573750  0.174025  1
  Si  Si353  1  0.499948  0.759708  0.257181  1
  Si  Si354  1  0.499946  0.240437  0.174082  1
  Si  Si355  1  0.400532  0.333042  0.173810  1
  Si  Si356  1  0.400517  0.572844  0.212194  1
  Si  Si357  1  0.499997  0.759662  0.218704  1
  Si  Si358  1  0.599381  0.905964  0.212225  1
  Si  Si359  1  0.599412  0.667121  0.173980  1
  Si  Si360  1  0.400533  0.572869  0.173986  1
  Si  Si361  1  0.400554  0.094231  0.257426  1
  Si  Si362  1  0.499966  -0.000000  0.257197  1
  Si  Si363  1  0.266035  0.572466  0.212153  1
  Si  Si364  1  0.266048  0.333733  0.173960  1
  Si  Si365  1  0.067218  0.761080  0.257415  1
  Si  Si366  1  0.067194  0.239575  0.173942  1
  Si  Si367  1  0.266047  0.572490  0.173784  1
  Si  Si368  1  0.166651  0.666716  0.174026  1
  Si  Si369  1  0.067216  -0.000000  0.257238  1
  Si  Si370  1  0.166648  0.907049  0.212485  1
  Si  Si371  1  0.266068  0.093944  0.257259  1
  Si  Si372  1  0.067234  0.761074  0.219039  1
  Si  Si373  1  0.733855  0.666495  0.257261  1
  Si  Si374  1  0.733903  0.427722  0.257412  1
  Si  Si375  1  0.833278  0.093079  0.218669  1
  Si  Si376  1  0.932707  0.239122  0.212121  1
  Si  Si377  1  0.932714  -0.000000  0.173927  1
  Si  Si378  1  0.833326  0.333435  0.257140  1
  Si  Si379  1  0.733839  0.906233  0.173966  1
  Si  Si380  1  0.733891  0.427672  0.219025  1
  Si  Si381  1  0.499985  0.240482  0.212559  1
  Si  Si382  1  0.499957  -0.000000  0.174066  1
  Si  Si383  1  0.400557  0.333059  0.257284  1
  Si  Si384  1  0.599422  0.427335  0.257274  1
  Si  Si385  1  0.599367  0.667081  0.257444  1
  Si  Si386  1  0.599405  0.427239  0.219036  1
  Si  Si387  1  0.599356  0.905865  0.173826  1
  Si  Si388  1  0.400560  0.094256  0.219057  1
  Si  Si389  1  0.166610  0.426479  0.218709  1
  Si  Si390  1  0.166629  0.907128  0.174039  1
  Si  Si391  1  0.166604  0.666781  0.257153  1
  Si  Si392  1  0.166657  0.426334  0.257139  1
  Si  Si393  1  0.067192  0.239537  0.212146  1
  Si  Si394  1  0.266070  0.333692  0.257400  1
  Si  Si395  1  0.266077  0.093956  0.219047  1
  Si  Si396  1  0.067199  0.000000  0.173799  1
  Si  Si397  1  0.833294  0.333483  0.334082  1
  Si  Si398  1  0.833262  0.573875  0.372568  1
  Si  Si399  1  0.932733  0.760658  0.417272  1
  Si  Si400  1  0.932709  0.239178  0.333808  1
  Si  Si401  1  0.932732  0.000000  0.417423  1
  Si  Si402  1  0.932749  0.760662  0.379059  1
  Si  Si403  1  0.733896  0.666454  0.333843  1
  Si  Si404  1  0.733868  0.906269  0.372238  1
  Si  Si405  1  0.833300  0.093137  0.417196  1
  Si  Si406  1  0.833337  0.573750  0.334073  1
  Si  Si407  1  0.499948  0.759708  0.417229  1
  Si  Si408  1  0.499946  0.240437  0.334130  1
  Si  Si409  1  0.400532  0.333042  0.333858  1
  Si  Si410  1  0.400517  0.572844  0.372242  1
  Si  Si411  1  0.499997  0.759662  0.378752  1
  Si  Si412  1  0.599381  0.905964  0.372272  1
  Si  Si413  1  0.599412  0.667121  0.334028  1
  Si  Si414  1  0.400533  0.572869  0.334034  1
  Si  Si415  1  0.400554  0.094231  0.417474  1
  Si  Si416  1  0.499966  0.000000  0.417244  1
  Si  Si417  1  0.266035  0.572466  0.372201  1
  Si  Si418  1  0.266048  0.333733  0.334008  1
  Si  Si419  1  0.067218  0.761080  0.417463  1
  Si  Si420  1  0.067194  0.239575  0.333989  1
  Si  Si421  1  0.266047  0.572490  0.333832  1
  Si  Si422  1  0.166651  0.666716  0.334073  1
  Si  Si423  1  0.067216  -0.000000  0.417286  1
  Si  Si424  1  0.166648  0.907049  0.372533  1
  Si  Si425  1  0.266068  0.093944  0.417306  1
  Si  Si426  1  0.067234  0.761074  0.379087  1
  Si  Si427  1  0.733855  0.666495  0.417309  1
  Si  Si428  1  0.733903  0.427722  0.417460  1
  Si  Si429  1  0.833278  0.093079  0.378717  1
  Si  Si430  1  0.932707  0.239122  0.372169  1
  Si  Si431  1  0.932714  -0.000000  0.333975  1
  Si  Si432  1  0.833326  0.333435  0.417188  1
  Si  Si433  1  0.733839  0.906233  0.334014  1
  Si  Si434  1  0.733891  0.427672  0.379073  1
  Si  Si435  1  0.499985  0.240482  0.372607  1
  Si  Si436  1  0.499957  0.000000  0.334114  1
  Si  Si437  1  0.400557  0.333059  0.417332  1
  Si  Si438  1  0.599422  0.427335  0.417322  1
  Si  Si439  1  0.599367  0.667081  0.417491  1
  Si  Si440  1  0.599405  0.427239  0.379084  1
  Si  Si441  1  0.599356  0.905865  0.333874  1
  Si  Si442  1  0.400560  0.094256  0.379105  1
  Si  Si443  1  0.166610  0.426479  0.378757  1
  Si  Si444  1  0.166629  0.907128  0.334087  1
  Si  Si445  1  0.166604  0.666781  0.417201  1
  Si  Si446  1  0.166657  0.426334  0.417187  1
  Si  Si447  1  0.067192  0.239537  0.372194  1
  Si  Si448  1  0.266070  0.333692  0.417448  1
  Si  Si449  1  0.266077  0.093956  0.379094  1
  Si  Si450  1  0.067199  0.000000  0.333847  1
  Si  Si451  1  0.833294  0.333483  0.494129  1
  Si  Si452  1  0.833262  0.573875  0.532616  1
  Si  Si453  1  0.932733  0.760658  0.577320  1
  Si  Si454  1  0.932709  0.239178  0.493856  1
  Si  Si455  1  0.932732  -0.000000  0.577471  1
  Si  Si456  1  0.932749  0.760662  0.539107  1
  Si  Si457  1  0.733896  0.666454  0.493891  1
  Si  Si458  1  0.733868  0.906269  0.532285  1
  Si  Si459  1  0.833300  0.093137  0.577244  1
  Si  Si460  1  0.833337  0.573750  0.494121  1
  Si  Si461  1  0.499948  0.759708  0.577277  1
  Si  Si462  1  0.499946  0.240437  0.494177  1
  Si  Si463  1  0.400532  0.333042  0.493906  1
  Si  Si464  1  0.400517  0.572844  0.532290  1
  Si  Si465  1  0.499997  0.759662  0.538800  1
  Si  Si466  1  0.599381  0.905964  0.532320  1
  Si  Si467  1  0.599412  0.667121  0.494076  1
  Si  Si468  1  0.400533  0.572869  0.494081  1
  Si  Si469  1  0.400554  0.094231  0.577521  1
  Si  Si470  1  0.499966  -0.000000  0.577292  1
  Si  Si471  1  0.266035  0.572466  0.532249  1
  Si  Si472  1  0.266048  0.333733  0.494056  1
  Si  Si473  1  0.067218  0.761080  0.577511  1
  Si  Si474  1  0.067194  0.239575  0.494037  1
  Si  Si475  1  0.266047  0.572490  0.493880  1
  Si  Si476  1  0.166651  0.666716  0.494121  1
  Si  Si477  1  0.067216  0.000000  0.577333  1
  Si  Si478  1  0.166648  0.907049  0.532581  1
  Si  Si479  1  0.266068  0.093944  0.577354  1
  Si  Si480  1  0.067234  0.761074  0.539134  1
  Si  Si481  1  0.733855  0.666495  0.577357  1
  Si  Si482  1  0.733903  0.427722  0.577508  1
  Si  Si483  1  0.833278  0.093079  0.538765  1
  Si  Si484  1  0.932707  0.239122  0.532217  1
  Si  Si485  1  0.932714  -0.000000  0.494023  1
  Si  Si486  1  0.833326  0.333435  0.577236  1
  Si  Si487  1  0.733839  0.906233  0.494061  1
  Si  Si488  1  0.733891  0.427672  0.539121  1
  Si  Si489  1  0.499985  0.240482  0.532654  1
  Si  Si490  1  0.499957  -0.000000  0.494162  1
  Si  Si491  1  0.400557  0.333059  0.577379  1
  Si  Si492  1  0.599422  0.427335  0.577370  1
  Si  Si493  1  0.599367  0.667081  0.577539  1
  Si  Si494  1  0.599405  0.427239  0.539132  1
  Si  Si495  1  0.599356  0.905865  0.493922  1
  Si  Si496  1  0.400560  0.094256  0.539153  1
  Si  Si497  1  0.166610  0.426479  0.538804  1
  Si  Si498  1  0.166629  0.907128  0.494135  1
  Si  Si499  1  0.166604  0.666781  0.577249  1
  Si  Si500  1  0.166657  0.426334  0.577235  1
  Si  Si501  1  0.067192  0.239537  0.532242  1
  Si  Si502  1  0.266070  0.333692  0.577496  1
  Si  Si503  1  0.266077  0.093956  0.539142  1
  Si  Si504  1  0.067199  -0.000000  0.493895  1
  H  H505  1  0.927126  0.104480  0.124349  1
  H  H506  1  0.824539  0.219977  0.124375  1
  H  H507  1  0.842115  0.446932  0.124366  1
  H  H508  1  0.508697  0.113577  0.124425  1
  H  H509  1  0.406151  0.228944  0.124402  1
  H  H510  1  0.414624  0.456373  0.124420  1
  H  H511  1  0.081281  0.123167  0.124376  1
  H  H512  1  0.260447  0.437785  0.124376  1
  H  H513  1  0.251971  0.210382  0.124393  1
  H  H514  1  0.739478  0.562432  0.124391  1
  H  H515  1  0.918658  0.877071  0.124358  1
  H  H516  1  0.747919  0.789794  0.124399  1
  H  H517  1  0.593774  0.771133  0.124419  1
  H  H518  1  0.585351  0.543828  0.124411  1
  H  H519  1  0.491185  0.886562  0.124408  1
  H  H520  1  0.072801  0.895769  0.124395  1
  H  H521  1  0.175398  0.780337  0.124379  1
  H  H522  1  0.157880  0.553137  0.124366  1
  H  H523  1  0.927126  0.104480  0.626876  1
  H  H524  1  0.824539  0.219977  0.626902  1
  H  H525  1  0.842115  0.446932  0.626892  1
  H  H526  1  0.508697  0.113577  0.626952  1
  H  H527  1  0.406151  0.228944  0.626928  1
  H  H528  1  0.414624  0.456373  0.626947  1
  H  H529  1  0.081281  0.123167  0.626903  1
  H  H530  1  0.260447  0.437785  0.626903  1
  H  H531  1  0.251971  0.210382  0.626920  1
  H  H532  1  0.739478  0.562432  0.626918  1
  H  H533  1  0.918658  0.877071  0.626885  1
  H  H534  1  0.747919  0.789794  0.626926  1
  H  H535  1  0.593774  0.771133  0.626946  1
  H  H536  1  0.585351  0.543828  0.626938  1
  H  H537  1  0.491185  0.886562  0.626935  1
  H  H538  1  0.072801  0.895769  0.626922  1
  H  H539  1  0.175398  0.780337  0.626906  1
  H  H540  1  0.157880  0.553137  0.626893  1
