# generated using pymatgen
data_Si10H2O21
_symmetry_space_group_name_H-M   'P 1'
_cell_length_a   31.01620412
_cell_length_b   7.57128859
_cell_length_c   45.80516058
_cell_angle_alpha   90.00000000
_cell_angle_beta   120.00000000
_cell_angle_gamma   90.00000000
_symmetry_Int_Tables_number   1
_chemical_formula_structural   Si10H2O21
_chemical_formula_sum   'Si60 H12 O126'
_cell_volume   9315.4424696
_cell_formula_units_Z   6
loop_
 _symmetry_equiv_pos_site_id
 _symmetry_equiv_pos_as_xyz
  1  'x, y, z'
loop_
 _atom_site_type_symbol
 _atom_site_label
 _atom_site_symmetry_multiplicity
 _atom_site_fract_x
 _atom_site_fract_y
 _atom_site_fract_z
 _atom_site_occupancy
  O  O1  1  0.517658  0.976418  0.308735  1
  O  O2  1  0.385910  0.976385  0.308666  1
  O  O3  1  0.517653  0.523669  0.308744  1
  O  O4  1  0.385897  0.523694  0.308659  1
  O  O5  1  0.603569  0.081093  0.325066  1
  O  O6  1  0.324139  0.081136  0.325053  1
  O  O7  1  0.603566  0.418974  0.325076  1
  O  O8  1  0.324141  0.418945  0.325056  1
  O  O9  1  0.586824  0.750035  0.335428  1
  O  O10  1  0.356185  0.750041  0.335381  1
  O  O11  1  0.485093  0.082183  0.248619  1
  O  O12  1  0.329784  0.082190  0.248581  1
  O  O13  1  0.485086  0.417917  0.248625  1
  O  O14  1  0.329765  0.417917  0.248571  1
  O  O15  1  0.502490  0.250112  0.205497  1
  O  O16  1  0.248666  0.249965  0.205528  1
  O  O17  1  0.565574  0.250083  0.269860  1
  O  O18  1  0.280683  0.250045  0.269867  1
  O  O19  1  0.473498  0.750040  0.262464  1
  O  O20  1  0.361798  0.750055  0.262397  1
  O  O21  1  0.422790  0.997132  0.269390  1
  O  O22  1  0.422777  0.502964  0.269387  1
  O  O23  1  0.831797  0.500122  0.260268  1
  O  O24  1  0.000000  0.000000  0.260588  1
  O  O25  1  0.831786  0.000000  0.260258  1
  O  O26  1  0.000000  0.500076  0.260591  1
  O  O27  1  0.833837  0.250143  0.223317  1
  O  O28  1  0.777261  0.750083  0.335695  1
  O  O29  1  0.056501  0.750056  0.261838  1
  O  O30  1  0.777135  0.750124  0.261530  1
  O  O31  1  0.166170  0.750008  0.335778  1
  O  O32  1  0.943461  0.250106  0.223593  1
  O  O33  1  0.902633  0.479348  0.242476  1
  O  O34  1  0.805264  0.979260  0.308099  1
  O  O35  1  0.097372  0.979245  0.308366  1
  O  O36  1  0.805283  0.520970  0.308112  1
  O  O37  1  0.097369  0.520817  0.308367  1
  O  O38  1  0.902633  0.020908  0.242478  1
  O  O39  1  0.814644  0.580754  0.201313  1
  O  O40  1  0.744740  0.080697  0.326639  1
  O  O41  1  0.069782  0.080648  0.248809  1
  O  O42  1  0.744643  0.080749  0.248523  1
  O  O43  1  0.185355  0.080603  0.326754  1
  O  O44  1  0.930184  0.580697  0.201570  1
  O  O45  1  0.744764  0.419456  0.326655  1
  O  O46  1  0.069769  0.419464  0.248802  1
  O  O47  1  0.814650  0.919554  0.201302  1
  O  O48  1  0.930173  0.919516  0.201574  1
  O  O49  1  0.744657  0.419517  0.248532  1
  O  O50  1  0.185359  0.419395  0.326769  1
  O  O51  1  0.755306  0.750120  0.145693  1
  O  O52  1  0.662745  0.250101  0.311384  1
  O  O53  1  0.092389  0.249985  0.208533  1
  O  O54  1  0.662674  0.250178  0.208183  1
  O  O55  1  0.244662  0.250044  0.311294  1
  O  O56  1  0.907563  0.750238  0.145988  1
  O  O57  1  0.849739  0.750067  0.170645  1
  O  O58  1  0.699130  0.250150  0.272144  1
  O  O59  1  0.150220  0.250097  0.272337  1
  O  O60  1  0.410882  0.500044  0.373851  1
  O  O61  1  0.589136  0.000000  0.373949  1
  O  O62  1  0.410877  0.000000  0.373852  1
  O  O63  1  0.589144  0.500085  0.373960  1
  O  O64  1  0.482340  0.476418  0.439051  1
  O  O65  1  0.614119  0.476381  0.439144  1
  O  O66  1  0.482334  0.023661  0.439050  1
  O  O67  1  0.614107  0.023707  0.439136  1
  O  O68  1  0.396403  0.581095  0.422718  1
  O  O69  1  0.675895  0.581156  0.422807  1
  O  O70  1  0.396396  0.918959  0.422718  1
  O  O71  1  0.675878  0.918932  0.422798  1
  O  O72  1  0.413165  0.250036  0.412363  1
  O  O73  1  0.643837  0.250047  0.412422  1
  O  O74  1  0.514928  0.582175  0.499165  1
  O  O75  1  0.670246  0.582179  0.499262  1
  O  O76  1  0.514922  0.917918  0.499164  1
  O  O77  1  0.670224  0.917883  0.499253  1
  O  O78  1  0.497471  0.750041  0.542270  1
  O  O79  1  0.751295  0.750189  0.542425  1
  O  O80  1  0.434446  0.750030  0.477919  1
  O  O81  1  0.719377  0.750083  0.478042  1
  O  O82  1  0.526509  0.250047  0.485319  1
  O  O83  1  0.638216  0.250036  0.485399  1
  O  O84  1  0.577228  0.497119  0.478396  1
  O  O85  1  0.577219  0.002970  0.478392  1
  O  O86  1  0.168208  0.500023  0.374113  1
  O  O87  1  0.000000  0.500086  0.487666  1
  O  O88  1  0.831916  0.000000  0.373950  1
  O  O89  1  0.168007  0.000000  0.487684  1
  O  O90  1  0.000000  0.000000  0.487626  1
  O  O91  1  0.168219  0.000000  0.374109  1
  O  O92  1  0.167984  0.500061  0.487687  1
  O  O93  1  0.831939  0.500096  0.373970  1
  O  O94  1  0.222860  0.250018  0.412395  1
  O  O95  1  0.943439  0.250052  0.486363  1
  O  O96  1  0.165958  0.750019  0.524634  1
  O  O97  1  0.056528  0.750113  0.524624  1
  O  O98  1  0.222674  0.250060  0.486455  1
  O  O99  1  0.833962  0.250135  0.412288  1
  O  O100  1  0.194683  0.479175  0.439899  1
  O  O101  1  0.902736  0.479292  0.439814  1
  O  O102  1  0.097202  0.979238  0.505586  1
  O  O103  1  0.097189  0.520862  0.505604  1
  O  O104  1  0.194700  0.020884  0.439899  1
  O  O105  1  0.902724  0.020932  0.439786  1
  O  O106  1  0.255337  0.580628  0.421392  1
  O  O107  1  0.930136  0.580664  0.499390  1
  O  O108  1  0.185136  0.080616  0.546636  1
  O  O109  1  0.069816  0.080707  0.546619  1
  O  O110  1  0.255175  0.580684  0.499424  1
  O  O111  1  0.814804  0.580735  0.421322  1
  O  O112  1  0.185124  0.419425  0.546642  1
  O  O113  1  0.255349  0.919389  0.421392  1
  O  O114  1  0.930167  0.919457  0.499368  1
  O  O115  1  0.255197  0.919447  0.499423  1
  O  O116  1  0.814793  0.919534  0.421308  1
  O  O117  1  0.069846  0.419505  0.546657  1
  O  O118  1  0.337315  0.749971  0.436557  1
  O  O119  1  0.907537  0.750255  0.539649  1
  O  O120  1  0.244610  0.250035  0.602178  1
  O  O121  1  0.092438  0.249968  0.602217  1
  O  O122  1  0.337196  0.750050  0.539695  1
  O  O123  1  0.755357  0.750131  0.436614  1
  O  O124  1  0.300835  0.749994  0.475830  1
  O  O125  1  0.849741  0.750197  0.475774  1
  O  O126  1  0.150238  0.249969  0.577469  1
  Si  Si127  1  0.574509  0.952649  0.336346  1
  Si  Si128  1  0.369844  0.952661  0.336277  1
  Si  Si129  1  0.574506  0.547430  0.336352  1
  Si  Si130  1  0.369845  0.547421  0.336277  1
  Si  Si131  1  0.473614  0.953132  0.270992  1
  Si  Si132  1  0.374295  0.953117  0.270945  1
  Si  Si133  1  0.473609  0.546959  0.271000  1
  Si  Si134  1  0.374280  0.546982  0.270938  1
  Si  Si135  1  0.845809  0.453133  0.232233  1
  Si  Si136  1  0.790399  0.953079  0.336457  1
  Si  Si137  1  0.055382  0.953052  0.269969  1
  Si  Si138  1  0.790286  0.953117  0.269652  1
  Si  Si139  1  0.154202  0.953004  0.336586  1
  Si  Si140  1  0.944593  0.453104  0.232484  1
  Si  Si141  1  0.790418  0.547100  0.336472  1
  Si  Si142  1  0.055383  0.547061  0.269971  1
  Si  Si143  1  0.845807  0.047147  0.232228  1
  Si  Si144  1  0.944596  0.047111  0.232487  1
  Si  Si145  1  0.790299  0.547144  0.269664  1
  Si  Si146  1  0.154198  0.547020  0.336591  1
  Si  Si147  1  0.508785  0.250072  0.241647  1
  Si  Si148  1  0.295795  0.250028  0.241651  1
  Si  Si149  1  0.609929  0.250058  0.307480  1
  Si  Si150  1  0.291778  0.250044  0.307457  1
  Si  Si151  1  0.806427  0.750128  0.179022  1
  Si  Si152  1  0.711825  0.250111  0.309930  1
  Si  Si153  1  0.094415  0.250062  0.243187  1
  Si  Si154  1  0.711712  0.250150  0.242905  1
  Si  Si155  1  0.193559  0.250029  0.310032  1
  Si  Si156  1  0.905539  0.750111  0.179271  1
  Si  Si157  1  0.425485  0.452653  0.411452  1
  Si  Si158  1  0.630182  0.452668  0.411531  1
  Si  Si159  1  0.425478  0.047412  0.411452  1
  Si  Si160  1  0.630170  0.047434  0.411524  1
  Si  Si161  1  0.526400  0.453128  0.476787  1
  Si  Si162  1  0.625741  0.453122  0.476865  1
  Si  Si163  1  0.526394  0.046964  0.476786  1
  Si  Si164  1  0.625729  0.046962  0.476857  1
  Si  Si165  1  0.209693  0.453000  0.411610  1
  Si  Si166  1  0.944580  0.453068  0.478253  1
  Si  Si167  1  0.153979  0.953003  0.515717  1
  Si  Si168  1  0.055372  0.953088  0.515707  1
  Si  Si169  1  0.209522  0.453044  0.478319  1
  Si  Si170  1  0.845957  0.453118  0.411499  1
  Si  Si171  1  0.153964  0.547035  0.515723  1
  Si  Si172  1  0.209705  0.047025  0.411607  1
  Si  Si173  1  0.944582  0.047081  0.478222  1
  Si  Si174  1  0.209539  0.047064  0.478317  1
  Si  Si175  1  0.845942  0.047153  0.411481  1
  Si  Si176  1  0.055372  0.547097  0.515736  1
  Si  Si177  1  0.491225  0.750040  0.506133  1
  Si  Si178  1  0.704243  0.750064  0.506250  1
  Si  Si179  1  0.390052  0.750019  0.440321  1
  Si  Si180  1  0.708233  0.750069  0.440435  1
  Si  Si181  1  0.288278  0.749994  0.438076  1
  Si  Si182  1  0.905508  0.750142  0.504993  1
  Si  Si183  1  0.193395  0.250004  0.568931  1
  Si  Si184  1  0.094474  0.250033  0.568938  1
  Si  Si185  1  0.288115  0.750033  0.505008  1
  Si  Si186  1  0.806556  0.750154  0.438023  1
  H  H187  1  0.502490  0.250112  0.185849  1
  H  H188  1  0.248666  0.249965  0.185880  1
  H  H189  1  0.755306  0.750120  0.126045  1
  H  H190  1  0.092389  0.249985  0.188885  1
  H  H191  1  0.662674  0.250178  0.188535  1
  H  H192  1  0.907563  0.750238  0.126340  1
  H  H193  1  0.497471  0.750041  0.561919  1
  H  H194  1  0.751295  0.750189  0.562073  1
  H  H195  1  0.907537  0.750255  0.559298  1
  H  H196  1  0.244610  0.250035  0.621826  1
  H  H197  1  0.092438  0.249968  0.621866  1
  H  H198  1  0.337196  0.750050  0.559344  1
