# generated using pymatgen
data_Si10H2O21
_symmetry_space_group_name_H-M   'P 1'
_cell_length_a   9.18649954
_cell_length_b   9.99498220
_cell_length_c   44.93637387
_cell_angle_alpha   90.00000000
_cell_angle_beta   90.00000000
_cell_angle_gamma   90.00000000
_symmetry_Int_Tables_number   1
_chemical_formula_structural   Si10H2O21
_chemical_formula_sum   'Si40 H8 O84'
_cell_volume   4126.0083913
_cell_formula_units_Z   4
loop_
 _symmetry_equiv_pos_site_id
 _symmetry_equiv_pos_as_xyz
  1  'x, y, z'
loop_
 _atom_site_type_symbol
 _atom_site_label
 _atom_site_symmetry_multiplicity
 _atom_site_fract_x
 _atom_site_fract_y
 _atom_site_fract_z
 _atom_site_occupancy
  O  O1  1  0.514440  0.154938  0.131774  1
  O  O2  1  0.485253  0.654938  0.236917  1
  O  O3  1  0.742850  0.404745  0.283492  1
  O  O4  1  0.014442  0.094918  0.134723  1
  O  O5  1  0.985249  0.594916  0.233967  1
  O  O6  1  0.242851  0.845104  0.187391  1
  O  O7  1  0.756841  0.345104  0.181300  1
  O  O8  1  0.440761  0.000000  0.172282  1
  O  O9  1  0.558928  0.500116  0.196409  1
  O  O10  1  0.058931  0.749739  0.274474  1
  O  O11  1  0.259124  0.176250  0.157274  1
  O  O12  1  0.740564  0.676252  0.211417  1
  O  O13  1  0.867518  0.426161  0.131297  1
  O  O14  1  0.132176  0.926162  0.237395  1
  O  O15  1  0.240565  0.573604  0.259467  1
  O  O16  1  0.367520  0.823690  0.135202  1
  O  O17  1  0.632173  0.323694  0.233489  1
  O  O18  1  0.496424  0.250174  0.184983  1
  O  O19  1  0.503264  0.750174  0.183709  1
  O  O20  1  0.996425  0.000000  0.285901  1
  O  O21  1  0.017009  0.294895  0.169890  1
  O  O22  1  0.982684  0.794891  0.198801  1
  O  O23  1  0.929091  0.544921  0.180792  1
  O  O24  1  0.070599  0.044924  0.187900  1
  O  O25  1  0.482685  0.454962  0.272082  1
  O  O26  1  0.570602  0.204932  0.282984  1
  O  O27  1  0.514440  0.154938  0.336160  1
  O  O28  1  0.485253  0.654938  0.441303  1
  O  O29  1  0.742850  0.404745  0.487878  1
  O  O30  1  0.256842  0.904749  0.289584  1
  O  O31  1  0.014442  0.094918  0.339109  1
  O  O32  1  0.985249  0.594916  0.438353  1
  O  O33  1  0.242851  0.845104  0.391777  1
  O  O34  1  0.756841  0.345104  0.385686  1
  O  O35  1  0.440761  0.000000  0.376668  1
  O  O36  1  0.558928  0.500116  0.400795  1
  O  O37  1  0.940763  0.249738  0.298602  1
  O  O38  1  0.058931  0.749739  0.478860  1
  O  O39  1  0.259124  0.176250  0.361660  1
  O  O40  1  0.740564  0.676252  0.415803  1
  O  O41  1  0.867518  0.426161  0.335683  1
  O  O42  1  0.132176  0.926162  0.441780  1
  O  O43  1  0.759125  0.073603  0.313610  1
  O  O44  1  0.240565  0.573604  0.463853  1
  O  O45  1  0.367520  0.823690  0.339588  1
  O  O46  1  0.632173  0.323694  0.437875  1
  O  O47  1  0.496424  0.250174  0.389369  1
  O  O48  1  0.503264  0.750174  0.388095  1
  O  O49  1  0.003267  0.499681  0.287175  1
  O  O50  1  0.996425  0.000000  0.490287  1
  O  O51  1  0.017009  0.294895  0.374276  1
  O  O52  1  0.982684  0.794891  0.403187  1
  O  O53  1  0.929091  0.544921  0.385178  1
  O  O54  1  0.070599  0.044924  0.392286  1
  O  O55  1  0.517005  0.954962  0.300994  1
  O  O56  1  0.482685  0.454962  0.476468  1
  O  O57  1  0.429093  0.704932  0.290092  1
  O  O58  1  0.570602  0.204932  0.487370  1
  O  O59  1  0.514440  0.154938  0.540546  1
  O  O60  1  0.485253  0.654938  0.645689  1
  O  O61  1  0.256842  0.904749  0.493970  1
  O  O62  1  0.014442  0.094918  0.543495  1
  O  O63  1  0.985249  0.594916  0.642739  1
  O  O64  1  0.242851  0.845104  0.596163  1
  O  O65  1  0.756841  0.345104  0.590072  1
  O  O66  1  0.440761  0.000000  0.581054  1
  O  O67  1  0.558928  0.500116  0.605180  1
  O  O68  1  0.940763  0.249738  0.502988  1
  O  O69  1  0.259124  0.176250  0.566046  1
  O  O70  1  0.740564  0.676252  0.620189  1
  O  O71  1  0.867518  0.426161  0.540069  1
  O  O72  1  0.132176  0.926162  0.646166  1
  O  O73  1  0.759125  0.073603  0.517996  1
  O  O74  1  0.367520  0.823690  0.543974  1
  O  O75  1  0.632173  0.323694  0.642261  1
  O  O76  1  0.496424  0.250174  0.593755  1
  O  O77  1  0.503264  0.750174  0.592481  1
  O  O78  1  0.003267  0.499681  0.491561  1
  O  O79  1  0.017009  0.294895  0.578662  1
  O  O80  1  0.982684  0.794891  0.607573  1
  O  O81  1  0.929091  0.544921  0.589564  1
  O  O82  1  0.070599  0.044924  0.596672  1
  O  O83  1  0.517005  0.954962  0.505380  1
  O  O84  1  0.429093  0.704932  0.494478  1
  Si  Si85  1  0.427427  0.150863  0.161891  1
  Si  Si86  1  0.572263  0.650863  0.206799  1
  Si  Si87  1  0.109546  0.900557  0.271790  1
  Si  Si88  1  0.072263  0.598994  0.264085  1
  Si  Si89  1  0.390142  0.849297  0.169597  1
  Si  Si90  1  0.609548  0.349298  0.199094  1
  Si  Si91  1  0.091049  0.155433  0.163065  1
  Si  Si92  1  0.908642  0.655435  0.205626  1
  Si  Si93  1  0.895622  0.405455  0.165665  1
  Si  Si94  1  0.104069  0.905457  0.203026  1
  Si  Si95  1  0.408641  0.594421  0.265258  1
  Si  Si96  1  0.604068  0.344398  0.267859  1
  Si  Si97  1  0.427427  0.150863  0.366277  1
  Si  Si98  1  0.572263  0.650863  0.411185  1
  Si  Si99  1  0.890140  0.400558  0.301287  1
  Si  Si100  1  0.109546  0.900557  0.476176  1
  Si  Si101  1  0.927427  0.098991  0.308993  1
  Si  Si102  1  0.072263  0.598994  0.468471  1
  Si  Si103  1  0.390142  0.849297  0.373983  1
  Si  Si104  1  0.609548  0.349298  0.403480  1
  Si  Si105  1  0.091049  0.155433  0.367451  1
  Si  Si106  1  0.908642  0.655435  0.410012  1
  Si  Si107  1  0.895622  0.405455  0.370051  1
  Si  Si108  1  0.104069  0.905457  0.407412  1
  Si  Si109  1  0.591048  0.094420  0.307819  1
  Si  Si110  1  0.408641  0.594421  0.469644  1
  Si  Si111  1  0.395621  0.844397  0.305219  1
  Si  Si112  1  0.604068  0.344398  0.472245  1
  Si  Si113  1  0.427427  0.150863  0.570663  1
  Si  Si114  1  0.572263  0.650863  0.615571  1
  Si  Si115  1  0.890140  0.400558  0.505673  1
  Si  Si116  1  0.927427  0.098991  0.513379  1
  Si  Si117  1  0.390142  0.849297  0.578369  1
  Si  Si118  1  0.609548  0.349298  0.607866  1
  Si  Si119  1  0.091049  0.155433  0.571837  1
  Si  Si120  1  0.908642  0.655435  0.614398  1
  Si  Si121  1  0.895622  0.405455  0.574437  1
  Si  Si122  1  0.104069  0.905457  0.611797  1
  Si  Si123  1  0.591048  0.094420  0.512205  1
  Si  Si124  1  0.395621  0.844397  0.509605  1
  H  H125  1  0.514440  0.154938  0.111746  1
  H  H126  1  0.014442  0.094918  0.114695  1
  H  H127  1  0.867518  0.426161  0.111268  1
  H  H128  1  0.367520  0.823690  0.115173  1
  H  H129  1  0.485253  0.654938  0.665717  1
  H  H130  1  0.985249  0.594916  0.662768  1
  H  H131  1  0.132176  0.926162  0.666195  1
  H  H132  1  0.632173  0.323694  0.662289  1
