# generated using pymatgen
data_Si36H2O73
_symmetry_space_group_name_H-M   'P 1'
_cell_length_a   18.16750812
_cell_length_b   7.56987855
_cell_length_c   61.24530088
_cell_angle_alpha   90.00000000
_cell_angle_beta   120.00000000
_cell_angle_gamma   90.00000000
_symmetry_Int_Tables_number   1
_chemical_formula_structural   Si36H2O73
_chemical_formula_sum   'Si72 H4 O146'
_cell_volume   7294.36815695
_cell_formula_units_Z   2
loop_
 _symmetry_equiv_pos_site_id
 _symmetry_equiv_pos_as_xyz
  1  'x, y, z'
loop_
 _atom_site_type_symbol
 _atom_site_label
 _atom_site_symmetry_multiplicity
 _atom_site_fract_x
 _atom_site_fract_y
 _atom_site_fract_z
 _atom_site_occupancy
  O  O1  1  0.289832  0.500161  0.108964  1
  O  O2  1  0.709899  0.500161  0.108980  1
  O  O3  1  0.519352  0.221791  0.186032  1
  O  O4  1  0.740101  0.221791  0.251543  1
  O  O5  1  0.740038  0.221798  0.186031  1
  O  O6  1  0.480422  0.221791  0.328666  1
  O  O7  1  0.259725  0.221803  0.263169  1
  O  O8  1  0.259684  0.221786  0.328666  1
  O  O9  1  0.480422  0.778532  0.328666  1
  O  O10  1  0.259725  0.778519  0.263169  1
  O  O11  1  0.259684  0.778537  0.328666  1
  O  O12  1  0.519352  0.778532  0.186032  1
  O  O13  1  0.740101  0.778532  0.251543  1
  O  O14  1  0.740038  0.778524  0.186031  1
  O  O15  1  0.420705  0.333045  0.142164  1
  O  O16  1  0.690745  0.333047  0.280782  1
  O  O17  1  0.887956  0.333037  0.200673  1
  O  O18  1  0.579012  0.333045  0.372536  1
  O  O19  1  0.309053  0.333047  0.233926  1
  O  O20  1  0.111786  0.333043  0.314023  1
  O  O21  1  0.887989  0.333049  0.280780  1
  O  O22  1  0.420780  0.333040  0.200666  1
  O  O23  1  0.690807  0.333046  0.142163  1
  O  O24  1  0.111817  0.333044  0.233925  1
  O  O25  1  0.579050  0.333040  0.314051  1
  O  O26  1  0.308942  0.333046  0.372538  1
  O  O27  1  0.579012  0.667278  0.372536  1
  O  O28  1  0.309053  0.667275  0.233926  1
  O  O29  1  0.111786  0.667280  0.314023  1
  O  O30  1  0.420705  0.667277  0.142164  1
  O  O31  1  0.690745  0.667276  0.280782  1
  O  O32  1  0.887956  0.667285  0.200673  1
  O  O33  1  0.111817  0.667279  0.233925  1
  O  O34  1  0.579050  0.667282  0.314051  1
  O  O35  1  0.308942  0.667277  0.372538  1
  O  O36  1  0.887989  0.667273  0.280780  1
  O  O37  1  0.420780  0.667283  0.200666  1
  O  O38  1  0.690807  0.667276  0.142163  1
  O  O39  1  0.578685  0.246065  0.155768  1
  O  O40  1  0.578757  0.246069  0.233905  1
  O  O41  1  0.842000  0.246068  0.233905  1
  O  O42  1  0.421023  0.246073  0.358916  1
  O  O43  1  0.421083  0.246062  0.280799  1
  O  O44  1  0.157774  0.246069  0.280794  1
  O  O45  1  0.421023  0.754250  0.358916  1
  O  O46  1  0.421083  0.754261  0.280799  1
  O  O47  1  0.157774  0.754254  0.280794  1
  O  O48  1  0.578685  0.754257  0.155768  1
  O  O49  1  0.578757  0.754253  0.233905  1
  O  O50  1  0.842000  0.754254  0.233905  1
  O  O51  1  0.474743  -0.000000  0.150863  1
  O  O52  1  0.666089  -0.000000  0.264751  1
  O  O53  1  0.858573  -0.000000  0.207986  1
  O  O54  1  0.524969  0.000000  0.363830  1
  O  O55  1  0.333725  -0.000000  0.249957  1
  O  O56  1  0.141146  0.000000  0.306703  1
  O  O57  1  0.858641  -0.000000  0.264749  1
  O  O58  1  0.474815  -0.000000  0.207984  1
  O  O59  1  0.666092  -0.000000  0.150864  1
  O  O60  1  0.141187  -0.000000  0.249956  1
  O  O61  1  0.525020  0.000000  0.306728  1
  O  O62  1  0.333641  -0.000000  0.363833  1
  O  O63  1  0.289832  0.500161  0.405723  1
  O  O64  1  0.709881  0.500161  0.319646  1
  O  O65  1  -0.000000  0.500161  0.195074  1
  O  O66  1  0.709899  0.500161  0.405740  1
  O  O67  1  0.289936  0.500161  0.195070  1
  O  O68  1  0.000000  0.500161  0.319634  1
  O  O69  1  0.336435  0.500161  0.158919  1
  O  O70  1  0.831484  0.500161  0.305776  1
  O  O71  1  0.831571  0.500161  0.158929  1
  O  O72  1  0.663339  0.500161  0.355796  1
  O  O73  1  0.168301  0.500161  0.208930  1
  O  O74  1  0.168192  0.500161  0.355773  1
  O  O75  1  0.519352  0.221791  0.482791  1
  O  O76  1  0.740101  0.221791  0.548303  1
  O  O77  1  0.740038  0.221798  0.482791  1
  O  O78  1  0.480422  0.221791  0.625425  1
  O  O79  1  0.259725  0.221803  0.559929  1
  O  O80  1  0.259684  0.221786  0.625426  1
  O  O81  1  0.480422  0.778532  0.625425  1
  O  O82  1  0.259725  0.778519  0.559929  1
  O  O83  1  0.259684  0.778537  0.625426  1
  O  O84  1  0.519352  0.778532  0.482791  1
  O  O85  1  0.740101  0.778532  0.548303  1
  O  O86  1  0.740038  0.778524  0.482791  1
  O  O87  1  0.420705  0.333045  0.438924  1
  O  O88  1  0.690745  0.333047  0.577542  1
  O  O89  1  0.887956  0.333037  0.497433  1
  O  O90  1  0.579012  0.333045  0.669295  1
  O  O91  1  0.309053  0.333047  0.530686  1
  O  O92  1  0.111786  0.333043  0.610783  1
  O  O93  1  0.887989  0.333049  0.577540  1
  O  O94  1  0.420780  0.333040  0.497426  1
  O  O95  1  0.690807  0.333046  0.438923  1
  O  O96  1  0.111817  0.333044  0.530685  1
  O  O97  1  0.579050  0.333040  0.610810  1
  O  O98  1  0.308942  0.333046  0.669297  1
  O  O99  1  0.579012  0.667278  0.669295  1
  O  O100  1  0.309053  0.667275  0.530686  1
  O  O101  1  0.111786  0.667280  0.610783  1
  O  O102  1  0.420705  0.667277  0.438924  1
  O  O103  1  0.690745  0.667276  0.577542  1
  O  O104  1  0.887956  0.667285  0.497433  1
  O  O105  1  0.111817  0.667279  0.530685  1
  O  O106  1  0.579050  0.667282  0.610810  1
  O  O107  1  0.308942  0.667277  0.669297  1
  O  O108  1  0.887989  0.667273  0.577540  1
  O  O109  1  0.420780  0.667283  0.497426  1
  O  O110  1  0.690807  0.667276  0.438923  1
  O  O111  1  0.578685  0.246065  0.452528  1
  O  O112  1  0.578757  0.246069  0.530665  1
  O  O113  1  0.842000  0.246068  0.530665  1
  O  O114  1  0.421023  0.246073  0.655676  1
  O  O115  1  0.421083  0.246062  0.577558  1
  O  O116  1  0.157774  0.246069  0.577553  1
  O  O117  1  0.421023  0.754250  0.655676  1
  O  O118  1  0.421083  0.754261  0.577558  1
  O  O119  1  0.157774  0.754254  0.577553  1
  O  O120  1  0.578685  0.754257  0.452528  1
  O  O121  1  0.578757  0.754253  0.530665  1
  O  O122  1  0.842000  0.754254  0.530665  1
  O  O123  1  0.474743  -0.000000  0.447623  1
  O  O124  1  0.666089  -0.000000  0.561511  1
  O  O125  1  0.858573  -0.000000  0.504745  1
  O  O126  1  0.524969  0.000000  0.660590  1
  O  O127  1  0.333725  -0.000000  0.546717  1
  O  O128  1  0.141146  0.000000  0.603463  1
  O  O129  1  0.858641  0.000000  0.561509  1
  O  O130  1  0.474815  -0.000000  0.504743  1
  O  O131  1  0.666092  -0.000000  0.447623  1
  O  O132  1  0.141187  0.000000  0.546715  1
  O  O133  1  0.525020  -0.000000  0.603488  1
  O  O134  1  0.333641  0.000000  0.660593  1
  O  O135  1  0.289832  0.500161  0.702483  1
  O  O136  1  0.709881  0.500161  0.616405  1
  O  O137  1  -0.000000  0.500161  0.491833  1
  O  O138  1  0.709899  0.500161  0.702499  1
  O  O139  1  0.289936  0.500161  0.491830  1
  O  O140  1  0.000000  0.500161  0.616394  1
  O  O141  1  0.336435  0.500161  0.455679  1
  O  O142  1  0.831484  0.500161  0.602536  1
  O  O143  1  0.831571  0.500161  0.455689  1
  O  O144  1  0.663339  0.500161  0.652556  1
  O  O145  1  0.168301  0.500161  0.505690  1
  O  O146  1  0.168192  0.500161  0.652533  1
  Si  Si147  1  0.496961  0.202919  0.157651  1
  Si  Si148  1  0.666777  0.202919  0.258166  1
  Si  Si149  1  0.835688  0.202918  0.207785  1
  Si  Si150  1  0.502762  0.202920  0.357041  1
  Si  Si151  1  0.333044  0.202919  0.256544  1
  Si  Si152  1  0.164043  0.202916  0.306908  1
  Si  Si153  1  0.835747  0.202916  0.258162  1
  Si  Si154  1  0.497024  0.202918  0.207783  1
  Si  Si155  1  0.666758  0.202920  0.157650  1
  Si  Si156  1  0.164070  0.202919  0.256543  1
  Si  Si157  1  0.502801  0.202917  0.306925  1
  Si  Si158  1  0.332969  0.202920  0.357045  1
  Si  Si159  1  0.502762  0.797403  0.357041  1
  Si  Si160  1  0.333044  0.797403  0.256544  1
  Si  Si161  1  0.164043  0.797407  0.306908  1
  Si  Si162  1  0.496961  0.797404  0.157651  1
  Si  Si163  1  0.666777  0.797403  0.258166  1
  Si  Si164  1  0.835688  0.797404  0.207785  1
  Si  Si165  1  0.164070  0.797403  0.256543  1
  Si  Si166  1  0.502801  0.797406  0.306925  1
  Si  Si167  1  0.332969  0.797403  0.357045  1
  Si  Si168  1  0.835747  0.797406  0.258162  1
  Si  Si169  1  0.497024  0.797405  0.207783  1
  Si  Si170  1  0.666757  0.797402  0.157650  1
  Si  Si171  1  0.362803  0.500161  0.137776  1
  Si  Si172  1  0.733855  0.500161  0.297961  1
  Si  Si173  1  0.902800  0.500161  0.187898  1
  Si  Si174  1  0.636920  0.500161  0.376929  1
  Si  Si175  1  0.265936  0.500161  0.216749  1
  Si  Si176  1  0.096968  0.500161  0.326805  1
  Si  Si177  1  0.902755  0.500161  0.297956  1
  Si  Si178  1  0.362869  0.500161  0.187889  1
  Si  Si179  1  0.733935  0.500161  0.137782  1
  Si  Si180  1  0.097025  0.500161  0.216749  1
  Si  Si181  1  0.636956  0.500161  0.326831  1
  Si  Si182  1  0.265821  0.500161  0.376923  1
  Si  Si183  1  0.496961  0.202919  0.454411  1
  Si  Si184  1  0.666777  0.202919  0.554925  1
  Si  Si185  1  0.835688  0.202918  0.504544  1
  Si  Si186  1  0.502762  0.202920  0.653801  1
  Si  Si187  1  0.333044  0.202919  0.553304  1
  Si  Si188  1  0.164043  0.202916  0.603668  1
  Si  Si189  1  0.835747  0.202916  0.554922  1
  Si  Si190  1  0.497024  0.202918  0.504542  1
  Si  Si191  1  0.666758  0.202920  0.454410  1
  Si  Si192  1  0.164070  0.202919  0.553303  1
  Si  Si193  1  0.502801  0.202917  0.603685  1
  Si  Si194  1  0.332969  0.202920  0.653804  1
  Si  Si195  1  0.502762  0.797403  0.653801  1
  Si  Si196  1  0.333044  0.797403  0.553304  1
  Si  Si197  1  0.164043  0.797407  0.603668  1
  Si  Si198  1  0.496961  0.797404  0.454411  1
  Si  Si199  1  0.666777  0.797403  0.554925  1
  Si  Si200  1  0.835688  0.797404  0.504544  1
  Si  Si201  1  0.164070  0.797403  0.553303  1
  Si  Si202  1  0.502801  0.797406  0.603685  1
  Si  Si203  1  0.332969  0.797403  0.653804  1
  Si  Si204  1  0.835747  0.797406  0.554922  1
  Si  Si205  1  0.497024  0.797405  0.504542  1
  Si  Si206  1  0.666757  0.797402  0.454410  1
  Si  Si207  1  0.362803  0.500161  0.434536  1
  Si  Si208  1  0.733855  0.500161  0.594720  1
  Si  Si209  1  0.902800  0.500161  0.484657  1
  Si  Si210  1  0.636920  0.500161  0.673689  1
  Si  Si211  1  0.265936  0.500161  0.513509  1
  Si  Si212  1  0.096968  0.500161  0.623565  1
  Si  Si213  1  0.902755  0.500161  0.594716  1
  Si  Si214  1  0.362869  0.500161  0.484649  1
  Si  Si215  1  0.733935  0.500161  0.434542  1
  Si  Si216  1  0.097025  0.500161  0.513508  1
  Si  Si217  1  0.636956  0.500161  0.623590  1
  Si  Si218  1  0.265821  0.500161  0.673683  1
  H  H219  1  0.289832  0.500161  0.094269  1
  H  H220  1  0.709899  0.500161  0.094285  1
  H  H221  1  0.289832  0.500161  0.717178  1
  H  H222  1  0.709899  0.500161  0.717194  1
