# generated using pymatgen
data_Si6H2O13
_symmetry_space_group_name_H-M   'P 1'
_cell_length_a   15.37087820
_cell_length_b   21.24173166
_cell_length_c   66.38727296
_cell_angle_alpha   149.99926665
_cell_angle_beta   90.00000000
_cell_angle_gamma   90.00000000
_symmetry_Int_Tables_number   1
_chemical_formula_structural   Si6H2O13
_chemical_formula_sum   'Si72 H24 O156'
_cell_volume   10838.0976764
_cell_formula_units_Z   12
loop_
 _symmetry_equiv_pos_site_id
 _symmetry_equiv_pos_as_xyz
  1  'x, y, z'
loop_
 _atom_site_type_symbol
 _atom_site_label
 _atom_site_symmetry_multiplicity
 _atom_site_fract_x
 _atom_site_fract_y
 _atom_site_fract_z
 _atom_site_occupancy
  O  O1  1  0.678257  0.881245  0.164185  1
  O  O2  1  0.497195  0.538691  0.164819  1
  O  O3  1  0.836554  0.460577  0.164451  1
  O  O4  1  -0.000000  0.110972  0.164446  1
  O  O5  1  0.654481  0.118116  0.164790  1
  O  O6  1  0.165386  0.221878  0.164615  1
  O  O7  1  0.917361  0.665458  0.283984  1
  O  O8  1  0.917905  0.664962  0.229390  1
  O  O9  1  0.834324  0.554565  0.226008  1
  O  O10  1  0.750031  0.665077  0.283980  1
  O  O11  1  0.750564  0.665307  0.229302  1
  O  O12  1  0.995816  0.873425  0.279149  1
  O  O13  1  0.678257  0.881245  0.348914  1
  O  O14  1  0.678473  0.881071  0.283990  1
  O  O15  1  0.995921  0.873310  0.164924  1
  O  O16  1  0.418499  0.982237  0.219408  1
  O  O17  1  0.585431  0.979853  0.219105  1
  O  O18  1  0.418305  0.982431  0.284998  1
  O  O19  1  0.585290  0.979996  0.283908  1
  O  O20  1  0.654393  0.759447  0.282725  1
  O  O21  1  0.344258  0.766357  0.284766  1
  O  O22  1  0.584430  0.684017  0.294770  1
  O  O23  1  0.417551  0.687544  0.295302  1
  O  O24  1  0.584971  0.683473  0.228693  1
  O  O25  1  0.418078  0.688083  0.230737  1
  O  O26  1  0.500250  0.778451  0.226423  1
  O  O27  1  0.500457  0.778191  0.164910  1
  O  O28  1  0.499817  0.925367  0.236405  1
  O  O29  1  0.498162  0.538272  0.278243  1
  O  O30  1  0.497195  0.538691  0.349548  1
  O  O31  1  0.084941  0.670761  0.285696  1
  O  O32  1  0.085456  0.671373  0.230967  1
  O  O33  1  0.165678  0.558034  0.227009  1
  O  O34  1  0.252027  0.664286  0.283838  1
  O  O35  1  0.252529  0.663918  0.228985  1
  O  O36  1  0.320725  0.881651  0.283586  1
  O  O37  1  0.320607  0.881614  0.165087  1
  O  O38  1  -0.000000  0.778501  0.288102  1
  O  O39  1  0.918345  0.020663  0.294519  1
  O  O40  1  0.915217  0.313432  0.283503  1
  O  O41  1  0.914519  0.313215  0.219625  1
  O  O42  1  0.918447  0.020539  0.231053  1
  O  O43  1  0.833859  0.222366  0.164926  1
  O  O44  1  0.833968  0.222242  0.287628  1
  O  O45  1  0.751059  0.018295  0.295129  1
  O  O46  1  0.748074  0.316141  0.285033  1
  O  O47  1  0.747444  0.316377  0.219526  1
  O  O48  1  0.751128  0.018135  0.229004  1
  O  O49  1  0.829103  0.079726  0.279121  1
  O  O50  1  0.836518  0.460659  0.235490  1
  O  O51  1  0.836554  0.460577  0.349180  1
  O  O52  1  0.677977  0.238340  0.230724  1
  O  O53  1  0.000000  0.110972  0.349175  1
  O  O54  1  -0.000000  0.110918  0.226494  1
  O  O55  1  0.414986  0.334058  0.230083  1
  O  O56  1  0.499024  0.444625  0.287915  1
  O  O57  1  0.654481  0.118116  0.349519  1
  O  O58  1  0.654397  0.118411  0.230149  1
  O  O59  1  0.343865  0.118526  0.164949  1
  O  O60  1  0.343946  0.118388  0.230207  1
  O  O61  1  0.582610  0.334441  0.284682  1
  O  O62  1  0.415710  0.333324  0.284298  1
  O  O63  1  0.581921  0.333575  0.229834  1
  O  O64  1  0.085721  0.015858  0.294540  1
  O  O65  1  0.082885  0.314559  0.284560  1
  O  O66  1  0.082170  0.314829  0.219230  1
  O  O67  1  0.085910  0.015919  0.228501  1
  O  O68  1  0.165386  0.221878  0.349344  1
  O  O69  1  0.165523  0.221990  0.287893  1
  O  O70  1  0.252711  0.020870  0.294777  1
  O  O71  1  0.250193  0.316360  0.285328  1
  O  O72  1  0.249504  0.315990  0.219494  1
  O  O73  1  0.252891  0.021025  0.231118  1
  O  O74  1  0.162092  0.077751  0.278673  1
  O  O75  1  0.162848  0.461344  0.235360  1
  O  O76  1  0.162740  0.461428  0.165102  1
  O  O77  1  0.003357  0.251045  0.234284  1
  O  O78  1  0.319197  0.238102  0.230743  1
  O  O79  1  0.917361  0.665458  0.468713  1
  O  O80  1  0.917905  0.664962  0.414119  1
  O  O81  1  0.834324  0.554565  0.410737  1
  O  O82  1  0.750031  0.665077  0.468709  1
  O  O83  1  0.750564  0.665307  0.414031  1
  O  O84  1  0.995816  0.873425  0.463878  1
  O  O85  1  0.678257  0.881245  0.533643  1
  O  O86  1  0.678473  0.881071  0.468719  1
  O  O87  1  0.995921  0.873310  0.349653  1
  O  O88  1  0.418499  0.982237  0.404137  1
  O  O89  1  0.585431  0.979853  0.403834  1
  O  O90  1  0.418305  0.982431  0.469727  1
  O  O91  1  0.585290  0.979996  0.468637  1
  O  O92  1  0.654393  0.759447  0.467454  1
  O  O93  1  0.344258  0.766357  0.469495  1
  O  O94  1  0.584430  0.684017  0.479499  1
  O  O95  1  0.417551  0.687544  0.480031  1
  O  O96  1  0.584971  0.683473  0.413422  1
  O  O97  1  0.418078  0.688083  0.415466  1
  O  O98  1  0.500250  0.778451  0.411151  1
  O  O99  1  0.500457  0.778191  0.349639  1
  O  O100  1  0.499817  0.925367  0.421134  1
  O  O101  1  0.498162  0.538272  0.462972  1
  O  O102  1  0.497195  0.538691  0.534277  1
  O  O103  1  0.084941  0.670761  0.470425  1
  O  O104  1  0.085456  0.671373  0.415696  1
  O  O105  1  0.165678  0.558034  0.411738  1
  O  O106  1  0.252027  0.664286  0.468567  1
  O  O107  1  0.252529  0.663918  0.413714  1
  O  O108  1  0.320725  0.881651  0.468315  1
  O  O109  1  0.320607  0.881614  0.349816  1
  O  O110  1  -0.000000  0.778501  0.472831  1
  O  O111  1  0.918345  0.020663  0.479248  1
  O  O112  1  0.915217  0.313432  0.468232  1
  O  O113  1  0.914519  0.313215  0.404354  1
  O  O114  1  0.918447  0.020539  0.415782  1
  O  O115  1  0.833859  0.222366  0.349655  1
  O  O116  1  0.833968  0.222242  0.472357  1
  O  O117  1  0.751059  0.018295  0.479857  1
  O  O118  1  0.748074  0.316141  0.469762  1
  O  O119  1  0.747444  0.316377  0.404255  1
  O  O120  1  0.751128  0.018135  0.413733  1
  O  O121  1  0.829103  0.079726  0.463850  1
  O  O122  1  0.836518  0.460659  0.420218  1
  O  O123  1  0.836554  0.460577  0.533909  1
  O  O124  1  0.677977  0.238340  0.415453  1
  O  O125  1  -0.000000  0.110972  0.533904  1
  O  O126  1  -0.000000  0.110918  0.411223  1
  O  O127  1  0.414986  0.334058  0.414811  1
  O  O128  1  0.499024  0.444625  0.472644  1
  O  O129  1  0.654481  0.118116  0.534248  1
  O  O130  1  0.654397  0.118411  0.414878  1
  O  O131  1  0.343865  0.118526  0.349678  1
  O  O132  1  0.343946  0.118388  0.414936  1
  O  O133  1  0.582610  0.334441  0.469411  1
  O  O134  1  0.415710  0.333324  0.469027  1
  O  O135  1  0.581921  0.333575  0.414563  1
  O  O136  1  0.085721  0.015858  0.479269  1
  O  O137  1  0.082885  0.314559  0.469289  1
  O  O138  1  0.082170  0.314829  0.403959  1
  O  O139  1  0.085910  0.015919  0.413230  1
  O  O140  1  0.165386  0.221878  0.534073  1
  O  O141  1  0.165523  0.221990  0.472622  1
  O  O142  1  0.252711  0.020870  0.479506  1
  O  O143  1  0.250193  0.316360  0.470057  1
  O  O144  1  0.249504  0.315990  0.404223  1
  O  O145  1  0.252891  0.021025  0.415847  1
  O  O146  1  0.162092  0.077751  0.463401  1
  O  O147  1  0.162848  0.461344  0.420089  1
  O  O148  1  0.162740  0.461428  0.349830  1
  O  O149  1  0.003357  0.251045  0.419013  1
  O  O150  1  0.319197  0.238102  0.415472  1
  O  O151  1  0.995921  0.873310  0.534382  1
  O  O152  1  0.500457  0.778191  0.534368  1
  O  O153  1  0.320607  0.881614  0.534545  1
  O  O154  1  0.833859  0.222366  0.534384  1
  O  O155  1  0.343865  0.118526  0.534407  1
  O  O156  1  0.162740  0.461428  0.534559  1
  Si  Si157  1  0.667256  0.000000  0.302954  1
  Si  Si158  1  0.833802  0.585190  0.257632  1
  Si  Si159  1  0.834128  0.585085  0.211325  1
  Si  Si160  1  0.667141  0.746177  0.255756  1
  Si  Si161  1  0.667192  -0.000000  0.210804  1
  Si  Si162  1  0.666819  0.746327  0.302394  1
  Si  Si163  1  -0.000000  0.747839  0.302755  1
  Si  Si164  1  0.500147  0.668127  0.303368  1
  Si  Si165  1  0.500150  0.668285  0.211646  1
  Si  Si166  1  0.500942  0.918965  0.258061  1
  Si  Si167  1  0.501163  0.918760  0.211146  1
  Si  Si168  1  0.333674  0.748896  0.303221  1
  Si  Si169  1  0.333948  0.748969  0.256646  1
  Si  Si170  1  0.167006  0.587300  0.258274  1
  Si  Si171  1  0.167273  0.587385  0.211989  1
  Si  Si172  1  0.000000  0.747875  0.256463  1
  Si  Si173  1  0.832908  0.082281  0.256393  1
  Si  Si174  1  0.832515  0.332208  0.211168  1
  Si  Si175  1  0.832920  0.082413  0.303314  1
  Si  Si176  1  0.832874  0.332183  0.302310  1
  Si  Si177  1  -0.000000  0.250967  0.210808  1
  Si  Si178  1  -0.000000  -0.000000  0.302901  1
  Si  Si179  1  0.498591  0.414286  0.256384  1
  Si  Si180  1  0.498878  0.414427  0.302677  1
  Si  Si181  1  0.665627  0.252770  0.258018  1
  Si  Si182  1  0.665308  0.252603  0.211389  1
  Si  Si183  1  0.334194  -0.000000  0.211638  1
  Si  Si184  1  0.334128  -0.000000  0.303044  1
  Si  Si185  1  0.167168  0.081343  0.303095  1
  Si  Si186  1  0.166037  0.332746  0.302932  1
  Si  Si187  1  0.165680  0.332682  0.210957  1
  Si  Si188  1  0.167287  0.081477  0.256280  1
  Si  Si189  1  0.332201  0.252614  0.258043  1
  Si  Si190  1  0.331827  0.252677  0.211493  1
  Si  Si191  1  -0.000000  0.250903  0.257703  1
  Si  Si192  1  -0.000000  0.000000  0.211827  1
  Si  Si193  1  0.667256  0.000000  0.487683  1
  Si  Si194  1  0.833802  0.585190  0.442361  1
  Si  Si195  1  0.834128  0.585085  0.396054  1
  Si  Si196  1  0.667141  0.746177  0.440485  1
  Si  Si197  1  0.667192  0.000000  0.395533  1
  Si  Si198  1  0.666819  0.746327  0.487123  1
  Si  Si199  1  -0.000000  0.747839  0.487484  1
  Si  Si200  1  0.500147  0.668127  0.488097  1
  Si  Si201  1  0.500150  0.668285  0.396375  1
  Si  Si202  1  0.500942  0.918965  0.442790  1
  Si  Si203  1  0.501163  0.918760  0.395875  1
  Si  Si204  1  0.333674  0.748896  0.487949  1
  Si  Si205  1  0.333948  0.748969  0.441375  1
  Si  Si206  1  0.167006  0.587300  0.443003  1
  Si  Si207  1  0.167273  0.587385  0.396718  1
  Si  Si208  1  -0.000000  0.747875  0.441192  1
  Si  Si209  1  0.832908  0.082281  0.441122  1
  Si  Si210  1  0.832515  0.332208  0.395897  1
  Si  Si211  1  0.832920  0.082413  0.488043  1
  Si  Si212  1  0.832874  0.332183  0.487039  1
  Si  Si213  1  0.000000  0.250967  0.395537  1
  Si  Si214  1  -0.000000  0.000000  0.487630  1
  Si  Si215  1  0.498591  0.414286  0.441113  1
  Si  Si216  1  0.498878  0.414427  0.487406  1
  Si  Si217  1  0.665627  0.252770  0.442747  1
  Si  Si218  1  0.665308  0.252603  0.396117  1
  Si  Si219  1  0.334194  -0.000000  0.396367  1
  Si  Si220  1  0.334128  0.000000  0.487773  1
  Si  Si221  1  0.167168  0.081343  0.487824  1
  Si  Si222  1  0.166037  0.332746  0.487661  1
  Si  Si223  1  0.165680  0.332682  0.395686  1
  Si  Si224  1  0.167287  0.081477  0.441009  1
  Si  Si225  1  0.332201  0.252614  0.442771  1
  Si  Si226  1  0.331827  0.252677  0.396222  1
  Si  Si227  1  -0.000000  0.250903  0.442432  1
  Si  Si228  1  -0.000000  0.000000  0.396556  1
  H  H229  1  0.678257  0.881245  0.150628  1
  H  H230  1  0.497195  0.538691  0.151262  1
  H  H231  1  0.836554  0.460577  0.150895  1
  H  H232  1  -0.000000  0.110972  0.150889  1
  H  H233  1  0.654481  0.118116  0.151233  1
  H  H234  1  0.165386  0.221878  0.151058  1
  H  H235  1  0.995921  0.873310  0.151368  1
  H  H236  1  0.500457  0.778191  0.151353  1
  H  H237  1  0.320607  0.881614  0.151531  1
  H  H238  1  0.833859  0.222366  0.151369  1
  H  H239  1  0.343865  0.118526  0.151393  1
  H  H240  1  0.162740  0.461428  0.151545  1
  H  H241  1  0.678257  0.881245  0.547199  1
  H  H242  1  0.497195  0.538691  0.547833  1
  H  H243  1  0.836554  0.460577  0.547466  1
  H  H244  1  -0.000000  0.110972  0.547461  1
  H  H245  1  0.654481  0.118116  0.547804  1
  H  H246  1  0.165386  0.221878  0.547630  1
  H  H247  1  0.995921  0.873310  0.547939  1
  H  H248  1  0.500457  0.778191  0.547925  1
  H  H249  1  0.320607  0.881614  0.548102  1
  H  H250  1  0.833859  0.222366  0.547941  1
  H  H251  1  0.343865  0.118526  0.547964  1
  H  H252  1  0.162740  0.461428  0.548116  1
