# generated using pymatgen
data_Si3H2O7
_symmetry_space_group_name_H-M   'P 1'
_cell_length_a   22.81355033
_cell_length_b   22.29290311
_cell_length_c   54.67516403
_cell_angle_alpha   149.99892106
_cell_angle_beta   90.00000000
_cell_angle_gamma   90.00000000
_symmetry_Int_Tables_number   1
_chemical_formula_structural   Si3H2O7
_chemical_formula_sum   'Si54 H36 O126'
_cell_volume   13903.8082388
_cell_formula_units_Z   18
loop_
 _symmetry_equiv_pos_site_id
 _symmetry_equiv_pos_as_xyz
  1  'x, y, z'
loop_
 _atom_site_type_symbol
 _atom_site_label
 _atom_site_symmetry_multiplicity
 _atom_site_fract_x
 _atom_site_fract_y
 _atom_site_fract_z
 _atom_site_occupancy
  O  O1  1  0.927126  0.104480  0.199353  1
  O  O2  1  0.824539  0.219977  0.199392  1
  O  O3  1  0.842115  0.446932  0.199377  1
  O  O4  1  0.508697  0.113577  0.199464  1
  O  O5  1  0.406151  0.228944  0.199430  1
  O  O6  1  0.414624  0.456373  0.199458  1
  O  O7  1  0.081281  0.123167  0.199392  1
  O  O8  1  0.260447  0.437785  0.199393  1
  O  O9  1  0.251971  0.210382  0.199417  1
  O  O10  1  0.739478  0.562432  0.199414  1
  O  O11  1  0.918658  0.877071  0.199366  1
  O  O12  1  0.747919  0.789794  0.199426  1
  O  O13  1  0.593774  0.771133  0.199456  1
  O  O14  1  0.585351  0.543828  0.199444  1
  O  O15  1  0.491185  0.886562  0.199439  1
  O  O16  1  0.072801  0.895769  0.199421  1
  O  O17  1  0.175398  0.780337  0.199398  1
  O  O18  1  0.157880  0.553137  0.199378  1
  O  O19  1  0.888644  0.654796  0.346041  1
  O  O20  1  0.888654  0.313798  0.265763  1
  O  O21  1  0.777940  0.353098  0.279647  1
  O  O22  1  0.777909  0.635219  0.346082  1
  O  O23  1  0.927138  0.791324  0.361049  1
  O  O24  1  0.927126  0.104480  0.434751  1
  O  O25  1  0.842046  0.447059  0.279593  1
  O  O26  1  -0.000000  0.729254  0.371014  1
  O  O27  1  -0.000000  0.270986  0.263147  1
  O  O28  1  0.888694  0.654720  0.279637  1
  O  O29  1  0.888666  0.031792  0.368384  1
  O  O30  1  0.777988  0.635084  0.265768  1
  O  O31  1  0.918665  0.877082  0.347893  1
  O  O32  1  0.824539  0.219977  0.434789  1
  O  O33  1  0.777949  0.012173  0.354552  1
  O  O34  1  0.842115  0.446932  0.434775  1
  O  O35  1  0.842062  0.106399  0.354607  1
  O  O36  1  0.747966  0.789813  0.286288  1
  O  O37  1  0.824514  0.560537  0.279577  1
  O  O38  1  0.000000  0.000000  0.371005  1
  O  O39  1  -0.000000  0.729263  0.307267  1
  O  O40  1  0.444599  0.301767  0.265842  1
  O  O41  1  0.444583  0.678751  0.354583  1
  O  O42  1  0.414593  0.456364  0.286282  1
  O  O43  1  0.508767  0.772896  0.354631  1
  O  O44  1  0.508697  0.113577  0.434862  1
  O  O45  1  0.406117  0.542242  0.273186  1
  O  O46  1  0.406151  0.228944  0.434827  1
  O  O47  1  0.593789  0.771248  0.273210  1
  O  O48  1  0.555347  0.698354  0.288167  1
  O  O49  1  0.444619  0.678746  0.288192  1
  O  O50  1  0.414624  0.456373  0.434855  1
  O  O51  1  0.555328  0.980508  0.354626  1
  O  O52  1  0.414638  0.087336  0.347965  1
  O  O53  1  0.491229  0.886507  0.354672  1
  O  O54  1  0.444605  0.019665  0.368455  1
  O  O55  1  0.666664  0.666781  0.263192  1
  O  O56  1  0.666632  0.937698  0.326986  1
  O  O57  1  0.081281  0.123167  0.434790  1
  O  O58  1  0.081313  0.754282  0.347985  1
  O  O59  1  0.260463  0.437759  0.273119  1
  O  O60  1  0.333284  0.333386  0.263190  1
  O  O61  1  0.333268  0.604260  0.326946  1
  O  O62  1  0.111288  0.968416  0.346021  1
  O  O63  1  0.333305  0.062509  0.371069  1
  O  O64  1  0.260480  0.124598  0.361095  1
  O  O65  1  0.072816  0.895774  0.361072  1
  O  O66  1  0.260447  0.437785  0.434791  1
  O  O67  1  0.221997  0.988018  0.346040  1
  O  O68  1  0.222003  0.647084  0.265777  1
  O  O69  1  0.251962  0.579319  0.286232  1
  O  O70  1  0.175413  0.780214  0.279530  1
  O  O71  1  0.111295  0.686444  0.279666  1
  O  O72  1  0.251971  0.210382  0.434815  1
  O  O73  1  0.333294  0.604268  0.263184  1
  O  O74  1  0.927122  0.104426  0.273080  1
  O  O75  1  0.739447  0.875613  0.273161  1
  O  O76  1  0.739483  0.562386  0.361068  1
  O  O77  1  0.739478  0.562432  0.434812  1
  O  O78  1  0.888660  0.313733  0.354486  1
  O  O79  1  0.888620  0.031704  0.288102  1
  O  O80  1  0.777894  0.012145  0.288160  1
  O  O81  1  0.777977  0.353146  0.368414  1
  O  O82  1  0.918658  0.877071  0.434763  1
  O  O83  1  0.918619  0.245958  0.286180  1
  O  O84  1  0.747919  0.789794  0.434824  1
  O  O85  1  0.747977  0.420841  0.347949  1
  O  O86  1  0.824520  0.219885  0.354588  1
  O  O87  1  0.000000  0.000000  0.263161  1
  O  O88  1  0.666672  0.395924  0.371062  1
  O  O89  1  -0.000000  0.270939  0.326880  1
  O  O90  1  0.593820  0.457896  0.361083  1
  O  O91  1  0.593774  0.771133  0.434853  1
  O  O92  1  0.406148  0.228983  0.361124  1
  O  O93  1  0.555353  0.321444  0.346114  1
  O  O94  1  0.555283  0.698390  0.368468  1
  O  O95  1  0.555325  0.321336  0.279685  1
  O  O96  1  0.555299  0.980410  0.265824  1
  O  O97  1  0.444610  0.019715  0.279702  1
  O  O98  1  0.444646  0.301790  0.346135  1
  O  O99  1  0.585351  0.543828  0.434841  1
  O  O100  1  0.585289  0.912825  0.286342  1
  O  O101  1  0.585304  0.543729  0.347982  1
  O  O102  1  0.508748  0.113638  0.279632  1
  O  O103  1  0.491185  0.886562  0.434837  1
  O  O104  1  0.491174  0.227246  0.279670  1
  O  O105  1  0.666646  0.395868  0.307277  1
  O  O106  1  0.666593  0.666789  0.371077  1
  O  O107  1  0.666590  0.937645  0.263199  1
  O  O108  1  0.072796  0.208888  0.273099  1
  O  O109  1  0.072801  0.895769  0.434818  1
  O  O110  1  0.221959  0.647059  0.354514  1
  O  O111  1  0.222008  0.364970  0.368378  1
  O  O112  1  0.221964  0.365135  0.288177  1
  O  O113  1  0.222009  0.988071  0.279678  1
  O  O114  1  0.111255  0.345515  0.288171  1
  O  O115  1  0.111281  0.968499  0.265803  1
  O  O116  1  0.111274  0.345405  0.354509  1
  O  O117  1  0.111267  0.686461  0.368411  1
  O  O118  1  0.252004  0.210393  0.347957  1
  O  O119  1  0.081262  0.123123  0.286255  1
  O  O120  1  0.175398  0.780337  0.434795  1
  O  O121  1  0.175414  0.439701  0.354632  1
  O  O122  1  0.157880  0.553137  0.434775  1
  O  O123  1  0.157868  0.893780  0.279549  1
  O  O124  1  0.157828  0.553294  0.354652  1
  O  O125  1  0.333321  0.062505  0.307301  1
  O  O126  1  0.333329  0.333381  0.371063  1
  Si  Si127  1  0.833294  0.333483  0.255968  1
  Si  Si128  1  0.833262  0.573875  0.312574  1
  Si  Si129  1  0.932733  0.760658  0.378324  1
  Si  Si130  1  0.932709  0.239178  0.255566  1
  Si  Si131  1  0.932732  0.000000  0.378547  1
  Si  Si132  1  0.932749  0.760662  0.322121  1
  Si  Si133  1  0.733896  0.666454  0.255617  1
  Si  Si134  1  0.733868  0.906269  0.312088  1
  Si  Si135  1  0.833300  0.093137  0.378212  1
  Si  Si136  1  0.833337  0.573750  0.255956  1
  Si  Si137  1  0.499948  0.759708  0.378261  1
  Si  Si138  1  0.499946  0.240437  0.256039  1
  Si  Si139  1  0.400532  0.333042  0.255639  1
  Si  Si140  1  0.400517  0.572844  0.312095  1
  Si  Si141  1  0.499997  0.759662  0.321669  1
  Si  Si142  1  0.599381  0.905964  0.312139  1
  Si  Si143  1  0.599412  0.667121  0.255889  1
  Si  Si144  1  0.400533  0.572869  0.255897  1
  Si  Si145  1  0.400554  0.094231  0.378620  1
  Si  Si146  1  0.499966  0.000000  0.378284  1
  Si  Si147  1  0.266035  0.572466  0.312034  1
  Si  Si148  1  0.266048  0.333733  0.255860  1
  Si  Si149  1  0.067218  0.761080  0.378605  1
  Si  Si150  1  0.067194  0.239575  0.255832  1
  Si  Si151  1  0.266047  0.572490  0.255601  1
  Si  Si152  1  0.166651  0.666716  0.255956  1
  Si  Si153  1  0.067216  0.000000  0.378344  1
  Si  Si154  1  0.166648  0.907049  0.312522  1
  Si  Si155  1  0.266068  0.093944  0.378375  1
  Si  Si156  1  0.067234  0.761074  0.322161  1
  Si  Si157  1  0.733855  0.666495  0.378378  1
  Si  Si158  1  0.733903  0.427722  0.378600  1
  Si  Si159  1  0.833278  0.093079  0.321618  1
  Si  Si160  1  0.932707  0.239122  0.311987  1
  Si  Si161  1  0.932714  0.000000  0.255811  1
  Si  Si162  1  0.833326  0.333435  0.378200  1
  Si  Si163  1  0.733839  0.906233  0.255868  1
  Si  Si164  1  0.733891  0.427672  0.322141  1
  Si  Si165  1  0.499985  0.240482  0.312630  1
  Si  Si166  1  0.499957  0.000000  0.256016  1
  Si  Si167  1  0.400557  0.333059  0.378412  1
  Si  Si168  1  0.599422  0.427335  0.378397  1
  Si  Si169  1  0.599367  0.667081  0.378647  1
  Si  Si170  1  0.599405  0.427239  0.322157  1
  Si  Si171  1  0.599356  0.905865  0.255663  1
  Si  Si172  1  0.400560  0.094256  0.322188  1
  Si  Si173  1  0.166610  0.426479  0.321676  1
  Si  Si174  1  0.166629  0.907128  0.255976  1
  Si  Si175  1  0.166604  0.666781  0.378220  1
  Si  Si176  1  0.166657  0.426334  0.378199  1
  Si  Si177  1  0.067192  0.239537  0.312024  1
  Si  Si178  1  0.266070  0.333692  0.378583  1
  Si  Si179  1  0.266077  0.093956  0.322173  1
  Si  Si180  1  0.067199  0.000000  0.255623  1
  H  H181  1  0.927126  0.104480  0.182892  1
  H  H182  1  0.824539  0.219977  0.182931  1
  H  H183  1  0.842115  0.446932  0.182916  1
  H  H184  1  0.508697  0.113577  0.183004  1
  H  H185  1  0.406151  0.228944  0.182969  1
  H  H186  1  0.414624  0.456373  0.182997  1
  H  H187  1  0.081281  0.123167  0.182932  1
  H  H188  1  0.260447  0.437785  0.182932  1
  H  H189  1  0.251971  0.210382  0.182956  1
  H  H190  1  0.739478  0.562432  0.182954  1
  H  H191  1  0.918658  0.877071  0.182905  1
  H  H192  1  0.747919  0.789794  0.182966  1
  H  H193  1  0.593774  0.771133  0.182995  1
  H  H194  1  0.585351  0.543828  0.182983  1
  H  H195  1  0.491185  0.886562  0.182979  1
  H  H196  1  0.072801  0.895769  0.182960  1
  H  H197  1  0.175398  0.780337  0.182937  1
  H  H198  1  0.157880  0.553137  0.182917  1
  H  H199  1  0.927126  0.104480  0.451212  1
  H  H200  1  0.824539  0.219977  0.451250  1
  H  H201  1  0.842115  0.446932  0.451235  1
  H  H202  1  0.508697  0.113577  0.451323  1
  H  H203  1  0.406151  0.228944  0.451288  1
  H  H204  1  0.414624  0.456373  0.451316  1
  H  H205  1  0.081281  0.123167  0.451251  1
  H  H206  1  0.260447  0.437785  0.451251  1
  H  H207  1  0.251971  0.210382  0.451275  1
  H  H208  1  0.739478  0.562432  0.451273  1
  H  H209  1  0.918658  0.877071  0.451224  1
  H  H210  1  0.747919  0.789794  0.451285  1
  H  H211  1  0.593774  0.771133  0.451314  1
  H  H212  1  0.585351  0.543828  0.451302  1
  H  H213  1  0.491185  0.886562  0.451298  1
  H  H214  1  0.072801  0.895769  0.451279  1
  H  H215  1  0.175398  0.780337  0.451256  1
  H  H216  1  0.157880  0.553137  0.451236  1
