# generated using pymatgen
data_Si3H2O7
_symmetry_space_group_name_H-M   'P 1'
_cell_length_a   15.37087820
_cell_length_b   21.24173166
_cell_length_c   54.12362535
_cell_angle_alpha   149.99926665
_cell_angle_beta   90.00000000
_cell_angle_gamma   90.00000000
_symmetry_Int_Tables_number   1
_chemical_formula_structural   Si3H2O7
_chemical_formula_sum   'Si36 H24 O84'
_cell_volume   8835.98786322
_cell_formula_units_Z   12
loop_
 _symmetry_equiv_pos_site_id
 _symmetry_equiv_pos_as_xyz
  1  'x, y, z'
loop_
 _atom_site_type_symbol
 _atom_site_label
 _atom_site_symmetry_multiplicity
 _atom_site_fract_x
 _atom_site_fract_y
 _atom_site_fract_z
 _atom_site_occupancy
  O  O1  1  0.678257  0.881245  0.201387  1
  O  O2  1  0.497195  0.538691  0.202164  1
  O  O3  1  0.836554  0.460577  0.201714  1
  O  O4  1  0.000000  0.110972  0.201707  1
  O  O5  1  0.654481  0.118116  0.202129  1
  O  O6  1  0.165386  0.221878  0.201914  1
  O  O7  1  0.917361  0.665458  0.348331  1
  O  O8  1  0.917905  0.664962  0.281366  1
  O  O9  1  0.834324  0.554565  0.277219  1
  O  O10  1  0.750031  0.665077  0.348326  1
  O  O11  1  0.750564  0.665307  0.281259  1
  O  O12  1  0.995816  0.873425  0.342400  1
  O  O13  1  0.678257  0.881245  0.427973  1
  O  O14  1  0.678473  0.881071  0.348338  1
  O  O15  1  0.995921  0.873310  0.202294  1
  O  O16  1  0.418499  0.982237  0.269123  1
  O  O17  1  0.585431  0.979853  0.268751  1
  O  O18  1  0.418305  0.982431  0.349575  1
  O  O19  1  0.585290  0.979996  0.348237  1
  O  O20  1  0.654393  0.759447  0.346787  1
  O  O21  1  0.344258  0.766357  0.349289  1
  O  O22  1  0.584430  0.684017  0.361560  1
  O  O23  1  0.417551  0.687544  0.362213  1
  O  O24  1  0.584971  0.683473  0.280512  1
  O  O25  1  0.418078  0.688083  0.283019  1
  O  O26  1  0.500250  0.778451  0.277727  1
  O  O27  1  0.500457  0.778191  0.202277  1
  O  O28  1  0.499817  0.925367  0.289971  1
  O  O29  1  0.498162  0.538272  0.341289  1
  O  O30  1  0.497195  0.538691  0.428750  1
  O  O31  1  0.084941  0.670761  0.350431  1
  O  O32  1  0.085456  0.671373  0.283301  1
  O  O33  1  0.165678  0.558034  0.278446  1
  O  O34  1  0.252027  0.664286  0.348152  1
  O  O35  1  0.252529  0.663918  0.280869  1
  O  O36  1  0.320725  0.881651  0.347842  1
  O  O37  1  0.320607  0.881614  0.202494  1
  O  O38  1  -0.000000  0.778501  0.353381  1
  O  O39  1  0.918345  0.020663  0.361253  1
  O  O40  1  0.915217  0.313432  0.347740  1
  O  O41  1  0.914519  0.313215  0.269389  1
  O  O42  1  0.918447  0.020539  0.283407  1
  O  O43  1  0.833859  0.222366  0.202296  1
  O  O44  1  0.833968  0.222242  0.352800  1
  O  O45  1  0.751059  0.018295  0.362000  1
  O  O46  1  0.748074  0.316141  0.349618  1
  O  O47  1  0.747444  0.316377  0.269268  1
  O  O48  1  0.751128  0.018135  0.280893  1
  O  O49  1  0.829103  0.079726  0.342366  1
  O  O50  1  0.836518  0.460659  0.288848  1
  O  O51  1  0.836554  0.460577  0.428300  1
  O  O52  1  0.677977  0.238340  0.283003  1
  O  O53  1  0.000000  0.110972  0.428293  1
  O  O54  1  0.000000  0.110918  0.277815  1
  O  O55  1  0.414986  0.334058  0.282216  1
  O  O56  1  0.499024  0.444625  0.353153  1
  O  O57  1  0.654481  0.118116  0.428715  1
  O  O58  1  0.654397  0.118411  0.282298  1
  O  O59  1  0.343865  0.118526  0.202325  1
  O  O60  1  0.343946  0.118388  0.282368  1
  O  O61  1  0.582610  0.334441  0.349187  1
  O  O62  1  0.415710  0.333324  0.348716  1
  O  O63  1  0.581921  0.333575  0.281912  1
  O  O64  1  0.085721  0.015858  0.361278  1
  O  O65  1  0.082885  0.314559  0.349037  1
  O  O66  1  0.082170  0.314829  0.268904  1
  O  O67  1  0.085910  0.015919  0.280276  1
  O  O68  1  0.165386  0.221878  0.428500  1
  O  O69  1  0.165523  0.221990  0.353126  1
  O  O70  1  0.252711  0.020870  0.361569  1
  O  O71  1  0.250193  0.316360  0.349979  1
  O  O72  1  0.249504  0.315990  0.269228  1
  O  O73  1  0.252891  0.021025  0.283486  1
  O  O74  1  0.162092  0.077751  0.341816  1
  O  O75  1  0.162848  0.461344  0.288689  1
  O  O76  1  0.162740  0.461428  0.202511  1
  O  O77  1  0.003357  0.251045  0.287370  1
  O  O78  1  0.319197  0.238102  0.283026  1
  O  O79  1  0.995921  0.873310  0.428880  1
  O  O80  1  0.500457  0.778191  0.428862  1
  O  O81  1  0.320607  0.881614  0.429080  1
  O  O82  1  0.833859  0.222366  0.428882  1
  O  O83  1  0.343865  0.118526  0.428910  1
  O  O84  1  0.162740  0.461428  0.429097  1
  Si  Si85  1  0.667256  -0.000000  0.371599  1
  Si  Si86  1  0.833802  0.585190  0.316008  1
  Si  Si87  1  0.834128  0.585085  0.259208  1
  Si  Si88  1  0.667141  0.746177  0.313706  1
  Si  Si89  1  0.667192  -0.000000  0.258569  1
  Si  Si90  1  0.666819  0.746327  0.370912  1
  Si  Si91  1  0.000000  0.747839  0.371355  1
  Si  Si92  1  0.500147  0.668127  0.372107  1
  Si  Si93  1  0.500150  0.668285  0.259602  1
  Si  Si94  1  0.500942  0.918965  0.316534  1
  Si  Si95  1  0.501163  0.918760  0.258989  1
  Si  Si96  1  0.333674  0.748896  0.371926  1
  Si  Si97  1  0.333948  0.748969  0.314799  1
  Si  Si98  1  0.167006  0.587300  0.316795  1
  Si  Si99  1  0.167273  0.587385  0.260022  1
  Si  Si100  1  0.000000  0.747875  0.314574  1
  Si  Si101  1  0.832908  0.082281  0.314488  1
  Si  Si102  1  0.832515  0.332208  0.259015  1
  Si  Si103  1  0.832920  0.082413  0.372040  1
  Si  Si104  1  0.832874  0.332183  0.370809  1
  Si  Si105  1  0.000000  0.250967  0.258575  1
  Si  Si106  1  0.000000  -0.000000  0.371534  1
  Si  Si107  1  0.498591  0.414286  0.314478  1
  Si  Si108  1  0.498878  0.414427  0.371260  1
  Si  Si109  1  0.665627  0.252770  0.316481  1
  Si  Si110  1  0.665308  0.252603  0.259286  1
  Si  Si111  1  0.334194  -0.000000  0.259592  1
  Si  Si112  1  0.334128  -0.000000  0.371709  1
  Si  Si113  1  0.167168  0.081343  0.371772  1
  Si  Si114  1  0.166037  0.332746  0.371572  1
  Si  Si115  1  0.165680  0.332682  0.258757  1
  Si  Si116  1  0.167287  0.081477  0.314349  1
  Si  Si117  1  0.332201  0.252614  0.316511  1
  Si  Si118  1  0.331827  0.252677  0.259414  1
  Si  Si119  1  -0.000000  0.250903  0.316095  1
  Si  Si120  1  0.000000  -0.000000  0.259824  1
  H  H121  1  0.678257  0.881245  0.184758  1
  H  H122  1  0.497195  0.538691  0.185536  1
  H  H123  1  0.836554  0.460577  0.185085  1
  H  H124  1  -0.000000  0.110972  0.185078  1
  H  H125  1  0.654481  0.118116  0.185500  1
  H  H126  1  0.165386  0.221878  0.185286  1
  H  H127  1  0.678257  0.881245  0.444601  1
  H  H128  1  0.995921  0.873310  0.185665  1
  H  H129  1  0.500457  0.778191  0.185648  1
  H  H130  1  0.497195  0.538691  0.445379  1
  H  H131  1  0.320607  0.881614  0.185865  1
  H  H132  1  0.833859  0.222366  0.185667  1
  H  H133  1  0.836554  0.460577  0.444928  1
  H  H134  1  -0.000000  0.110972  0.444922  1
  H  H135  1  0.654481  0.118116  0.445343  1
  H  H136  1  0.343865  0.118526  0.185696  1
  H  H137  1  0.165386  0.221878  0.445129  1
  H  H138  1  0.162740  0.461428  0.185883  1
  H  H139  1  0.995921  0.873310  0.445508  1
  H  H140  1  0.500457  0.778191  0.445491  1
  H  H141  1  0.320607  0.881614  0.445708  1
  H  H142  1  0.833859  0.222366  0.445510  1
  H  H143  1  0.343865  0.118526  0.445539  1
  H  H144  1  0.162740  0.461428  0.445726  1
