# generated using pymatgen
data_Si4H2O9
_symmetry_space_group_name_H-M   'P 1'
_cell_length_a   16.71070141
_cell_length_b   16.71283265
_cell_length_c   48.25290972
_cell_angle_alpha   134.99097192
_cell_angle_beta   134.99827743
_cell_angle_gamma   60.00620696
_symmetry_Int_Tables_number   1
_chemical_formula_structural   Si4H2O9
_chemical_formula_sum   'Si24 H12 O54'
_cell_volume   6739.37670298
_cell_formula_units_Z   6
loop_
 _symmetry_equiv_pos_site_id
 _symmetry_equiv_pos_as_xyz
  1  'x, y, z'
loop_
 _atom_site_type_symbol
 _atom_site_label
 _atom_site_symmetry_multiplicity
 _atom_site_fract_x
 _atom_site_fract_y
 _atom_site_fract_z
 _atom_site_occupancy
  O  O1  1  0.106089  0.106267  0.335602  1
  O  O2  1  0.349011  0.106276  0.335610  1
  O  O3  1  0.106091  0.106275  0.409508  1
  O  O4  1  0.349015  0.106273  0.283600  1
  O  O5  1  0.290477  0.290649  0.340418  1
  O  O6  1  0.290453  0.000000  0.340410  1
  O  O7  1  0.213133  0.000000  0.372763  1
  O  O8  1  0.290457  0.000000  0.198110  1
  O  O9  1  0.499896  0.000000  0.268326  1
  O  O10  1  0.499893  0.213362  0.372774  1
  O  O11  1  0.499892  0.000000  0.372767  1
  O  O12  1  0.213252  0.500071  0.372791  1
  O  O13  1  0.106110  0.349271  0.335637  1
  O  O14  1  0.106116  0.650867  0.409494  1
  O  O15  1  0.106109  0.349277  0.283618  1
  O  O16  1  0.106112  0.650871  0.357474  1
  O  O17  1  0.290481  0.709494  0.198111  1
  O  O18  1  0.106091  0.893872  0.283594  1
  O  O19  1  0.349013  0.893872  0.283599  1
  O  O20  1  0.106092  0.893879  0.357499  1
  O  O21  1  0.349014  0.893869  0.231587  1
  O  O22  1  0.499895  0.786785  0.268318  1
  O  O23  1  0.000000  0.213338  0.372768  1
  O  O24  1  0.650775  0.106279  0.409506  1
  O  O25  1  0.893698  0.106264  0.283593  1
  O  O26  1  0.893698  0.106273  0.357498  1
  O  O27  1  0.650776  0.106274  0.357494  1
  O  O28  1  0.709306  0.290653  0.198106  1
  O  O29  1  0.709337  0.000000  0.300683  1
  O  O30  1  0.709333  0.000000  0.198109  1
  O  O31  1  -0.000000  0.290651  0.198106  1
  O  O32  1  0.786656  0.000000  0.268329  1
  O  O33  1  -0.000000  0.290639  0.340415  1
  O  O34  1  0.786535  0.500075  0.268301  1
  O  O35  1  0.893675  0.349274  0.283618  1
  O  O36  1  0.893679  0.650869  0.357475  1
  O  O37  1  0.893676  0.650875  0.305455  1
  O  O38  1  0.893673  0.349279  0.231599  1
  O  O39  1  -0.000000  0.500067  0.372790  1
  O  O40  1  -0.000000  0.500078  0.268302  1
  O  O41  1  0.709311  0.709498  0.300675  1
  O  O42  1  -0.000000  0.709505  0.300677  1
  O  O43  1  0.650777  0.893870  0.305482  1
  O  O44  1  0.650773  0.893875  0.357494  1
  O  O45  1  0.893698  0.893868  0.231583  1
  O  O46  1  0.893701  0.893878  0.305490  1
  O  O47  1  -0.000000  0.786806  0.268325  1
  O  O48  1  -0.000000  0.709493  0.198112  1
  O  O49  1  0.290457  0.000000  0.442984  1
  O  O50  1  0.290481  0.709494  0.442985  1
  O  O51  1  0.709306  0.290653  0.442981  1
  O  O52  1  0.709333  0.000000  0.442983  1
  O  O53  1  0.000000  0.290651  0.442980  1
  O  O54  1  0.000000  0.709493  0.442987  1
  Si  Si55  1  0.369701  0.184212  0.333755  1
  Si  Si56  1  0.369700  0.000000  0.333749  1
  Si  Si57  1  0.184002  0.000000  0.397513  1
  Si  Si58  1  0.369703  0.000000  0.243581  1
  Si  Si59  1  0.184000  0.000000  0.333746  1
  Si  Si60  1  0.184047  0.630227  0.397513  1
  Si  Si61  1  0.184044  0.369916  0.333766  1
  Si  Si62  1  0.369703  0.815932  0.243574  1
  Si  Si63  1  0.630085  0.184214  0.397518  1
  Si  Si64  1  0.000000  0.184199  0.333750  1
  Si  Si65  1  0.000000  0.184206  0.397517  1
  Si  Si66  1  0.630089  0.000000  0.307344  1
  Si  Si67  1  0.630086  0.000000  0.397512  1
  Si  Si68  1  0.815788  0.000000  0.243579  1
  Si  Si69  1  0.815790  0.000000  0.307347  1
  Si  Si70  1  -0.000000  0.630224  0.397512  1
  Si  Si71  1  0.815744  0.630230  0.307326  1
  Si  Si72  1  0.815740  0.369919  0.243579  1
  Si  Si73  1  0.000000  0.630232  0.307327  1
  Si  Si74  1  0.000000  0.369921  0.243580  1
  Si  Si75  1  -0.000000  0.369913  0.333765  1
  Si  Si76  1  0.630086  0.815934  0.307337  1
  Si  Si77  1  -0.000000  0.815946  0.307343  1
  Si  Si78  1  -0.000000  0.815938  0.243575  1
  H  H79  1  0.290457  0.000000  0.179458  1
  H  H80  1  0.290481  0.709494  0.179459  1
  H  H81  1  0.709306  0.290653  0.179455  1
  H  H82  1  0.709333  0.000000  0.179457  1
  H  H83  1  -0.000000  0.290651  0.179454  1
  H  H84  1  -0.000000  0.709493  0.179461  1
  H  H85  1  0.290457  0.000000  0.461635  1
  H  H86  1  0.290481  0.709494  0.461637  1
  H  H87  1  0.709306  0.290653  0.461632  1
  H  H88  1  0.709333  0.000000  0.461635  1
  H  H89  1  0.000000  0.290651  0.461632  1
  H  H90  1  -0.000000  0.709493  0.461638  1
