# generated using pymatgen
data_Si9H2O19
_symmetry_space_group_name_H-M   'P 1'
_cell_length_a   15.37087820
_cell_length_b   21.24173166
_cell_length_c   78.65092057
_cell_angle_alpha   149.99926665
_cell_angle_beta   90.00000000
_cell_angle_gamma   90.00000000
_symmetry_Int_Tables_number   1
_chemical_formula_structural   Si9H2O19
_chemical_formula_sum   'Si108 H24 O228'
_cell_volume   12840.2074895
_cell_formula_units_Z   12
loop_
 _symmetry_equiv_pos_site_id
 _symmetry_equiv_pos_as_xyz
  1  'x, y, z'
loop_
 _atom_site_type_symbol
 _atom_site_label
 _atom_site_symmetry_multiplicity
 _atom_site_fract_x
 _atom_site_fract_y
 _atom_site_fract_z
 _atom_site_occupancy
  O  O1  1  0.678257  0.881245  0.138584  1
  O  O2  1  0.497195  0.538691  0.139119  1
  O  O3  1  0.836554  0.460577  0.138809  1
  O  O4  1  -0.000000  0.110972  0.138805  1
  O  O5  1  0.654481  0.118116  0.139095  1
  O  O6  1  0.165386  0.221878  0.138947  1
  O  O7  1  0.917361  0.665458  0.239704  1
  O  O8  1  0.917905  0.664962  0.193622  1
  O  O9  1  0.834324  0.554565  0.190768  1
  O  O10  1  0.750031  0.665077  0.239701  1
  O  O11  1  0.750564  0.665307  0.193548  1
  O  O12  1  0.995816  0.873425  0.235622  1
  O  O13  1  0.678257  0.881245  0.294509  1
  O  O14  1  0.678473  0.881071  0.239709  1
  O  O15  1  0.995921  0.873310  0.139209  1
  O  O16  1  0.418499  0.982237  0.185197  1
  O  O17  1  0.585431  0.979853  0.184941  1
  O  O18  1  0.418305  0.982431  0.240560  1
  O  O19  1  0.585290  0.979996  0.239639  1
  O  O20  1  0.654393  0.759447  0.238641  1
  O  O21  1  0.344258  0.766357  0.240364  1
  O  O22  1  0.584430  0.684017  0.248808  1
  O  O23  1  0.417551  0.687544  0.249257  1
  O  O24  1  0.584971  0.683473  0.193034  1
  O  O25  1  0.418078  0.688083  0.194760  1
  O  O26  1  0.500250  0.778451  0.191118  1
  O  O27  1  0.500457  0.778191  0.139197  1
  O  O28  1  0.499817  0.925367  0.199544  1
  O  O29  1  0.498162  0.538272  0.234858  1
  O  O30  1  0.497195  0.538691  0.295044  1
  O  O31  1  0.084941  0.670761  0.241149  1
  O  O32  1  0.085456  0.671373  0.194953  1
  O  O33  1  0.165678  0.558034  0.191612  1
  O  O34  1  0.252027  0.664286  0.239581  1
  O  O35  1  0.252529  0.663918  0.193280  1
  O  O36  1  0.320725  0.881651  0.239368  1
  O  O37  1  0.320607  0.881614  0.139346  1
  O  O38  1  -0.000000  0.778501  0.243179  1
  O  O39  1  0.918345  0.020663  0.248596  1
  O  O40  1  0.915217  0.313432  0.239297  1
  O  O41  1  0.914519  0.313215  0.185380  1
  O  O42  1  0.918447  0.020539  0.195026  1
  O  O43  1  0.833859  0.222366  0.139210  1
  O  O44  1  0.833968  0.222242  0.242779  1
  O  O45  1  0.751059  0.018295  0.249111  1
  O  O46  1  0.748074  0.316141  0.240590  1
  O  O47  1  0.747444  0.316377  0.185297  1
  O  O48  1  0.751128  0.018135  0.193297  1
  O  O49  1  0.829103  0.079726  0.235599  1
  O  O50  1  0.836518  0.460659  0.198771  1
  O  O51  1  0.836554  0.460577  0.294734  1
  O  O52  1  0.677977  0.238340  0.194749  1
  O  O53  1  -0.000000  0.110972  0.294730  1
  O  O54  1  -0.000000  0.110918  0.191178  1
  O  O55  1  0.414986  0.334058  0.194207  1
  O  O56  1  0.499024  0.444625  0.243022  1
  O  O57  1  0.654481  0.118116  0.295020  1
  O  O58  1  0.654397  0.118411  0.194263  1
  O  O59  1  0.343865  0.118526  0.139230  1
  O  O60  1  0.343946  0.118388  0.194312  1
  O  O61  1  0.582610  0.334441  0.240293  1
  O  O62  1  0.415710  0.333324  0.239969  1
  O  O63  1  0.581921  0.333575  0.193998  1
  O  O64  1  0.085721  0.015858  0.248614  1
  O  O65  1  0.082885  0.314559  0.240190  1
  O  O66  1  0.082170  0.314829  0.185046  1
  O  O67  1  0.085910  0.015919  0.192872  1
  O  O68  1  0.165386  0.221878  0.294872  1
  O  O69  1  0.165523  0.221990  0.243003  1
  O  O70  1  0.252711  0.020870  0.248814  1
  O  O71  1  0.250193  0.316360  0.240838  1
  O  O72  1  0.249504  0.315990  0.185269  1
  O  O73  1  0.252891  0.021025  0.195081  1
  O  O74  1  0.162092  0.077751  0.235220  1
  O  O75  1  0.162848  0.461344  0.198661  1
  O  O76  1  0.162740  0.461428  0.139358  1
  O  O77  1  0.003357  0.251045  0.197753  1
  O  O78  1  0.319197  0.238102  0.194764  1
  O  O79  1  0.917361  0.665458  0.395629  1
  O  O80  1  0.917905  0.664962  0.349547  1
  O  O81  1  0.834324  0.554565  0.346693  1
  O  O82  1  0.750031  0.665077  0.395626  1
  O  O83  1  0.750564  0.665307  0.349473  1
  O  O84  1  0.995816  0.873425  0.391548  1
  O  O85  1  0.678257  0.881245  0.450434  1
  O  O86  1  0.678473  0.881071  0.395634  1
  O  O87  1  0.995921  0.873310  0.295134  1
  O  O88  1  0.418499  0.982237  0.341122  1
  O  O89  1  0.585431  0.979853  0.340866  1
  O  O90  1  0.418305  0.982431  0.396485  1
  O  O91  1  0.585290  0.979996  0.395564  1
  O  O92  1  0.654393  0.759447  0.394567  1
  O  O93  1  0.344258  0.766357  0.396289  1
  O  O94  1  0.584430  0.684017  0.404733  1
  O  O95  1  0.417551  0.687544  0.405182  1
  O  O96  1  0.584971  0.683473  0.348959  1
  O  O97  1  0.418078  0.688083  0.350685  1
  O  O98  1  0.500250  0.778451  0.347043  1
  O  O99  1  0.500457  0.778191  0.295122  1
  O  O100  1  0.499817  0.925367  0.355469  1
  O  O101  1  0.498162  0.538272  0.390783  1
  O  O102  1  0.497195  0.538691  0.450969  1
  O  O103  1  0.084941  0.670761  0.397074  1
  O  O104  1  0.085456  0.671373  0.350879  1
  O  O105  1  0.165678  0.558034  0.347537  1
  O  O106  1  0.252027  0.664286  0.395506  1
  O  O107  1  0.252529  0.663918  0.349205  1
  O  O108  1  0.320725  0.881651  0.395293  1
  O  O109  1  0.320607  0.881614  0.295271  1
  O  O110  1  -0.000000  0.778501  0.399104  1
  O  O111  1  0.918345  0.020663  0.404521  1
  O  O112  1  0.915217  0.313432  0.395223  1
  O  O113  1  0.914519  0.313215  0.341305  1
  O  O114  1  0.918447  0.020539  0.350951  1
  O  O115  1  0.833859  0.222366  0.295135  1
  O  O116  1  0.833968  0.222242  0.398704  1
  O  O117  1  0.751059  0.018295  0.405036  1
  O  O118  1  0.748074  0.316141  0.396515  1
  O  O119  1  0.747444  0.316377  0.341222  1
  O  O120  1  0.751128  0.018135  0.349222  1
  O  O121  1  0.829103  0.079726  0.391524  1
  O  O122  1  0.836518  0.460659  0.354696  1
  O  O123  1  0.836554  0.460577  0.450659  1
  O  O124  1  0.677977  0.238340  0.350674  1
  O  O125  1  -0.000000  0.110972  0.450655  1
  O  O126  1  0.000000  0.110918  0.347103  1
  O  O127  1  0.414986  0.334058  0.350132  1
  O  O128  1  0.499024  0.444625  0.398947  1
  O  O129  1  0.654481  0.118116  0.450945  1
  O  O130  1  0.654397  0.118411  0.350188  1
  O  O131  1  0.343865  0.118526  0.295155  1
  O  O132  1  0.343946  0.118388  0.350237  1
  O  O133  1  0.582610  0.334441  0.396218  1
  O  O134  1  0.415710  0.333324  0.395894  1
  O  O135  1  0.581921  0.333575  0.349923  1
  O  O136  1  0.085721  0.015858  0.404539  1
  O  O137  1  0.082885  0.314559  0.396115  1
  O  O138  1  0.082170  0.314829  0.340971  1
  O  O139  1  0.085910  0.015919  0.348797  1
  O  O140  1  0.165386  0.221878  0.450797  1
  O  O141  1  0.165523  0.221990  0.398928  1
  O  O142  1  0.252711  0.020870  0.404739  1
  O  O143  1  0.250193  0.316360  0.396763  1
  O  O144  1  0.249504  0.315990  0.341194  1
  O  O145  1  0.252891  0.021025  0.351006  1
  O  O146  1  0.162092  0.077751  0.391146  1
  O  O147  1  0.162848  0.461344  0.354586  1
  O  O148  1  0.162740  0.461428  0.295283  1
  O  O149  1  0.003357  0.251045  0.353678  1
  O  O150  1  0.319197  0.238102  0.350689  1
  O  O151  1  0.917361  0.665458  0.551554  1
  O  O152  1  0.917905  0.664962  0.505472  1
  O  O153  1  0.834324  0.554565  0.502618  1
  O  O154  1  0.750031  0.665077  0.551551  1
  O  O155  1  0.750564  0.665307  0.505399  1
  O  O156  1  0.995816  0.873425  0.547473  1
  O  O157  1  0.678257  0.881245  0.606359  1
  O  O158  1  0.678473  0.881071  0.551559  1
  O  O159  1  0.995921  0.873310  0.451059  1
  O  O160  1  0.418499  0.982237  0.497047  1
  O  O161  1  0.585431  0.979853  0.496791  1
  O  O162  1  0.418305  0.982431  0.552410  1
  O  O163  1  0.585290  0.979996  0.551489  1
  O  O164  1  0.654393  0.759447  0.550492  1
  O  O165  1  0.344258  0.766357  0.552214  1
  O  O166  1  0.584430  0.684017  0.560658  1
  O  O167  1  0.417551  0.687544  0.561107  1
  O  O168  1  0.584971  0.683473  0.504884  1
  O  O169  1  0.418078  0.688083  0.506610  1
  O  O170  1  0.500250  0.778451  0.502968  1
  O  O171  1  0.500457  0.778191  0.451047  1
  O  O172  1  0.499817  0.925367  0.511394  1
  O  O173  1  0.498162  0.538272  0.546708  1
  O  O174  1  0.497195  0.538691  0.606894  1
  O  O175  1  0.084941  0.670761  0.552999  1
  O  O176  1  0.085456  0.671373  0.506804  1
  O  O177  1  0.165678  0.558034  0.503462  1
  O  O178  1  0.252027  0.664286  0.551431  1
  O  O179  1  0.252529  0.663918  0.505130  1
  O  O180  1  0.320725  0.881651  0.551218  1
  O  O181  1  0.320607  0.881614  0.451196  1
  O  O182  1  -0.000000  0.778501  0.555029  1
  O  O183  1  0.918345  0.020663  0.560446  1
  O  O184  1  0.915217  0.313432  0.551148  1
  O  O185  1  0.914519  0.313215  0.497230  1
  O  O186  1  0.918447  0.020539  0.506877  1
  O  O187  1  0.833859  0.222366  0.451060  1
  O  O188  1  0.833968  0.222242  0.554629  1
  O  O189  1  0.751059  0.018295  0.560961  1
  O  O190  1  0.748074  0.316141  0.552440  1
  O  O191  1  0.747444  0.316377  0.497147  1
  O  O192  1  0.751128  0.018135  0.505147  1
  O  O193  1  0.829103  0.079726  0.547449  1
  O  O194  1  0.836518  0.460659  0.510621  1
  O  O195  1  0.836554  0.460577  0.606584  1
  O  O196  1  0.677977  0.238340  0.506599  1
  O  O197  1  0.000000  0.110972  0.606580  1
  O  O198  1  0.000000  0.110918  0.503028  1
  O  O199  1  0.414986  0.334058  0.506057  1
  O  O200  1  0.499024  0.444625  0.554872  1
  O  O201  1  0.654481  0.118116  0.606870  1
  O  O202  1  0.654397  0.118411  0.506113  1
  O  O203  1  0.343865  0.118526  0.451080  1
  O  O204  1  0.343946  0.118388  0.506162  1
  O  O205  1  0.582610  0.334441  0.552143  1
  O  O206  1  0.415710  0.333324  0.551819  1
  O  O207  1  0.581921  0.333575  0.505848  1
  O  O208  1  0.085721  0.015858  0.560464  1
  O  O209  1  0.082885  0.314559  0.552040  1
  O  O210  1  0.082170  0.314829  0.496896  1
  O  O211  1  0.085910  0.015919  0.504722  1
  O  O212  1  0.165386  0.221878  0.606723  1
  O  O213  1  0.165523  0.221990  0.554853  1
  O  O214  1  0.252711  0.020870  0.560664  1
  O  O215  1  0.250193  0.316360  0.552688  1
  O  O216  1  0.249504  0.315990  0.497119  1
  O  O217  1  0.252891  0.021025  0.506931  1
  O  O218  1  0.162092  0.077751  0.547071  1
  O  O219  1  0.162848  0.461344  0.510511  1
  O  O220  1  0.162740  0.461428  0.451208  1
  O  O221  1  0.003357  0.251045  0.509604  1
  O  O222  1  0.319197  0.238102  0.506614  1
  O  O223  1  0.995921  0.873310  0.606984  1
  O  O224  1  0.500457  0.778191  0.606972  1
  O  O225  1  0.320607  0.881614  0.607121  1
  O  O226  1  0.833859  0.222366  0.606985  1
  O  O227  1  0.343865  0.118526  0.607005  1
  O  O228  1  0.162740  0.461428  0.607133  1
  Si  Si229  1  0.667256  0.000000  0.255716  1
  Si  Si230  1  0.833802  0.585190  0.217461  1
  Si  Si231  1  0.834128  0.585085  0.178374  1
  Si  Si232  1  0.667141  0.746177  0.215877  1
  Si  Si233  1  0.667192  0.000000  0.177934  1
  Si  Si234  1  0.666819  0.746327  0.255243  1
  Si  Si235  1  -0.000000  0.747839  0.255548  1
  Si  Si236  1  0.500147  0.668127  0.256065  1
  Si  Si237  1  0.500150  0.668285  0.178645  1
  Si  Si238  1  0.500942  0.918965  0.217823  1
  Si  Si239  1  0.501163  0.918760  0.178223  1
  Si  Si240  1  0.333674  0.748896  0.255941  1
  Si  Si241  1  0.333948  0.748969  0.216629  1
  Si  Si242  1  0.167006  0.587300  0.218002  1
  Si  Si243  1  0.167273  0.587385  0.178934  1
  Si  Si244  1  -0.000000  0.747875  0.216474  1
  Si  Si245  1  0.832908  0.082281  0.216415  1
  Si  Si246  1  0.832515  0.332208  0.178241  1
  Si  Si247  1  0.832920  0.082413  0.256019  1
  Si  Si248  1  0.832874  0.332183  0.255173  1
  Si  Si249  1  -0.000000  0.250967  0.177938  1
  Si  Si250  1  0.000000  -0.000000  0.255671  1
  Si  Si251  1  0.498591  0.414286  0.216408  1
  Si  Si252  1  0.498878  0.414427  0.255482  1
  Si  Si253  1  0.665627  0.252770  0.217786  1
  Si  Si254  1  0.665308  0.252603  0.178428  1
  Si  Si255  1  0.334194  -0.000000  0.178638  1
  Si  Si256  1  0.334128  -0.000000  0.255792  1
  Si  Si257  1  0.167168  0.081343  0.255835  1
  Si  Si258  1  0.166037  0.332746  0.255697  1
  Si  Si259  1  0.165680  0.332682  0.178064  1
  Si  Si260  1  0.167287  0.081477  0.216319  1
  Si  Si261  1  0.332201  0.252614  0.217807  1
  Si  Si262  1  0.331827  0.252677  0.178516  1
  Si  Si263  1  0.000000  0.250903  0.217521  1
  Si  Si264  1  -0.000000  0.000000  0.178798  1
  Si  Si265  1  0.667256  -0.000000  0.411641  1
  Si  Si266  1  0.833802  0.585190  0.373386  1
  Si  Si267  1  0.834128  0.585085  0.334299  1
  Si  Si268  1  0.667141  0.746177  0.371802  1
  Si  Si269  1  0.667192  0.000000  0.333859  1
  Si  Si270  1  0.666819  0.746327  0.411168  1
  Si  Si271  1  0.000000  0.747839  0.411473  1
  Si  Si272  1  0.500147  0.668127  0.411990  1
  Si  Si273  1  0.500150  0.668285  0.334570  1
  Si  Si274  1  0.500942  0.918965  0.373748  1
  Si  Si275  1  0.501163  0.918760  0.334148  1
  Si  Si276  1  0.333674  0.748896  0.411866  1
  Si  Si277  1  0.333948  0.748969  0.372554  1
  Si  Si278  1  0.167006  0.587300  0.373927  1
  Si  Si279  1  0.167273  0.587385  0.334859  1
  Si  Si280  1  -0.000000  0.747875  0.372399  1
  Si  Si281  1  0.832908  0.082281  0.372340  1
  Si  Si282  1  0.832515  0.332208  0.334166  1
  Si  Si283  1  0.832920  0.082413  0.411945  1
  Si  Si284  1  0.832874  0.332183  0.411098  1
  Si  Si285  1  -0.000000  0.250967  0.333863  1
  Si  Si286  1  0.000000  -0.000000  0.411596  1
  Si  Si287  1  0.498591  0.414286  0.372333  1
  Si  Si288  1  0.498878  0.414427  0.411408  1
  Si  Si289  1  0.665627  0.252770  0.373711  1
  Si  Si290  1  0.665308  0.252603  0.334353  1
  Si  Si291  1  0.334194  -0.000000  0.334563  1
  Si  Si292  1  0.334128  0.000000  0.411717  1
  Si  Si293  1  0.167168  0.081343  0.411760  1
  Si  Si294  1  0.166037  0.332746  0.411622  1
  Si  Si295  1  0.165680  0.332682  0.333989  1
  Si  Si296  1  0.167287  0.081477  0.372244  1
  Si  Si297  1  0.332201  0.252614  0.373732  1
  Si  Si298  1  0.331827  0.252677  0.334441  1
  Si  Si299  1  -0.000000  0.250903  0.373446  1
  Si  Si300  1  0.000000  -0.000000  0.334723  1
  Si  Si301  1  0.667256  0.000000  0.567566  1
  Si  Si302  1  0.833802  0.585190  0.529311  1
  Si  Si303  1  0.834128  0.585085  0.490224  1
  Si  Si304  1  0.667141  0.746177  0.527727  1
  Si  Si305  1  0.667192  0.000000  0.489784  1
  Si  Si306  1  0.666819  0.746327  0.567093  1
  Si  Si307  1  -0.000000  0.747839  0.567398  1
  Si  Si308  1  0.500147  0.668127  0.567915  1
  Si  Si309  1  0.500150  0.668285  0.490495  1
  Si  Si310  1  0.500942  0.918965  0.529673  1
  Si  Si311  1  0.501163  0.918760  0.490073  1
  Si  Si312  1  0.333674  0.748896  0.567791  1
  Si  Si313  1  0.333948  0.748969  0.528479  1
  Si  Si314  1  0.167006  0.587300  0.529852  1
  Si  Si315  1  0.167273  0.587385  0.490784  1
  Si  Si316  1  -0.000000  0.747875  0.528324  1
  Si  Si317  1  0.832908  0.082281  0.528265  1
  Si  Si318  1  0.832515  0.332208  0.490092  1
  Si  Si319  1  0.832920  0.082413  0.567870  1
  Si  Si320  1  0.832874  0.332183  0.567023  1
  Si  Si321  1  -0.000000  0.250967  0.489788  1
  Si  Si322  1  -0.000000  0.000000  0.567521  1
  Si  Si323  1  0.498591  0.414286  0.528258  1
  Si  Si324  1  0.498878  0.414427  0.567333  1
  Si  Si325  1  0.665627  0.252770  0.529636  1
  Si  Si326  1  0.665308  0.252603  0.490278  1
  Si  Si327  1  0.334194  -0.000000  0.490488  1
  Si  Si328  1  0.334128  0.000000  0.567642  1
  Si  Si329  1  0.167168  0.081343  0.567685  1
  Si  Si330  1  0.166037  0.332746  0.567547  1
  Si  Si331  1  0.165680  0.332682  0.489914  1
  Si  Si332  1  0.167287  0.081477  0.528169  1
  Si  Si333  1  0.332201  0.252614  0.529657  1
  Si  Si334  1  0.331827  0.252677  0.490366  1
  Si  Si335  1  0.000000  0.250903  0.529371  1
  Si  Si336  1  0.000000  -0.000000  0.490648  1
  H  H337  1  0.678257  0.881245  0.127141  1
  H  H338  1  0.497195  0.538691  0.127676  1
  H  H339  1  0.836554  0.460577  0.127366  1
  H  H340  1  -0.000000  0.110972  0.127362  1
  H  H341  1  0.654481  0.118116  0.127652  1
  H  H342  1  0.165386  0.221878  0.127504  1
  H  H343  1  0.995921  0.873310  0.127766  1
  H  H344  1  0.500457  0.778191  0.127754  1
  H  H345  1  0.320607  0.881614  0.127903  1
  H  H346  1  0.833859  0.222366  0.127767  1
  H  H347  1  0.343865  0.118526  0.127787  1
  H  H348  1  0.162740  0.461428  0.127915  1
  H  H349  1  0.678257  0.881245  0.617802  1
  H  H350  1  0.497195  0.538691  0.618337  1
  H  H351  1  0.836554  0.460577  0.618027  1
  H  H352  1  0.000000  0.110972  0.618023  1
  H  H353  1  0.654481  0.118116  0.618313  1
  H  H354  1  0.165386  0.221878  0.618165  1
  H  H355  1  0.995921  0.873310  0.618427  1
  H  H356  1  0.500457  0.778191  0.618415  1
  H  H357  1  0.320607  0.881614  0.618564  1
  H  H358  1  0.833859  0.222366  0.618428  1
  H  H359  1  0.343865  0.118526  0.618448  1
  H  H360  1  0.162740  0.461428  0.618576  1
