# generated using pymatgen
data_Si18H2O37
_symmetry_space_group_name_H-M   'P 1'
_cell_length_a   18.16750812
_cell_length_b   7.56987855
_cell_length_c   43.07016473
_cell_angle_alpha   90.00000000
_cell_angle_beta   120.00000000
_cell_angle_gamma   90.00000000
_symmetry_Int_Tables_number   1
_chemical_formula_structural   Si18H2O37
_chemical_formula_sum   'Si36 H4 O74'
_cell_volume   5129.69376583
_cell_formula_units_Z   2
loop_
 _symmetry_equiv_pos_site_id
 _symmetry_equiv_pos_as_xyz
  1  'x, y, z'
loop_
 _atom_site_type_symbol
 _atom_site_label
 _atom_site_symmetry_multiplicity
 _atom_site_fract_x
 _atom_site_fract_y
 _atom_site_fract_z
 _atom_site_occupancy
  O  O1  1  0.289832  0.500161  0.154945  1
  O  O2  1  0.709899  0.500161  0.154969  1
  O  O3  1  0.519352  0.221791  0.264535  1
  O  O4  1  0.740101  0.221791  0.357692  1
  O  O5  1  0.740038  0.221798  0.264534  1
  O  O6  1  0.480422  0.221791  0.467359  1
  O  O7  1  0.259725  0.221803  0.374224  1
  O  O8  1  0.259684  0.221786  0.467359  1
  O  O9  1  0.480422  0.778532  0.467359  1
  O  O10  1  0.259725  0.778519  0.374224  1
  O  O11  1  0.259684  0.778537  0.467359  1
  O  O12  1  0.519352  0.778532  0.264535  1
  O  O13  1  0.740101  0.778532  0.357692  1
  O  O14  1  0.740038  0.778524  0.264534  1
  O  O15  1  0.420705  0.333045  0.202156  1
  O  O16  1  0.690745  0.333047  0.399269  1
  O  O17  1  0.887956  0.333037  0.285355  1
  O  O18  1  0.579012  0.333045  0.529742  1
  O  O19  1  0.309053  0.333047  0.332641  1
  O  O20  1  0.111786  0.333043  0.446537  1
  O  O21  1  0.887989  0.333049  0.399266  1
  O  O22  1  0.420780  0.333040  0.285345  1
  O  O23  1  0.690807  0.333046  0.202155  1
  O  O24  1  0.111817  0.333044  0.332639  1
  O  O25  1  0.579050  0.333040  0.446576  1
  O  O26  1  0.308942  0.333046  0.529745  1
  O  O27  1  0.579012  0.667278  0.529742  1
  O  O28  1  0.309053  0.667275  0.332641  1
  O  O29  1  0.111786  0.667280  0.446537  1
  O  O30  1  0.420705  0.667277  0.202156  1
  O  O31  1  0.690745  0.667276  0.399269  1
  O  O32  1  0.887956  0.667285  0.285355  1
  O  O33  1  0.111817  0.667279  0.332639  1
  O  O34  1  0.579050  0.667282  0.446576  1
  O  O35  1  0.308942  0.667277  0.529745  1
  O  O36  1  0.887989  0.667273  0.399266  1
  O  O37  1  0.420780  0.667283  0.285345  1
  O  O38  1  0.690807  0.667276  0.202155  1
  O  O39  1  0.578685  0.246065  0.221500  1
  O  O40  1  0.578757  0.246069  0.332611  1
  O  O41  1  0.842000  0.246068  0.332610  1
  O  O42  1  0.421023  0.246073  0.510375  1
  O  O43  1  0.421083  0.246062  0.399293  1
  O  O44  1  0.157774  0.246069  0.399285  1
  O  O45  1  0.421023  0.754250  0.510375  1
  O  O46  1  0.421083  0.754261  0.399293  1
  O  O47  1  0.157774  0.754254  0.399285  1
  O  O48  1  0.578685  0.754257  0.221501  1
  O  O49  1  0.578757  0.754253  0.332611  1
  O  O50  1  0.842000  0.754254  0.332610  1
  O  O51  1  0.474743  -0.000000  0.214526  1
  O  O52  1  0.666089  -0.000000  0.376474  1
  O  O53  1  0.858573  -0.000000  0.295753  1
  O  O54  1  0.524969  -0.000000  0.517363  1
  O  O55  1  0.333725  -0.000000  0.355436  1
  O  O56  1  0.141146  0.000000  0.436129  1
  O  O57  1  0.858641  -0.000000  0.376471  1
  O  O58  1  0.474815  -0.000000  0.295750  1
  O  O59  1  0.666092  -0.000000  0.214526  1
  O  O60  1  0.141187  0.000000  0.355434  1
  O  O61  1  0.525020  -0.000000  0.436164  1
  O  O62  1  0.333641  -0.000000  0.517367  1
  O  O63  1  0.289832  0.500161  0.576934  1
  O  O64  1  0.709881  0.500161  0.454533  1
  O  O65  1  -0.000000  0.500161  0.277393  1
  O  O66  1  0.709899  0.500161  0.576958  1
  O  O67  1  0.289936  0.500161  0.277388  1
  O  O68  1  0.000000  0.500161  0.454517  1
  O  O69  1  0.336435  0.500161  0.225981  1
  O  O70  1  0.831484  0.500161  0.434810  1
  O  O71  1  0.831571  0.500161  0.225996  1
  O  O72  1  0.663339  0.500161  0.505938  1
  O  O73  1  0.168301  0.500161  0.297096  1
  O  O74  1  0.168192  0.500161  0.505906  1
  Si  Si75  1  0.496961  0.202919  0.224179  1
  Si  Si76  1  0.666777  0.202919  0.367109  1
  Si  Si77  1  0.835688  0.202918  0.295468  1
  Si  Si78  1  0.502762  0.202920  0.507709  1
  Si  Si79  1  0.333044  0.202919  0.364803  1
  Si  Si80  1  0.164043  0.202916  0.436420  1
  Si  Si81  1  0.835747  0.202916  0.367104  1
  Si  Si82  1  0.497024  0.202918  0.295465  1
  Si  Si83  1  0.666758  0.202920  0.224177  1
  Si  Si84  1  0.164070  0.202919  0.364802  1
  Si  Si85  1  0.502801  0.202917  0.436444  1
  Si  Si86  1  0.332969  0.202920  0.507714  1
  Si  Si87  1  0.502762  0.797403  0.507709  1
  Si  Si88  1  0.333044  0.797403  0.364803  1
  Si  Si89  1  0.164043  0.797407  0.436420  1
  Si  Si90  1  0.496961  0.797404  0.224179  1
  Si  Si91  1  0.666777  0.797403  0.367109  1
  Si  Si92  1  0.835688  0.797404  0.295468  1
  Si  Si93  1  0.164070  0.797403  0.364802  1
  Si  Si94  1  0.502801  0.797406  0.436444  1
  Si  Si95  1  0.332969  0.797403  0.507714  1
  Si  Si96  1  0.835747  0.797406  0.367104  1
  Si  Si97  1  0.497024  0.797405  0.295465  1
  Si  Si98  1  0.666757  0.797402  0.224177  1
  Si  Si99  1  0.362803  0.500161  0.195916  1
  Si  Si100  1  0.733855  0.500161  0.423697  1
  Si  Si101  1  0.902800  0.500161  0.267188  1
  Si  Si102  1  0.636920  0.500161  0.535989  1
  Si  Si103  1  0.265936  0.500161  0.308215  1
  Si  Si104  1  0.096968  0.500161  0.464714  1
  Si  Si105  1  0.902755  0.500161  0.423690  1
  Si  Si106  1  0.362869  0.500161  0.267177  1
  Si  Si107  1  0.733935  0.500161  0.195924  1
  Si  Si108  1  0.097025  0.500161  0.308214  1
  Si  Si109  1  0.636956  0.500161  0.464749  1
  Si  Si110  1  0.265821  0.500161  0.535980  1
  H  H111  1  0.289832  0.500161  0.134049  1
  H  H112  1  0.709899  0.500161  0.134072  1
  H  H113  1  0.289832  0.500161  0.597830  1
  H  H114  1  0.709899  0.500161  0.597854  1
