# generated using pymatgen
data_Si6H2O13
_symmetry_space_group_name_H-M   'P 1'
_cell_length_a   7.63839237
_cell_length_b   19.20240711
_cell_length_c   45.47324532
_cell_angle_alpha   45.52683880
_cell_angle_beta   90.00000000
_cell_angle_gamma   75.07399054
_symmetry_Int_Tables_number   1
_chemical_formula_structural   Si6H2O13
_chemical_formula_sum   'Si24 H8 O52'
_cell_volume   4438.5656331
_cell_formula_units_Z   4
loop_
 _symmetry_equiv_pos_site_id
 _symmetry_equiv_pos_as_xyz
  1  'x, y, z'
loop_
 _atom_site_type_symbol
 _atom_site_label
 _atom_site_symmetry_multiplicity
 _atom_site_fract_x
 _atom_site_fract_y
 _atom_site_fract_z
 _atom_site_occupancy
  O  O1  1  0.222132  0.687962  0.324680  1
  O  O2  1  0.222133  0.187959  0.324681  1
  O  O3  1  0.222133  0.687959  0.244840  1
  O  O4  1  0.222131  0.187962  0.244840  1
  O  O5  1  0.315625  0.791032  0.254267  1
  O  O6  1  0.315625  0.291031  0.254268  1
  O  O7  1  0.712652  0.153569  0.205409  1
  O  O8  1  0.712655  0.653565  0.205409  1
  O  O9  1  0.287101  0.846568  0.296231  1
  O  O10  1  0.287103  0.346565  0.296232  1
  O  O11  1  0.287103  0.846565  0.179445  1
  O  O12  1  0.287101  0.346567  0.179446  1
  O  O13  1  0.552015  0.689088  0.323457  1
  O  O14  1  0.552018  0.189085  0.323458  1
  O  O15  1  0.552019  0.689084  0.245397  1
  O  O16  1  0.552016  0.189088  0.245396  1
  O  O17  1  0.913482  0.641849  0.254970  1
  O  O18  1  0.913481  0.141851  0.254970  1
  O  O19  1  0.086276  0.358282  0.338861  1
  O  O20  1  0.086273  0.858284  0.338860  1
  O  O21  1  0.770655  0.502321  0.289711  1
  O  O22  1  0.770653  0.002324  0.289711  1
  O  O23  1  0.229103  0.497809  0.291046  1
  O  O24  1  0.229100  0.997811  0.291045  1
  O  O25  1  0.139253  0.584300  0.315427  1
  O  O26  1  0.139253  0.084300  0.315427  1
  O  O27  1  0.777621  0.312173  0.435853  1
  O  O28  1  0.777624  0.812171  0.435853  1
  O  O29  1  0.777625  0.312172  0.356013  1
  O  O30  1  0.777622  0.812173  0.356012  1
  O  O31  1  0.684131  0.209102  0.426425  1
  O  O32  1  0.684131  0.709102  0.426424  1
  O  O33  1  0.712652  0.153569  0.501247  1
  O  O34  1  0.712655  0.653565  0.501247  1
  O  O35  1  0.287103  0.846565  0.475284  1
  O  O36  1  0.287101  0.346567  0.475284  1
  O  O37  1  0.712655  0.153565  0.384462  1
  O  O38  1  0.712652  0.653568  0.384460  1
  O  O39  1  0.447739  0.311047  0.435296  1
  O  O40  1  0.447740  0.811045  0.435296  1
  O  O41  1  0.447740  0.311045  0.357236  1
  O  O42  1  0.447739  0.811048  0.357235  1
  O  O43  1  0.086274  0.358284  0.425723  1
  O  O44  1  0.086277  0.858282  0.425723  1
  O  O45  1  0.913478  0.641852  0.341832  1
  O  O46  1  0.913480  0.141849  0.341833  1
  O  O47  1  0.229100  0.497811  0.390982  1
  O  O48  1  0.229104  0.997808  0.390983  1
  O  O49  1  0.770652  0.502325  0.389646  1
  O  O50  1  0.770655  0.002322  0.389648  1
  O  O51  1  0.860503  0.415833  0.365266  1
  O  O52  1  0.860503  0.915833  0.365266  1
  Si  Si53  1  0.340564  0.759103  0.297454  1
  Si  Si54  1  0.340566  0.259102  0.297456  1
  Si  Si55  1  0.340565  0.759103  0.229972  1
  Si  Si56  1  0.340563  0.259105  0.229972  1
  Si  Si57  1  0.735651  0.621615  0.248619  1
  Si  Si58  1  0.735653  0.121614  0.248621  1
  Si  Si59  1  0.264104  0.378517  0.320538  1
  Si  Si60  1  0.264099  0.878522  0.320536  1
  Si  Si61  1  0.126346  0.605944  0.275051  1
  Si  Si62  1  0.126344  0.105944  0.275051  1
  Si  Si63  1  0.873411  0.394187  0.337697  1
  Si  Si64  1  0.873410  0.894191  0.337696  1
  Si  Si65  1  0.659188  0.241032  0.450721  1
  Si  Si66  1  0.659192  0.741028  0.450722  1
  Si  Si67  1  0.659192  0.241027  0.383238  1
  Si  Si68  1  0.659189  0.741032  0.383237  1
  Si  Si69  1  0.264100  0.378522  0.432072  1
  Si  Si70  1  0.264105  0.878516  0.432074  1
  Si  Si71  1  0.735653  0.621614  0.360155  1
  Si  Si72  1  0.735653  0.121614  0.360157  1
  Si  Si73  1  0.873410  0.394191  0.405641  1
  Si  Si74  1  0.873411  0.894187  0.405642  1
  Si  Si75  1  0.126345  0.605944  0.342996  1
  Si  Si76  1  0.126347  0.105944  0.342996  1
  H  H77  1  0.712652  0.153569  0.185617  1
  H  H78  1  0.712655  0.653565  0.185617  1
  H  H79  1  0.287103  0.846565  0.159654  1
  H  H80  1  0.287101  0.346567  0.159654  1
  H  H81  1  0.712652  0.153569  0.521039  1
  H  H82  1  0.712655  0.653565  0.521039  1
  H  H83  1  0.287103  0.846565  0.495076  1
  H  H84  1  0.287101  0.346567  0.495076  1
