# generated using pymatgen
data_Si12H2O25
_symmetry_space_group_name_H-M   'P 1'
_cell_length_a   16.71070141
_cell_length_b   16.71283265
_cell_length_c   71.88469978
_cell_angle_alpha   134.99097192
_cell_angle_beta   134.99827743
_cell_angle_gamma   60.00620696
_symmetry_Int_Tables_number   1
_chemical_formula_structural   Si12H2O25
_chemical_formula_sum   'Si72 H12 O150'
_cell_volume   10039.9763209
_cell_formula_units_Z   6
loop_
 _symmetry_equiv_pos_site_id
 _symmetry_equiv_pos_as_xyz
  1  'x, y, z'
loop_
 _atom_site_type_symbol
 _atom_site_label
 _atom_site_symmetry_multiplicity
 _atom_site_fract_x
 _atom_site_fract_y
 _atom_site_fract_z
 _atom_site_occupancy
  O  O1  1  0.106089  0.106267  0.225275  1
  O  O2  1  0.349011  0.106276  0.225280  1
  O  O3  1  0.106091  0.106275  0.274884  1
  O  O4  1  0.349015  0.106273  0.190367  1
  O  O5  1  0.290477  0.290649  0.228507  1
  O  O6  1  0.290453  0.000000  0.228501  1
  O  O7  1  0.213133  -0.000000  0.250219  1
  O  O8  1  0.290457  0.000000  0.132982  1
  O  O9  1  0.499896  0.000000  0.180115  1
  O  O10  1  0.499893  0.213362  0.250226  1
  O  O11  1  0.499892  0.000000  0.250222  1
  O  O12  1  0.213252  0.500071  0.250238  1
  O  O13  1  0.106110  0.349271  0.225298  1
  O  O14  1  0.106116  0.650867  0.274874  1
  O  O15  1  0.106109  0.349277  0.190380  1
  O  O16  1  0.106112  0.650871  0.239956  1
  O  O17  1  0.290481  0.709494  0.132983  1
  O  O18  1  0.106091  0.893872  0.190364  1
  O  O19  1  0.349013  0.893872  0.190367  1
  O  O20  1  0.106092  0.893879  0.239973  1
  O  O21  1  0.349014  0.893869  0.155454  1
  O  O22  1  0.499895  0.786785  0.180110  1
  O  O23  1  0.000000  0.213338  0.250222  1
  O  O24  1  0.650775  0.106279  0.274883  1
  O  O25  1  0.893698  0.106264  0.190363  1
  O  O26  1  0.893698  0.106273  0.239972  1
  O  O27  1  0.650776  0.106274  0.239970  1
  O  O28  1  0.709306  0.290653  0.132980  1
  O  O29  1  0.709337  0.000000  0.201835  1
  O  O30  1  0.709333  0.000000  0.132982  1
  O  O31  1  0.000000  0.290651  0.132979  1
  O  O32  1  0.786656  0.000000  0.180117  1
  O  O33  1  0.000000  0.290639  0.228505  1
  O  O34  1  0.786535  0.500075  0.180098  1
  O  O35  1  0.893675  0.349274  0.190380  1
  O  O36  1  0.893679  0.650869  0.239956  1
  O  O37  1  0.893676  0.650875  0.205038  1
  O  O38  1  0.893673  0.349279  0.155462  1
  O  O39  1  0.000000  0.500067  0.250237  1
  O  O40  1  -0.000000  0.500078  0.180099  1
  O  O41  1  0.709311  0.709498  0.201829  1
  O  O42  1  0.000000  0.709505  0.201830  1
  O  O43  1  0.650777  0.893870  0.205056  1
  O  O44  1  0.650773  0.893875  0.239969  1
  O  O45  1  0.893698  0.893868  0.155451  1
  O  O46  1  0.893701  0.893878  0.205062  1
  O  O47  1  0.000000  0.786806  0.180114  1
  O  O48  1  0.000000  0.709493  0.132984  1
  O  O49  1  0.106089  0.106267  0.389647  1
  O  O50  1  0.349011  0.106276  0.389653  1
  O  O51  1  0.106091  0.106275  0.439257  1
  O  O52  1  0.349015  0.106273  0.354740  1
  O  O53  1  0.290477  0.290649  0.392880  1
  O  O54  1  0.290453  0.000000  0.392874  1
  O  O55  1  0.213133  -0.000000  0.414592  1
  O  O56  1  0.290457  0.000000  0.297355  1
  O  O57  1  0.499896  -0.000000  0.344488  1
  O  O58  1  0.499893  0.213362  0.414599  1
  O  O59  1  0.499892  0.000000  0.414595  1
  O  O60  1  0.213252  0.500071  0.414610  1
  O  O61  1  0.106110  0.349271  0.389670  1
  O  O62  1  0.106116  0.650867  0.439247  1
  O  O63  1  0.106109  0.349277  0.354753  1
  O  O64  1  0.106112  0.650871  0.404329  1
  O  O65  1  0.290481  0.709494  0.297356  1
  O  O66  1  0.106091  0.893872  0.354736  1
  O  O67  1  0.349013  0.893872  0.354740  1
  O  O68  1  0.106092  0.893879  0.404346  1
  O  O69  1  0.349014  0.893869  0.319827  1
  O  O70  1  0.499895  0.786785  0.344483  1
  O  O71  1  0.000000  0.213338  0.414595  1
  O  O72  1  0.650775  0.106279  0.439256  1
  O  O73  1  0.893698  0.106264  0.354736  1
  O  O74  1  0.893698  0.106273  0.404345  1
  O  O75  1  0.650776  0.106274  0.404342  1
  O  O76  1  0.709306  0.290653  0.297353  1
  O  O77  1  0.709337  -0.000000  0.366208  1
  O  O78  1  0.709333  0.000000  0.297354  1
  O  O79  1  0.000000  0.290651  0.297352  1
  O  O80  1  0.786656  0.000000  0.344490  1
  O  O81  1  0.000000  0.290639  0.392878  1
  O  O82  1  0.786535  0.500075  0.344471  1
  O  O83  1  0.893675  0.349274  0.354753  1
  O  O84  1  0.893679  0.650869  0.404329  1
  O  O85  1  0.893676  0.650875  0.369411  1
  O  O86  1  0.893673  0.349279  0.319835  1
  O  O87  1  -0.000000  0.500067  0.414609  1
  O  O88  1  -0.000000  0.500078  0.344472  1
  O  O89  1  0.709311  0.709498  0.366202  1
  O  O90  1  0.000000  0.709505  0.366203  1
  O  O91  1  0.650777  0.893870  0.369429  1
  O  O92  1  0.650773  0.893875  0.404342  1
  O  O93  1  0.893698  0.893868  0.319824  1
  O  O94  1  0.893701  0.893878  0.369435  1
  O  O95  1  0.000000  0.786806  0.344487  1
  O  O96  1  0.000000  0.709493  0.297357  1
  O  O97  1  0.106089  0.106267  0.554020  1
  O  O98  1  0.349011  0.106276  0.554025  1
  O  O99  1  0.106091  0.106275  0.603630  1
  O  O100  1  0.349015  0.106273  0.519113  1
  O  O101  1  0.290477  0.290649  0.557253  1
  O  O102  1  0.290453  -0.000000  0.557247  1
  O  O103  1  0.213133  0.000000  0.578965  1
  O  O104  1  0.290457  0.000000  0.461728  1
  O  O105  1  0.499896  -0.000000  0.508861  1
  O  O106  1  0.499893  0.213362  0.578972  1
  O  O107  1  0.499892  0.000000  0.578967  1
  O  O108  1  0.213252  0.500071  0.578983  1
  O  O109  1  0.106110  0.349271  0.554043  1
  O  O110  1  0.106116  0.650867  0.603620  1
  O  O111  1  0.106109  0.349277  0.519125  1
  O  O112  1  0.106112  0.650871  0.568702  1
  O  O113  1  0.290481  0.709494  0.461729  1
  O  O114  1  0.106091  0.893872  0.519109  1
  O  O115  1  0.349013  0.893872  0.519112  1
  O  O116  1  0.106092  0.893879  0.568719  1
  O  O117  1  0.349014  0.893869  0.484200  1
  O  O118  1  0.499895  0.786785  0.508855  1
  O  O119  1  0.000000  0.213338  0.578968  1
  O  O120  1  0.650775  0.106279  0.603628  1
  O  O121  1  0.893698  0.106264  0.519109  1
  O  O122  1  0.893698  0.106273  0.568718  1
  O  O123  1  0.650776  0.106274  0.568715  1
  O  O124  1  0.709306  0.290653  0.461725  1
  O  O125  1  0.709337  -0.000000  0.530581  1
  O  O126  1  0.709333  0.000000  0.461727  1
  O  O127  1  -0.000000  0.290651  0.461725  1
  O  O128  1  0.786656  0.000000  0.508863  1
  O  O129  1  0.000000  0.290639  0.557251  1
  O  O130  1  0.786535  0.500075  0.508844  1
  O  O131  1  0.893675  0.349274  0.519125  1
  O  O132  1  0.893679  0.650869  0.568702  1
  O  O133  1  0.893676  0.650875  0.533784  1
  O  O134  1  0.893673  0.349279  0.484207  1
  O  O135  1  0.000000  0.500067  0.578982  1
  O  O136  1  0.000000  0.500078  0.508845  1
  O  O137  1  0.709311  0.709498  0.530575  1
  O  O138  1  0.000000  0.709505  0.530576  1
  O  O139  1  0.650777  0.893870  0.533802  1
  O  O140  1  0.650773  0.893875  0.568715  1
  O  O141  1  0.893698  0.893868  0.484197  1
  O  O142  1  0.893701  0.893878  0.533807  1
  O  O143  1  0.000000  0.786806  0.508860  1
  O  O144  1  0.000000  0.709493  0.461730  1
  O  O145  1  0.290457  0.000000  0.626100  1
  O  O146  1  0.290481  0.709494  0.626102  1
  O  O147  1  0.709306  0.290653  0.626098  1
  O  O148  1  0.709333  0.000000  0.626100  1
  O  O149  1  0.000000  0.290651  0.626098  1
  O  O150  1  0.000000  0.709493  0.626102  1
  Si  Si151  1  0.369701  0.184212  0.224035  1
  Si  Si152  1  0.369700  -0.000000  0.224030  1
  Si  Si153  1  0.184002  0.000000  0.266832  1
  Si  Si154  1  0.369703  -0.000000  0.163505  1
  Si  Si155  1  0.184000  0.000000  0.224028  1
  Si  Si156  1  0.184047  0.630227  0.266832  1
  Si  Si157  1  0.184044  0.369916  0.224042  1
  Si  Si158  1  0.369703  0.815932  0.163500  1
  Si  Si159  1  0.630085  0.184214  0.266836  1
  Si  Si160  1  0.000000  0.184199  0.224031  1
  Si  Si161  1  0.000000  0.184206  0.266835  1
  Si  Si162  1  0.630089  -0.000000  0.206306  1
  Si  Si163  1  0.630086  -0.000000  0.266832  1
  Si  Si164  1  0.815788  -0.000000  0.163504  1
  Si  Si165  1  0.815790  0.000000  0.206308  1
  Si  Si166  1  0.000000  0.630224  0.266832  1
  Si  Si167  1  0.815744  0.630230  0.206294  1
  Si  Si168  1  0.815740  0.369919  0.163504  1
  Si  Si169  1  0.000000  0.630232  0.206294  1
  Si  Si170  1  0.000000  0.369921  0.163504  1
  Si  Si171  1  0.000000  0.369913  0.224041  1
  Si  Si172  1  0.630086  0.815934  0.206301  1
  Si  Si173  1  0.000000  0.815946  0.206305  1
  Si  Si174  1  0.000000  0.815938  0.163501  1
  Si  Si175  1  0.369701  0.184212  0.388408  1
  Si  Si176  1  0.369700  0.000000  0.388403  1
  Si  Si177  1  0.184002  -0.000000  0.431205  1
  Si  Si178  1  0.369703  -0.000000  0.327877  1
  Si  Si179  1  0.184000  -0.000000  0.388401  1
  Si  Si180  1  0.184047  0.630227  0.431205  1
  Si  Si181  1  0.184044  0.369916  0.388415  1
  Si  Si182  1  0.369703  0.815932  0.327873  1
  Si  Si183  1  0.630085  0.184214  0.431208  1
  Si  Si184  1  -0.000000  0.184199  0.388404  1
  Si  Si185  1  0.000000  0.184206  0.431208  1
  Si  Si186  1  0.630089  0.000000  0.370679  1
  Si  Si187  1  0.630086  0.000000  0.431205  1
  Si  Si188  1  0.815788  -0.000000  0.327877  1
  Si  Si189  1  0.815790  -0.000000  0.370681  1
  Si  Si190  1  -0.000000  0.630224  0.431204  1
  Si  Si191  1  0.815744  0.630230  0.370667  1
  Si  Si192  1  0.815740  0.369919  0.327877  1
  Si  Si193  1  0.000000  0.630232  0.370667  1
  Si  Si194  1  0.000000  0.369921  0.327877  1
  Si  Si195  1  0.000000  0.369913  0.388414  1
  Si  Si196  1  0.630086  0.815934  0.370674  1
  Si  Si197  1  0.000000  0.815946  0.370678  1
  Si  Si198  1  0.000000  0.815938  0.327874  1
  Si  Si199  1  0.369701  0.184212  0.552780  1
  Si  Si200  1  0.369700  -0.000000  0.552776  1
  Si  Si201  1  0.184002  -0.000000  0.595578  1
  Si  Si202  1  0.369703  0.000000  0.492250  1
  Si  Si203  1  0.184000  -0.000000  0.552774  1
  Si  Si204  1  0.184047  0.630227  0.595578  1
  Si  Si205  1  0.184044  0.369916  0.552788  1
  Si  Si206  1  0.369703  0.815932  0.492246  1
  Si  Si207  1  0.630085  0.184214  0.595581  1
  Si  Si208  1  0.000000  0.184199  0.552777  1
  Si  Si209  1  0.000000  0.184206  0.595581  1
  Si  Si210  1  0.630089  0.000000  0.535052  1
  Si  Si211  1  0.630086  0.000000  0.595578  1
  Si  Si212  1  0.815788  -0.000000  0.492250  1
  Si  Si213  1  0.815790  0.000000  0.535054  1
  Si  Si214  1  0.000000  0.630224  0.595577  1
  Si  Si215  1  0.815744  0.630230  0.535040  1
  Si  Si216  1  0.815740  0.369919  0.492250  1
  Si  Si217  1  0.000000  0.630232  0.535040  1
  Si  Si218  1  -0.000000  0.369921  0.492250  1
  Si  Si219  1  0.000000  0.369913  0.552787  1
  Si  Si220  1  0.630086  0.815934  0.535047  1
  Si  Si221  1  0.000000  0.815946  0.535051  1
  Si  Si222  1  0.000000  0.815938  0.492247  1
  H  H223  1  0.290457  -0.000000  0.120462  1
  H  H224  1  0.290481  0.709494  0.120463  1
  H  H225  1  0.709306  0.290653  0.120460  1
  H  H226  1  0.709333  -0.000000  0.120461  1
  H  H227  1  0.000000  0.290651  0.120459  1
  H  H228  1  0.000000  0.709493  0.120464  1
  H  H229  1  0.290457  0.000000  0.638621  1
  H  H230  1  0.290481  0.709494  0.638622  1
  H  H231  1  0.709306  0.290653  0.638618  1
  H  H232  1  0.709333  0.000000  0.638620  1
  H  H233  1  0.000000  0.290651  0.638618  1
  H  H234  1  0.000000  0.709493  0.638623  1
