# generated using pymatgen
data_Si8H2O17
_symmetry_space_group_name_H-M   'P 1'
_cell_length_a   16.71070141
_cell_length_b   16.71283265
_cell_length_c   60.06880475
_cell_angle_alpha   134.99097192
_cell_angle_beta   134.99827743
_cell_angle_gamma   60.00620696
_symmetry_Int_Tables_number   1
_chemical_formula_structural   Si8H2O17
_chemical_formula_sum   'Si48 H12 O102'
_cell_volume   8389.67651197
_cell_formula_units_Z   6
loop_
 _symmetry_equiv_pos_site_id
 _symmetry_equiv_pos_as_xyz
  1  'x, y, z'
loop_
 _atom_site_type_symbol
 _atom_site_label
 _atom_site_symmetry_multiplicity
 _atom_site_fract_x
 _atom_site_fract_y
 _atom_site_fract_z
 _atom_site_occupancy
  O  O1  1  0.106089  0.106267  0.269587  1
  O  O2  1  0.349011  0.106276  0.269594  1
  O  O3  1  0.106091  0.106275  0.328956  1
  O  O4  1  0.349015  0.106273  0.227814  1
  O  O5  1  0.290477  0.290649  0.273456  1
  O  O6  1  0.290453  -0.000000  0.273449  1
  O  O7  1  0.213133  -0.000000  0.299438  1
  O  O8  1  0.290457  -0.000000  0.159140  1
  O  O9  1  0.499896  -0.000000  0.215544  1
  O  O10  1  0.499893  0.213362  0.299447  1
  O  O11  1  0.499892  -0.000000  0.299442  1
  O  O12  1  0.213252  0.500071  0.299461  1
  O  O13  1  0.106110  0.349271  0.269615  1
  O  O14  1  0.106116  0.650867  0.328944  1
  O  O15  1  0.106109  0.349277  0.227829  1
  O  O16  1  0.106112  0.650871  0.287157  1
  O  O17  1  0.290481  0.709494  0.159142  1
  O  O18  1  0.106091  0.893872  0.227809  1
  O  O19  1  0.349013  0.893872  0.227813  1
  O  O20  1  0.106092  0.893879  0.287177  1
  O  O21  1  0.349014  0.893869  0.186032  1
  O  O22  1  0.499895  0.786785  0.215538  1
  O  O23  1  0.000000  0.213338  0.299442  1
  O  O24  1  0.650775  0.106279  0.328954  1
  O  O25  1  0.893698  0.106264  0.227808  1
  O  O26  1  0.893698  0.106273  0.287176  1
  O  O27  1  0.650776  0.106274  0.287173  1
  O  O28  1  0.709306  0.290653  0.159138  1
  O  O29  1  0.709337  -0.000000  0.241537  1
  O  O30  1  0.709333  -0.000000  0.159140  1
  O  O31  1  -0.000000  0.290651  0.159137  1
  O  O32  1  0.786656  -0.000000  0.215547  1
  O  O33  1  -0.000000  0.290639  0.273453  1
  O  O34  1  0.786535  0.500075  0.215525  1
  O  O35  1  0.893675  0.349274  0.227829  1
  O  O36  1  0.893679  0.650869  0.287157  1
  O  O37  1  0.893676  0.650875  0.245370  1
  O  O38  1  0.893673  0.349279  0.186042  1
  O  O39  1  0.000000  0.500067  0.299460  1
  O  O40  1  -0.000000  0.500078  0.215526  1
  O  O41  1  0.709311  0.709498  0.241530  1
  O  O42  1  0.000000  0.709505  0.241532  1
  O  O43  1  0.650777  0.893870  0.245392  1
  O  O44  1  0.650773  0.893875  0.287172  1
  O  O45  1  0.893698  0.893868  0.186029  1
  O  O46  1  0.893701  0.893878  0.245399  1
  O  O47  1  0.000000  0.786806  0.215543  1
  O  O48  1  0.000000  0.709493  0.159143  1
  O  O49  1  0.106089  0.106267  0.466293  1
  O  O50  1  0.349011  0.106276  0.466300  1
  O  O51  1  0.106091  0.106275  0.525662  1
  O  O52  1  0.349015  0.106273  0.424520  1
  O  O53  1  0.290477  0.290649  0.470162  1
  O  O54  1  0.290453  -0.000000  0.470155  1
  O  O55  1  0.213133  -0.000000  0.496144  1
  O  O56  1  0.290457  0.000000  0.355846  1
  O  O57  1  0.499896  -0.000000  0.412250  1
  O  O58  1  0.499893  0.213362  0.496153  1
  O  O59  1  0.499892  -0.000000  0.496148  1
  O  O60  1  0.213252  0.500071  0.496167  1
  O  O61  1  0.106110  0.349271  0.466321  1
  O  O62  1  0.106116  0.650867  0.525650  1
  O  O63  1  0.106109  0.349277  0.424535  1
  O  O64  1  0.106112  0.650871  0.483863  1
  O  O65  1  0.290481  0.709494  0.355848  1
  O  O66  1  0.106091  0.893872  0.424515  1
  O  O67  1  0.349013  0.893872  0.424519  1
  O  O68  1  0.106092  0.893879  0.483883  1
  O  O69  1  0.349014  0.893869  0.382738  1
  O  O70  1  0.499895  0.786785  0.412244  1
  O  O71  1  -0.000000  0.213338  0.496148  1
  O  O72  1  0.650775  0.106279  0.525660  1
  O  O73  1  0.893698  0.106264  0.424514  1
  O  O74  1  0.893698  0.106273  0.483882  1
  O  O75  1  0.650776  0.106274  0.483879  1
  O  O76  1  0.709306  0.290653  0.355844  1
  O  O77  1  0.709337  -0.000000  0.438243  1
  O  O78  1  0.709333  -0.000000  0.355846  1
  O  O79  1  0.000000  0.290651  0.355843  1
  O  O80  1  0.786656  -0.000000  0.412253  1
  O  O81  1  -0.000000  0.290639  0.470159  1
  O  O82  1  0.786535  0.500075  0.412231  1
  O  O83  1  0.893675  0.349274  0.424535  1
  O  O84  1  0.893679  0.650869  0.483863  1
  O  O85  1  0.893676  0.650875  0.442076  1
  O  O86  1  0.893673  0.349279  0.382748  1
  O  O87  1  0.000000  0.500067  0.496166  1
  O  O88  1  -0.000000  0.500078  0.412232  1
  O  O89  1  0.709311  0.709498  0.438236  1
  O  O90  1  -0.000000  0.709505  0.438238  1
  O  O91  1  0.650777  0.893870  0.442098  1
  O  O92  1  0.650773  0.893875  0.483878  1
  O  O93  1  0.893698  0.893868  0.382736  1
  O  O94  1  0.893701  0.893878  0.442105  1
  O  O95  1  0.000000  0.786806  0.412249  1
  O  O96  1  0.000000  0.709493  0.355849  1
  O  O97  1  0.290457  0.000000  0.552552  1
  O  O98  1  0.290481  0.709494  0.552554  1
  O  O99  1  0.709306  0.290653  0.552550  1
  O  O100  1  0.709333  0.000000  0.552552  1
  O  O101  1  -0.000000  0.290651  0.552549  1
  O  O102  1  0.000000  0.709493  0.552555  1
  Si  Si103  1  0.369701  0.184212  0.268104  1
  Si  Si104  1  0.369700  0.000000  0.268098  1
  Si  Si105  1  0.184002  0.000000  0.319320  1
  Si  Si106  1  0.369703  -0.000000  0.195667  1
  Si  Si107  1  0.184000  0.000000  0.268096  1
  Si  Si108  1  0.184047  0.630227  0.319319  1
  Si  Si109  1  0.184044  0.369916  0.268112  1
  Si  Si110  1  0.369703  0.815932  0.195662  1
  Si  Si111  1  0.630085  0.184214  0.319324  1
  Si  Si112  1  -0.000000  0.184199  0.268099  1
  Si  Si113  1  -0.000000  0.184206  0.319323  1
  Si  Si114  1  0.630089  -0.000000  0.246887  1
  Si  Si115  1  0.630086  -0.000000  0.319319  1
  Si  Si116  1  0.815788  -0.000000  0.195666  1
  Si  Si117  1  0.815790  -0.000000  0.246890  1
  Si  Si118  1  0.000000  0.630224  0.319319  1
  Si  Si119  1  0.815744  0.630230  0.246873  1
  Si  Si120  1  0.815740  0.369919  0.195666  1
  Si  Si121  1  -0.000000  0.630232  0.246874  1
  Si  Si122  1  -0.000000  0.369921  0.195667  1
  Si  Si123  1  -0.000000  0.369913  0.268111  1
  Si  Si124  1  0.630086  0.815934  0.246882  1
  Si  Si125  1  -0.000000  0.815946  0.246886  1
  Si  Si126  1  -0.000000  0.815938  0.195662  1
  Si  Si127  1  0.369701  0.184212  0.464810  1
  Si  Si128  1  0.369700  -0.000000  0.464804  1
  Si  Si129  1  0.184002  -0.000000  0.516026  1
  Si  Si130  1  0.369703  -0.000000  0.392373  1
  Si  Si131  1  0.184000  0.000000  0.464802  1
  Si  Si132  1  0.184047  0.630227  0.516025  1
  Si  Si133  1  0.184044  0.369916  0.464818  1
  Si  Si134  1  0.369703  0.815932  0.392368  1
  Si  Si135  1  0.630085  0.184214  0.516030  1
  Si  Si136  1  -0.000000  0.184199  0.464805  1
  Si  Si137  1  -0.000000  0.184206  0.516029  1
  Si  Si138  1  0.630089  -0.000000  0.443593  1
  Si  Si139  1  0.630086  -0.000000  0.516025  1
  Si  Si140  1  0.815788  -0.000000  0.392372  1
  Si  Si141  1  0.815790  -0.000000  0.443596  1
  Si  Si142  1  -0.000000  0.630224  0.516025  1
  Si  Si143  1  0.815744  0.630230  0.443579  1
  Si  Si144  1  0.815740  0.369919  0.392372  1
  Si  Si145  1  -0.000000  0.630232  0.443580  1
  Si  Si146  1  0.000000  0.369921  0.392373  1
  Si  Si147  1  0.000000  0.369913  0.464817  1
  Si  Si148  1  0.630086  0.815934  0.443588  1
  Si  Si149  1  0.000000  0.815946  0.443592  1
  Si  Si150  1  0.000000  0.815938  0.392368  1
  H  H151  1  0.290457  -0.000000  0.144157  1
  H  H152  1  0.290481  0.709494  0.144159  1
  H  H153  1  0.709306  0.290653  0.144155  1
  H  H154  1  0.709333  -0.000000  0.144157  1
  H  H155  1  -0.000000  0.290651  0.144154  1
  H  H156  1  0.000000  0.709493  0.144160  1
  H  H157  1  0.290457  0.000000  0.567535  1
  H  H158  1  0.290481  0.709494  0.567536  1
  H  H159  1  0.709306  0.290653  0.567532  1
  H  H160  1  0.709333  -0.000000  0.567535  1
  H  H161  1  -0.000000  0.290651  0.567532  1
  H  H162  1  -0.000000  0.709493  0.567537  1
