# generated using pymatgen
data_Si54H2O109
_symmetry_space_group_name_H-M   'P 1'
_cell_length_a   18.16750812
_cell_length_b   7.56987855
_cell_length_c   79.42043703
_cell_angle_alpha   90.00000000
_cell_angle_beta   120.00000000
_cell_angle_gamma   90.00000000
_symmetry_Int_Tables_number   1
_chemical_formula_structural   Si54H2O109
_chemical_formula_sum   'Si108 H4 O218'
_cell_volume   9459.04254807
_cell_formula_units_Z   2
loop_
 _symmetry_equiv_pos_site_id
 _symmetry_equiv_pos_as_xyz
  1  'x, y, z'
loop_
 _atom_site_type_symbol
 _atom_site_label
 _atom_site_symmetry_multiplicity
 _atom_site_fract_x
 _atom_site_fract_y
 _atom_site_fract_z
 _atom_site_occupancy
  O  O1  1  0.289832  0.500161  0.084028  1
  O  O2  1  0.709899  0.500161  0.084040  1
  O  O3  1  0.519352  0.221791  0.143459  1
  O  O4  1  0.740101  0.221791  0.193978  1
  O  O5  1  0.740038  0.221798  0.143458  1
  O  O6  1  0.480422  0.221791  0.253451  1
  O  O7  1  0.259725  0.221803  0.202944  1
  O  O8  1  0.259684  0.221786  0.253452  1
  O  O9  1  0.480422  0.778532  0.253451  1
  O  O10  1  0.259725  0.778519  0.202944  1
  O  O11  1  0.259684  0.778537  0.253452  1
  O  O12  1  0.519352  0.778532  0.143459  1
  O  O13  1  0.740101  0.778532  0.193978  1
  O  O14  1  0.740038  0.778524  0.143458  1
  O  O15  1  0.420705  0.333045  0.109630  1
  O  O16  1  0.690745  0.333047  0.216526  1
  O  O17  1  0.887956  0.333037  0.154750  1
  O  O18  1  0.579012  0.333045  0.287282  1
  O  O19  1  0.309053  0.333047  0.180393  1
  O  O20  1  0.111786  0.333043  0.242160  1
  O  O21  1  0.887989  0.333049  0.216524  1
  O  O22  1  0.420780  0.333040  0.154744  1
  O  O23  1  0.690807  0.333046  0.109630  1
  O  O24  1  0.111817  0.333044  0.180392  1
  O  O25  1  0.579050  0.333040  0.242181  1
  O  O26  1  0.308942  0.333046  0.287284  1
  O  O27  1  0.579012  0.667278  0.287282  1
  O  O28  1  0.309053  0.667275  0.180393  1
  O  O29  1  0.111786  0.667280  0.242160  1
  O  O30  1  0.420705  0.667277  0.109630  1
  O  O31  1  0.690745  0.667276  0.216526  1
  O  O32  1  0.887956  0.667285  0.154750  1
  O  O33  1  0.111817  0.667279  0.180392  1
  O  O34  1  0.579050  0.667282  0.242181  1
  O  O35  1  0.308942  0.667277  0.287284  1
  O  O36  1  0.887989  0.667273  0.216524  1
  O  O37  1  0.420780  0.667283  0.154744  1
  O  O38  1  0.690807  0.667276  0.109630  1
  O  O39  1  0.578685  0.246065  0.120121  1
  O  O40  1  0.578757  0.246069  0.180377  1
  O  O41  1  0.842000  0.246068  0.180376  1
  O  O42  1  0.421023  0.246073  0.276779  1
  O  O43  1  0.421083  0.246062  0.216539  1
  O  O44  1  0.157774  0.246069  0.216535  1
  O  O45  1  0.421023  0.754250  0.276779  1
  O  O46  1  0.421083  0.754261  0.216539  1
  O  O47  1  0.157774  0.754254  0.216535  1
  O  O48  1  0.578685  0.754257  0.120121  1
  O  O49  1  0.578757  0.754253  0.180377  1
  O  O50  1  0.842000  0.754254  0.180376  1
  O  O51  1  0.474743  -0.000000  0.116339  1
  O  O52  1  0.666089  -0.000000  0.204164  1
  O  O53  1  0.858573  -0.000000  0.160389  1
  O  O54  1  0.524969  -0.000000  0.280569  1
  O  O55  1  0.333725  -0.000000  0.192755  1
  O  O56  1  0.141146  0.000000  0.236515  1
  O  O57  1  0.858641  -0.000000  0.204162  1
  O  O58  1  0.474815  -0.000000  0.160387  1
  O  O59  1  0.666092  -0.000000  0.116339  1
  O  O60  1  0.141187  0.000000  0.192754  1
  O  O61  1  0.525020  0.000000  0.236534  1
  O  O62  1  0.333641  -0.000000  0.280571  1
  O  O63  1  0.289832  0.500161  0.312875  1
  O  O64  1  0.709881  0.500161  0.246496  1
  O  O65  1  -0.000000  0.500161  0.150432  1
  O  O66  1  0.709899  0.500161  0.312887  1
  O  O67  1  0.289936  0.500161  0.150429  1
  O  O68  1  0.000000  0.500161  0.246487  1
  O  O69  1  0.336435  0.500161  0.122551  1
  O  O70  1  0.831484  0.500161  0.235800  1
  O  O71  1  0.831571  0.500161  0.122559  1
  O  O72  1  0.663339  0.500161  0.274373  1
  O  O73  1  0.168301  0.500161  0.161117  1
  O  O74  1  0.168192  0.500161  0.274356  1
  O  O75  1  0.519352  0.221791  0.372306  1
  O  O76  1  0.740101  0.221791  0.422825  1
  O  O77  1  0.740038  0.221798  0.372306  1
  O  O78  1  0.480422  0.221791  0.482299  1
  O  O79  1  0.259725  0.221803  0.431791  1
  O  O80  1  0.259684  0.221786  0.482299  1
  O  O81  1  0.480422  0.778532  0.482299  1
  O  O82  1  0.259725  0.778519  0.431791  1
  O  O83  1  0.259684  0.778537  0.482299  1
  O  O84  1  0.519352  0.778532  0.372306  1
  O  O85  1  0.740101  0.778532  0.422825  1
  O  O86  1  0.740038  0.778524  0.372306  1
  O  O87  1  0.420705  0.333045  0.338478  1
  O  O88  1  0.690745  0.333047  0.445373  1
  O  O89  1  0.887956  0.333037  0.383597  1
  O  O90  1  0.579012  0.333045  0.516129  1
  O  O91  1  0.309053  0.333047  0.409240  1
  O  O92  1  0.111786  0.333043  0.471007  1
  O  O93  1  0.887989  0.333049  0.445371  1
  O  O94  1  0.420780  0.333040  0.383591  1
  O  O95  1  0.690807  0.333046  0.338477  1
  O  O96  1  0.111817  0.333044  0.409239  1
  O  O97  1  0.579050  0.333040  0.471028  1
  O  O98  1  0.308942  0.333046  0.516131  1
  O  O99  1  0.579012  0.667278  0.516129  1
  O  O100  1  0.309053  0.667275  0.409240  1
  O  O101  1  0.111786  0.667280  0.471007  1
  O  O102  1  0.420705  0.667277  0.338478  1
  O  O103  1  0.690745  0.667276  0.445373  1
  O  O104  1  0.887956  0.667285  0.383597  1
  O  O105  1  0.111817  0.667279  0.409239  1
  O  O106  1  0.579050  0.667282  0.471028  1
  O  O107  1  0.308942  0.667277  0.516131  1
  O  O108  1  0.887989  0.667273  0.445371  1
  O  O109  1  0.420780  0.667283  0.383591  1
  O  O110  1  0.690807  0.667276  0.338477  1
  O  O111  1  0.578685  0.246065  0.348968  1
  O  O112  1  0.578757  0.246069  0.409224  1
  O  O113  1  0.842000  0.246068  0.409224  1
  O  O114  1  0.421023  0.246073  0.505626  1
  O  O115  1  0.421083  0.246062  0.445386  1
  O  O116  1  0.157774  0.246069  0.445382  1
  O  O117  1  0.421023  0.754250  0.505626  1
  O  O118  1  0.421083  0.754261  0.445386  1
  O  O119  1  0.157774  0.754254  0.445382  1
  O  O120  1  0.578685  0.754257  0.348968  1
  O  O121  1  0.578757  0.754253  0.409224  1
  O  O122  1  0.842000  0.754254  0.409224  1
  O  O123  1  0.474743  -0.000000  0.345186  1
  O  O124  1  0.666089  -0.000000  0.433011  1
  O  O125  1  0.858573  -0.000000  0.389236  1
  O  O126  1  0.524969  0.000000  0.509416  1
  O  O127  1  0.333725  0.000000  0.421602  1
  O  O128  1  0.141146  0.000000  0.465362  1
  O  O129  1  0.858641  0.000000  0.433009  1
  O  O130  1  0.474815  -0.000000  0.389234  1
  O  O131  1  0.666092  0.000000  0.345186  1
  O  O132  1  0.141187  0.000000  0.421601  1
  O  O133  1  0.525020  0.000000  0.465382  1
  O  O134  1  0.333641  0.000000  0.509418  1
  O  O135  1  0.289832  0.500161  0.541722  1
  O  O136  1  0.709881  0.500161  0.475343  1
  O  O137  1  -0.000000  0.500161  0.379279  1
  O  O138  1  0.709899  0.500161  0.541735  1
  O  O139  1  0.289936  0.500161  0.379276  1
  O  O140  1  0.000000  0.500161  0.475334  1
  O  O141  1  0.336435  0.500161  0.351398  1
  O  O142  1  0.831484  0.500161  0.464647  1
  O  O143  1  0.831571  0.500161  0.351406  1
  O  O144  1  0.663339  0.500161  0.503220  1
  O  O145  1  0.168301  0.500161  0.389964  1
  O  O146  1  0.168192  0.500161  0.503203  1
  O  O147  1  0.519352  0.221791  0.601153  1
  O  O148  1  0.740101  0.221791  0.651672  1
  O  O149  1  0.740038  0.221798  0.601153  1
  O  O150  1  0.480422  0.221791  0.711146  1
  O  O151  1  0.259725  0.221803  0.660638  1
  O  O152  1  0.259684  0.221786  0.711146  1
  O  O153  1  0.480422  0.778532  0.711146  1
  O  O154  1  0.259725  0.778519  0.660638  1
  O  O155  1  0.259684  0.778537  0.711146  1
  O  O156  1  0.519352  0.778532  0.601153  1
  O  O157  1  0.740101  0.778532  0.651672  1
  O  O158  1  0.740038  0.778524  0.601153  1
  O  O159  1  0.420705  0.333045  0.567325  1
  O  O160  1  0.690745  0.333047  0.674220  1
  O  O161  1  0.887956  0.333037  0.612444  1
  O  O162  1  0.579012  0.333045  0.744976  1
  O  O163  1  0.309053  0.333047  0.638087  1
  O  O164  1  0.111786  0.333043  0.699854  1
  O  O165  1  0.887989  0.333049  0.674218  1
  O  O166  1  0.420780  0.333040  0.612438  1
  O  O167  1  0.690807  0.333046  0.567324  1
  O  O168  1  0.111817  0.333044  0.638086  1
  O  O169  1  0.579050  0.333040  0.699875  1
  O  O170  1  0.308942  0.333046  0.744978  1
  O  O171  1  0.579012  0.667278  0.744976  1
  O  O172  1  0.309053  0.667275  0.638087  1
  O  O173  1  0.111786  0.667280  0.699854  1
  O  O174  1  0.420705  0.667277  0.567325  1
  O  O175  1  0.690745  0.667276  0.674220  1
  O  O176  1  0.887956  0.667285  0.612444  1
  O  O177  1  0.111817  0.667279  0.638086  1
  O  O178  1  0.579050  0.667282  0.699875  1
  O  O179  1  0.308942  0.667277  0.744978  1
  O  O180  1  0.887989  0.667273  0.674218  1
  O  O181  1  0.420780  0.667283  0.612438  1
  O  O182  1  0.690807  0.667276  0.567324  1
  O  O183  1  0.578685  0.246065  0.577815  1
  O  O184  1  0.578757  0.246069  0.638071  1
  O  O185  1  0.842000  0.246068  0.638071  1
  O  O186  1  0.421023  0.246073  0.734473  1
  O  O187  1  0.421083  0.246062  0.674233  1
  O  O188  1  0.157774  0.246069  0.674229  1
  O  O189  1  0.421023  0.754250  0.734473  1
  O  O190  1  0.421083  0.754261  0.674233  1
  O  O191  1  0.157774  0.754254  0.674229  1
  O  O192  1  0.578685  0.754257  0.577815  1
  O  O193  1  0.578757  0.754253  0.638071  1
  O  O194  1  0.842000  0.754254  0.638071  1
  O  O195  1  0.474743  0.000000  0.574033  1
  O  O196  1  0.666089  0.000000  0.661858  1
  O  O197  1  0.858573  0.000000  0.618083  1
  O  O198  1  0.524969  0.000000  0.738263  1
  O  O199  1  0.333725  0.000000  0.650449  1
  O  O200  1  0.141146  0.000000  0.694209  1
  O  O201  1  0.858641  -0.000000  0.661856  1
  O  O202  1  0.474815  0.000000  0.618081  1
  O  O203  1  0.666092  0.000000  0.574033  1
  O  O204  1  0.141187  0.000000  0.650448  1
  O  O205  1  0.525020  -0.000000  0.694229  1
  O  O206  1  0.333641  -0.000000  0.738265  1
  O  O207  1  0.289832  0.500161  0.770569  1
  O  O208  1  0.709881  0.500161  0.704190  1
  O  O209  1  0.000000  0.500161  0.608126  1
  O  O210  1  0.709899  0.500161  0.770582  1
  O  O211  1  0.289936  0.500161  0.608123  1
  O  O212  1  0.000000  0.500161  0.704181  1
  O  O213  1  0.336435  0.500161  0.580245  1
  O  O214  1  0.831484  0.500161  0.693494  1
  O  O215  1  0.831571  0.500161  0.580253  1
  O  O216  1  0.663339  0.500161  0.732068  1
  O  O217  1  0.168301  0.500161  0.618811  1
  O  O218  1  0.168192  0.500161  0.732050  1
  Si  Si219  1  0.496961  0.202919  0.121573  1
  Si  Si220  1  0.666777  0.202919  0.199085  1
  Si  Si221  1  0.835688  0.202918  0.160234  1
  Si  Si222  1  0.502762  0.202920  0.275333  1
  Si  Si223  1  0.333044  0.202919  0.197835  1
  Si  Si224  1  0.164043  0.202916  0.236673  1
  Si  Si225  1  0.835747  0.202916  0.199083  1
  Si  Si226  1  0.497024  0.202918  0.160232  1
  Si  Si227  1  0.666758  0.202920  0.121573  1
  Si  Si228  1  0.164070  0.202919  0.197834  1
  Si  Si229  1  0.502801  0.202917  0.236686  1
  Si  Si230  1  0.332969  0.202920  0.275336  1
  Si  Si231  1  0.502762  0.797403  0.275333  1
  Si  Si232  1  0.333044  0.797403  0.197835  1
  Si  Si233  1  0.164043  0.797407  0.236673  1
  Si  Si234  1  0.496961  0.797404  0.121573  1
  Si  Si235  1  0.666777  0.797403  0.199085  1
  Si  Si236  1  0.835688  0.797404  0.160234  1
  Si  Si237  1  0.164070  0.797403  0.197834  1
  Si  Si238  1  0.502801  0.797406  0.236686  1
  Si  Si239  1  0.332969  0.797403  0.275336  1
  Si  Si240  1  0.835747  0.797406  0.199083  1
  Si  Si241  1  0.497024  0.797405  0.160232  1
  Si  Si242  1  0.666757  0.797402  0.121573  1
  Si  Si243  1  0.362803  0.500161  0.106246  1
  Si  Si244  1  0.733855  0.500161  0.229773  1
  Si  Si245  1  0.902800  0.500161  0.144898  1
  Si  Si246  1  0.636920  0.500161  0.290670  1
  Si  Si247  1  0.265936  0.500161  0.167147  1
  Si  Si248  1  0.096968  0.500161  0.252017  1
  Si  Si249  1  0.902755  0.500161  0.229770  1
  Si  Si250  1  0.362869  0.500161  0.144891  1
  Si  Si251  1  0.733935  0.500161  0.106251  1
  Si  Si252  1  0.097025  0.500161  0.167146  1
  Si  Si253  1  0.636956  0.500161  0.252036  1
  Si  Si254  1  0.265821  0.500161  0.290665  1
  Si  Si255  1  0.496961  0.202919  0.350420  1
  Si  Si256  1  0.666777  0.202919  0.427932  1
  Si  Si257  1  0.835688  0.202918  0.389081  1
  Si  Si258  1  0.502762  0.202920  0.504180  1
  Si  Si259  1  0.333044  0.202919  0.426682  1
  Si  Si260  1  0.164043  0.202916  0.465520  1
  Si  Si261  1  0.835747  0.202916  0.427930  1
  Si  Si262  1  0.497024  0.202918  0.389079  1
  Si  Si263  1  0.666758  0.202920  0.350420  1
  Si  Si264  1  0.164070  0.202919  0.426681  1
  Si  Si265  1  0.502801  0.202917  0.465533  1
  Si  Si266  1  0.332969  0.202920  0.504183  1
  Si  Si267  1  0.502762  0.797403  0.504180  1
  Si  Si268  1  0.333044  0.797403  0.426682  1
  Si  Si269  1  0.164043  0.797407  0.465520  1
  Si  Si270  1  0.496961  0.797404  0.350420  1
  Si  Si271  1  0.666777  0.797403  0.427932  1
  Si  Si272  1  0.835688  0.797404  0.389081  1
  Si  Si273  1  0.164070  0.797403  0.426681  1
  Si  Si274  1  0.502801  0.797406  0.465533  1
  Si  Si275  1  0.332969  0.797403  0.504183  1
  Si  Si276  1  0.835747  0.797406  0.427930  1
  Si  Si277  1  0.497024  0.797405  0.389079  1
  Si  Si278  1  0.666757  0.797402  0.350420  1
  Si  Si279  1  0.362803  0.500161  0.335093  1
  Si  Si280  1  0.733855  0.500161  0.458620  1
  Si  Si281  1  0.902800  0.500161  0.373745  1
  Si  Si282  1  0.636920  0.500161  0.519517  1
  Si  Si283  1  0.265936  0.500161  0.395994  1
  Si  Si284  1  0.096968  0.500161  0.480864  1
  Si  Si285  1  0.902755  0.500161  0.458617  1
  Si  Si286  1  0.362869  0.500161  0.373739  1
  Si  Si287  1  0.733935  0.500161  0.335098  1
  Si  Si288  1  0.097025  0.500161  0.395993  1
  Si  Si289  1  0.636956  0.500161  0.480883  1
  Si  Si290  1  0.265821  0.500161  0.519512  1
  Si  Si291  1  0.496961  0.202919  0.579268  1
  Si  Si292  1  0.666777  0.202919  0.656779  1
  Si  Si293  1  0.835688  0.202918  0.617928  1
  Si  Si294  1  0.502762  0.202920  0.733028  1
  Si  Si295  1  0.333044  0.202919  0.655529  1
  Si  Si296  1  0.164043  0.202916  0.694367  1
  Si  Si297  1  0.835747  0.202916  0.656777  1
  Si  Si298  1  0.497024  0.202918  0.617926  1
  Si  Si299  1  0.666758  0.202920  0.579267  1
  Si  Si300  1  0.164070  0.202919  0.655528  1
  Si  Si301  1  0.502801  0.202917  0.694380  1
  Si  Si302  1  0.332969  0.202920  0.733030  1
  Si  Si303  1  0.502762  0.797403  0.733028  1
  Si  Si304  1  0.333044  0.797403  0.655529  1
  Si  Si305  1  0.164043  0.797407  0.694367  1
  Si  Si306  1  0.496961  0.797404  0.579268  1
  Si  Si307  1  0.666777  0.797403  0.656779  1
  Si  Si308  1  0.835688  0.797404  0.617928  1
  Si  Si309  1  0.164070  0.797403  0.655528  1
  Si  Si310  1  0.502801  0.797406  0.694380  1
  Si  Si311  1  0.332969  0.797403  0.733030  1
  Si  Si312  1  0.835747  0.797406  0.656777  1
  Si  Si313  1  0.497024  0.797405  0.617926  1
  Si  Si314  1  0.666757  0.797402  0.579267  1
  Si  Si315  1  0.362803  0.500161  0.563940  1
  Si  Si316  1  0.733855  0.500161  0.687467  1
  Si  Si317  1  0.902800  0.500161  0.602592  1
  Si  Si318  1  0.636920  0.500161  0.748364  1
  Si  Si319  1  0.265936  0.500161  0.624841  1
  Si  Si320  1  0.096968  0.500161  0.709711  1
  Si  Si321  1  0.902755  0.500161  0.687464  1
  Si  Si322  1  0.362869  0.500161  0.602586  1
  Si  Si323  1  0.733935  0.500161  0.563945  1
  Si  Si324  1  0.097025  0.500161  0.624841  1
  Si  Si325  1  0.636956  0.500161  0.709730  1
  Si  Si326  1  0.265821  0.500161  0.748359  1
  H  H327  1  0.289832  0.500161  0.072695  1
  H  H328  1  0.709899  0.500161  0.072708  1
  H  H329  1  0.289832  0.500161  0.781901  1
  H  H330  1  0.709899  0.500161  0.781914  1
