# generated using pymatgen
data_Si28H2O57
_symmetry_space_group_name_H-M   'P 1'
_cell_length_a   31.01620412
_cell_length_b   7.57128859
_cell_length_c   76.81169786
_cell_angle_alpha   90.00000000
_cell_angle_beta   120.00000000
_cell_angle_gamma   90.00000000
_symmetry_Int_Tables_number   1
_chemical_formula_structural   Si28H2O57
_chemical_formula_sum   'Si168 H12 O342'
_cell_volume   15621.273746
_cell_formula_units_Z   6
loop_
 _symmetry_equiv_pos_site_id
 _symmetry_equiv_pos_as_xyz
  1  'x, y, z'
loop_
 _atom_site_type_symbol
 _atom_site_label
 _atom_site_symmetry_multiplicity
 _atom_site_fract_x
 _atom_site_fract_y
 _atom_site_fract_z
 _atom_site_occupancy
  O  O1  1  0.517658  0.976418  0.184108  1
  O  O2  1  0.385910  0.976385  0.184067  1
  O  O3  1  0.517653  0.523669  0.184113  1
  O  O4  1  0.385897  0.523694  0.184063  1
  O  O5  1  0.603569  0.081093  0.193847  1
  O  O6  1  0.324139  0.081136  0.193839  1
  O  O7  1  0.603566  0.418974  0.193853  1
  O  O8  1  0.324141  0.418945  0.193841  1
  O  O9  1  0.586824  0.750035  0.200026  1
  O  O10  1  0.356185  0.750041  0.199998  1
  O  O11  1  0.485093  0.082183  0.148259  1
  O  O12  1  0.329784  0.082190  0.148236  1
  O  O13  1  0.485086  0.417917  0.148263  1
  O  O14  1  0.329765  0.417917  0.148230  1
  O  O15  1  0.502490  0.250112  0.122544  1
  O  O16  1  0.248666  0.249965  0.122563  1
  O  O17  1  0.565574  0.250083  0.160926  1
  O  O18  1  0.280683  0.250045  0.160930  1
  O  O19  1  0.473498  0.750040  0.156515  1
  O  O20  1  0.361798  0.750055  0.156475  1
  O  O21  1  0.422790  0.997132  0.160645  1
  O  O22  1  0.422777  0.502964  0.160644  1
  O  O23  1  0.831797  0.500122  0.155206  1
  O  O24  1  0.000000  -0.000000  0.155397  1
  O  O25  1  0.831786  0.000000  0.155200  1
  O  O26  1  0.000000  0.500076  0.155398  1
  O  O27  1  0.833837  0.250143  0.133171  1
  O  O28  1  0.777261  0.750083  0.200185  1
  O  O29  1  0.056501  0.750056  0.156142  1
  O  O30  1  0.777135  0.750124  0.155958  1
  O  O31  1  0.166170  0.750008  0.200235  1
  O  O32  1  0.943461  0.250106  0.133335  1
  O  O33  1  0.902633  0.479348  0.144596  1
  O  O34  1  0.805264  0.979260  0.183729  1
  O  O35  1  0.097372  0.979245  0.183888  1
  O  O36  1  0.805283  0.520970  0.183737  1
  O  O37  1  0.097369  0.520817  0.183889  1
  O  O38  1  0.902633  0.020908  0.144597  1
  O  O39  1  0.814644  0.580754  0.120049  1
  O  O40  1  0.744740  0.080697  0.194785  1
  O  O41  1  0.069782  0.080648  0.148372  1
  O  O42  1  0.744643  0.080749  0.148202  1
  O  O43  1  0.185355  0.080603  0.194853  1
  O  O44  1  0.930184  0.580697  0.120203  1
  O  O45  1  0.744764  0.419456  0.194794  1
  O  O46  1  0.069769  0.419464  0.148368  1
  O  O47  1  0.814650  0.919554  0.120042  1
  O  O48  1  0.930173  0.919516  0.120205  1
  O  O49  1  0.744657  0.419517  0.148207  1
  O  O50  1  0.185359  0.419395  0.194863  1
  O  O51  1  0.755306  0.750120  0.086881  1
  O  O52  1  0.662745  0.250101  0.185688  1
  O  O53  1  0.092389  0.249985  0.124355  1
  O  O54  1  0.662674  0.250178  0.124146  1
  O  O55  1  0.244662  0.250044  0.185634  1
  O  O56  1  0.907563  0.750238  0.087057  1
  O  O57  1  0.849739  0.750067  0.101761  1
  O  O58  1  0.699130  0.250150  0.162288  1
  O  O59  1  0.150220  0.250097  0.162403  1
  O  O60  1  0.410882  0.500044  0.222939  1
  O  O61  1  0.589071  0.500118  0.460731  1
  O  O62  1  0.000000  0.500143  0.388866  1
  O  O63  1  0.589136  0.000000  0.222997  1
  O  O64  1  0.410837  0.000000  0.388853  1
  O  O65  1  0.000000  -0.000000  0.460982  1
  O  O66  1  -0.000000  -0.000000  0.388873  1
  O  O67  1  0.589074  0.000000  0.460734  1
  O  O68  1  0.410877  0.000000  0.222939  1
  O  O69  1  0.000000  0.500144  0.460999  1
  O  O70  1  0.410831  0.500056  0.388856  1
  O  O71  1  0.589144  0.500085  0.223004  1
  O  O72  1  0.482340  0.476418  0.261820  1
  O  O73  1  0.614085  0.476461  0.431953  1
  O  O74  1  0.903768  0.476563  0.378859  1
  O  O75  1  0.517658  0.976418  0.587778  1
  O  O76  1  0.385843  0.976444  0.417634  1
  O  O77  1  0.096121  0.976388  0.470938  1
  O  O78  1  0.096233  0.976374  0.417699  1
  O  O79  1  0.517611  0.976498  0.470763  1
  O  O80  1  0.385910  0.976385  0.587736  1
  O  O81  1  0.903825  0.476603  0.432144  1
  O  O82  1  0.482333  0.476491  0.378831  1
  O  O83  1  0.614119  0.476381  0.261875  1
  O  O84  1  0.517653  0.523669  0.587783  1
  O  O85  1  0.385834  0.523794  0.417634  1
  O  O86  1  0.096111  0.523666  0.470944  1
  O  O87  1  0.482334  0.023661  0.261819  1
  O  O88  1  0.614068  0.023782  0.431953  1
  O  O89  1  0.903758  0.023892  0.378859  1
  O  O90  1  0.903808  0.023900  0.432133  1
  O  O91  1  0.482326  0.023734  0.378824  1
  O  O92  1  0.614107  0.023707  0.261870  1
  O  O93  1  0.096229  0.523716  0.417695  1
  O  O94  1  0.517607  0.523731  0.470761  1
  O  O95  1  0.385897  0.523694  0.587732  1
  O  O96  1  0.396403  0.581095  0.252080  1
  O  O97  1  0.675827  0.581216  0.466667  1
  O  O98  1  0.927805  0.581297  0.353878  1
  O  O99  1  0.603569  0.081093  0.597516  1
  O  O100  1  0.324081  0.081226  0.382951  1
  O  O101  1  0.072177  0.081230  0.495960  1
  O  O102  1  0.072139  0.081165  0.383004  1
  O  O103  1  0.603547  0.081189  0.495719  1
  O  O104  1  0.324139  0.081136  0.597508  1
  O  O105  1  0.927774  0.581265  0.466836  1
  O  O106  1  0.396421  0.581174  0.353885  1
  O  O107  1  0.675895  0.581156  0.252133  1
  O  O108  1  0.603566  0.418974  0.597522  1
  O  O109  1  0.324067  0.419002  0.382950  1
  O  O110  1  0.072200  0.419027  0.495979  1
  O  O111  1  0.396396  0.918959  0.252079  1
  O  O112  1  0.675827  0.919015  0.466666  1
  O  O113  1  0.927815  0.919118  0.353882  1
  O  O114  1  0.927793  0.919051  0.466829  1
  O  O115  1  0.396417  0.919063  0.353878  1
  O  O116  1  0.675878  0.918932  0.252127  1
  O  O117  1  0.072153  0.418980  0.383002  1
  O  O118  1  0.603542  0.419058  0.495716  1
  O  O119  1  0.324141  0.418945  0.597510  1
  O  O120  1  0.413165  0.250036  0.245905  1
  O  O121  1  0.643780  0.250116  0.459887  1
  O  O122  1  0.943126  0.250188  0.366818  1
  O  O123  1  0.586824  0.750035  0.603695  1
  O  O124  1  0.356127  0.750111  0.389698  1
  O  O125  1  0.056865  0.750130  0.483040  1
  O  O126  1  0.056847  0.750090  0.389761  1
  O  O127  1  0.586779  0.750116  0.482773  1
  O  O128  1  0.356185  0.750041  0.603667  1
  O  O129  1  0.943099  0.250154  0.460087  1
  O  O130  1  0.413165  0.250119  0.366818  1
  O  O131  1  0.643837  0.250047  0.245940  1
  O  O132  1  0.514928  0.582175  0.297667  1
  O  O133  1  0.670221  0.582248  0.418786  1
  O  O134  1  0.815004  0.582405  0.356219  1
  O  O135  1  0.485093  0.082183  0.551929  1
  O  O136  1  0.329721  0.082286  0.430823  1
  O  O137  1  0.184843  0.082042  0.493556  1
  O  O138  1  0.184989  0.082157  0.430894  1
  O  O139  1  0.485071  0.082232  0.493469  1
  O  O140  1  0.329784  0.082190  0.551906  1
  O  O141  1  0.815102  0.582471  0.418920  1
  O  O142  1  0.514851  0.582236  0.356112  1
  O  O143  1  0.670246  0.582179  0.297725  1
  O  O144  1  0.485086  0.417917  0.551932  1
  O  O145  1  0.329705  0.417977  0.430820  1
  O  O146  1  0.184835  0.417818  0.493548  1
  O  O147  1  0.514922  0.917918  0.297667  1
  O  O148  1  0.670195  0.917965  0.418785  1
  O  O149  1  0.814998  0.918127  0.356216  1
  O  O150  1  0.815087  0.918233  0.418924  1
  O  O151  1  0.514843  0.917973  0.356105  1
  O  O152  1  0.670224  0.917883  0.297720  1
  O  O153  1  0.184989  0.417863  0.430896  1
  O  O154  1  0.485065  0.417982  0.493468  1
  O  O155  1  0.329765  0.417917  0.551900  1
  O  O156  1  0.497471  0.750041  0.323372  1
  O  O157  1  0.751305  0.750256  0.425857  1
  O  O158  1  0.751295  0.750189  0.323464  1
  O  O159  1  0.502490  0.250112  0.526214  1
  O  O160  1  0.248660  0.250031  0.423841  1
  O  O161  1  0.248666  0.249965  0.526232  1
  O  O162  1  0.434446  0.750030  0.284998  1
  O  O163  1  0.719298  0.750122  0.451305  1
  O  O164  1  0.846295  0.750251  0.336346  1
  O  O165  1  0.565574  0.250083  0.564595  1
  O  O166  1  0.280572  0.250086  0.398329  1
  O  O167  1  0.153692  0.250000  0.513486  1
  O  O168  1  0.153660  0.250020  0.398384  1
  O  O169  1  0.565544  0.250123  0.513293  1
  O  O170  1  0.280683  0.250045  0.564600  1
  O  O171  1  0.846277  0.750274  0.451436  1
  O  O172  1  0.434365  0.750071  0.336280  1
  O  O173  1  0.719377  0.750083  0.285071  1
  O  O174  1  0.526509  0.250047  0.289410  1
  O  O175  1  0.638190  0.250103  0.414100  1
  O  O176  1  0.835457  0.250276  0.369159  1
  O  O177  1  0.473498  0.750040  0.560185  1
  O  O178  1  0.361727  0.750126  0.435484  1
  O  O179  1  0.164391  0.749946  0.480617  1
  O  O180  1  0.164536  0.749999  0.435578  1
  O  O181  1  0.473477  0.750108  0.480535  1
  O  O182  1  0.361798  0.750055  0.560145  1
  O  O183  1  0.835541  0.250334  0.414243  1
  O  O184  1  0.526447  0.250116  0.369043  1
  O  O185  1  0.638216  0.250036  0.289458  1
  O  O186  1  0.577228  0.497119  0.285282  1
  O  O187  1  0.577204  0.497182  0.393646  1
  O  O188  1  0.845889  0.497445  0.393797  1
  O  O189  1  0.422790  0.997132  0.564315  1
  O  O190  1  0.422731  0.997180  0.455935  1
  O  O191  1  0.154106  0.997101  0.456003  1
  O  O192  1  0.422777  0.502964  0.564313  1
  O  O193  1  0.422725  0.503051  0.455934  1
  O  O194  1  0.154080  0.502833  0.455998  1
  O  O195  1  0.577219  0.002970  0.285280  1
  O  O196  1  0.577188  0.003038  0.393643  1
  O  O197  1  0.845859  0.003176  0.393790  1
  O  O198  1  0.168208  0.500023  0.223095  1
  O  O199  1  0.831797  0.500122  0.558875  1
  O  O200  1  0.000000  0.500086  0.290810  1
  O  O201  1  0.831916  0.000000  0.222998  1
  O  O202  1  0.168007  0.000000  0.290821  1
  O  O203  1  0.000000  -0.000000  0.559066  1
  O  O204  1  0.000000  -0.000000  0.290786  1
  O  O205  1  0.831786  0.000000  0.558869  1
  O  O206  1  0.168219  0.000000  0.223092  1
  O  O207  1  0.000000  0.500076  0.559068  1
  O  O208  1  0.167984  0.500061  0.290822  1
  O  O209  1  0.831939  0.500096  0.223010  1
  O  O210  1  0.222860  0.250018  0.245924  1
  O  O211  1  0.833837  0.250143  0.536840  1
  O  O212  1  0.943439  0.250052  0.290033  1
  O  O213  1  0.777261  0.750083  0.603855  1
  O  O214  1  0.165958  0.750019  0.312855  1
  O  O215  1  0.056501  0.750056  0.559812  1
  O  O216  1  0.056528  0.750113  0.312849  1
  O  O217  1  0.777135  0.750124  0.559628  1
  O  O218  1  0.166170  0.750008  0.603904  1
  O  O219  1  0.943461  0.250106  0.537005  1
  O  O220  1  0.222674  0.250060  0.290088  1
  O  O221  1  0.833962  0.250135  0.245860  1
  O  O222  1  0.194683  0.479175  0.262325  1
  O  O223  1  0.902633  0.479348  0.548265  1
  O  O224  1  0.902736  0.479292  0.262275  1
  O  O225  1  0.805264  0.979260  0.587398  1
  O  O226  1  0.097202  0.979238  0.301497  1
  O  O227  1  0.097372  0.979245  0.587558  1
  O  O228  1  0.805283  0.520970  0.587406  1
  O  O229  1  0.097189  0.520862  0.301507  1
  O  O230  1  0.097369  0.520817  0.587558  1
  O  O231  1  0.194700  0.020884  0.262325  1
  O  O232  1  0.902633  0.020908  0.548266  1
  O  O233  1  0.902724  0.020932  0.262258  1
  O  O234  1  0.255337  0.580628  0.251289  1
  O  O235  1  0.814644  0.580754  0.523718  1
  O  O236  1  0.930136  0.580664  0.297801  1
  O  O237  1  0.744740  0.080697  0.598454  1
  O  O238  1  0.185136  0.080616  0.325976  1
  O  O239  1  0.069782  0.080648  0.552042  1
  O  O240  1  0.069816  0.080707  0.325966  1
  O  O241  1  0.744643  0.080749  0.551871  1
  O  O242  1  0.185355  0.080603  0.598523  1
  O  O243  1  0.930184  0.580697  0.523872  1
  O  O244  1  0.255175  0.580684  0.297822  1
  O  O245  1  0.814804  0.580735  0.251247  1
  O  O246  1  0.744764  0.419456  0.598464  1
  O  O247  1  0.185124  0.419425  0.325979  1
  O  O248  1  0.069769  0.419464  0.552038  1
  O  O249  1  0.255349  0.919389  0.251289  1
  O  O250  1  0.814650  0.919554  0.523712  1
  O  O251  1  0.930167  0.919457  0.297789  1
  O  O252  1  0.930173  0.919516  0.523874  1
  O  O253  1  0.255197  0.919447  0.297821  1
  O  O254  1  0.814793  0.919534  0.251239  1
  O  O255  1  0.069846  0.419505  0.325988  1
  O  O256  1  0.744657  0.419517  0.551877  1
  O  O257  1  0.185359  0.419395  0.598532  1
  O  O258  1  0.337315  0.749971  0.260332  1
  O  O259  1  0.755306  0.750120  0.490551  1
  O  O260  1  0.907537  0.750255  0.321809  1
  O  O261  1  0.662745  0.250101  0.589357  1
  O  O262  1  0.244610  0.250035  0.359097  1
  O  O263  1  0.092389  0.249985  0.528024  1
  O  O264  1  0.092438  0.249968  0.359120  1
  O  O265  1  0.662674  0.250178  0.527816  1
  O  O266  1  0.244662  0.250044  0.589303  1
  O  O267  1  0.907563  0.750238  0.490727  1
  O  O268  1  0.337196  0.750050  0.321837  1
  O  O269  1  0.755357  0.750131  0.260366  1
  O  O270  1  0.300835  0.749994  0.283752  1
  O  O271  1  0.849739  0.750067  0.505430  1
  O  O272  1  0.849741  0.750197  0.283719  1
  O  O273  1  0.699130  0.250150  0.565957  1
  O  O274  1  0.150238  0.249969  0.344362  1
  O  O275  1  0.150220  0.250097  0.566073  1
  O  O276  1  0.410882  0.500044  0.626608  1
  O  O277  1  0.589136  0.000000  0.626667  1
  O  O278  1  0.410877  -0.000000  0.626609  1
  O  O279  1  0.589144  0.500085  0.626673  1
  O  O280  1  0.482340  0.476418  0.665489  1
  O  O281  1  0.614119  0.476381  0.665544  1
  O  O282  1  0.482334  0.023661  0.665489  1
  O  O283  1  0.614107  0.023707  0.665540  1
  O  O284  1  0.396403  0.581095  0.655749  1
  O  O285  1  0.675895  0.581156  0.655802  1
  O  O286  1  0.396396  0.918959  0.655749  1
  O  O287  1  0.675878  0.918932  0.655797  1
  O  O288  1  0.413165  0.250036  0.649574  1
  O  O289  1  0.643837  0.250047  0.649609  1
  O  O290  1  0.514928  0.582175  0.701337  1
  O  O291  1  0.670246  0.582179  0.701395  1
  O  O292  1  0.514922  0.917918  0.701336  1
  O  O293  1  0.670224  0.917883  0.701389  1
  O  O294  1  0.497471  0.750041  0.727042  1
  O  O295  1  0.751295  0.750189  0.727134  1
  O  O296  1  0.434446  0.750030  0.688667  1
  O  O297  1  0.719377  0.750083  0.688741  1
  O  O298  1  0.526509  0.250047  0.693080  1
  O  O299  1  0.638216  0.250036  0.693128  1
  O  O300  1  0.577228  0.497119  0.688952  1
  O  O301  1  0.577219  0.002970  0.688949  1
  O  O302  1  0.168208  0.500023  0.626764  1
  O  O303  1  0.000000  0.500086  0.694480  1
  O  O304  1  0.831916  0.000000  0.626667  1
  O  O305  1  0.168007  0.000000  0.694490  1
  O  O306  1  0.000000  -0.000000  0.694456  1
  O  O307  1  0.168219  -0.000000  0.626762  1
  O  O308  1  0.167984  0.500061  0.694492  1
  O  O309  1  0.831939  0.500096  0.626679  1
  O  O310  1  0.222860  0.250018  0.649593  1
  O  O311  1  0.943439  0.250052  0.693703  1
  O  O312  1  0.165958  0.750019  0.716525  1
  O  O313  1  0.056528  0.750113  0.716519  1
  O  O314  1  0.222674  0.250060  0.693758  1
  O  O315  1  0.833962  0.250135  0.649529  1
  O  O316  1  0.194683  0.479175  0.665995  1
  O  O317  1  0.902736  0.479292  0.665944  1
  O  O318  1  0.097202  0.979238  0.705166  1
  O  O319  1  0.097189  0.520862  0.705177  1
  O  O320  1  0.194700  0.020884  0.665994  1
  O  O321  1  0.902724  0.020932  0.665927  1
  O  O322  1  0.255337  0.580628  0.654959  1
  O  O323  1  0.930136  0.580664  0.701471  1
  O  O324  1  0.185136  0.080616  0.729645  1
  O  O325  1  0.069816  0.080707  0.729635  1
  O  O326  1  0.255175  0.580684  0.701492  1
  O  O327  1  0.814804  0.580735  0.654917  1
  O  O328  1  0.185124  0.419425  0.729649  1
  O  O329  1  0.255349  0.919389  0.654959  1
  O  O330  1  0.930167  0.919457  0.701458  1
  O  O331  1  0.255197  0.919447  0.701491  1
  O  O332  1  0.814793  0.919534  0.654908  1
  O  O333  1  0.069846  0.419505  0.729658  1
  O  O334  1  0.337315  0.749971  0.664002  1
  O  O335  1  0.907537  0.750255  0.725479  1
  O  O336  1  0.244610  0.250035  0.762767  1
  O  O337  1  0.092438  0.249968  0.762790  1
  O  O338  1  0.337196  0.750050  0.725506  1
  O  O339  1  0.755357  0.750131  0.664036  1
  O  O340  1  0.300835  0.749994  0.687421  1
  O  O341  1  0.849741  0.750197  0.687388  1
  O  O342  1  0.150238  0.249969  0.748032  1
  Si  Si343  1  0.574509  0.952649  0.200573  1
  Si  Si344  1  0.369844  0.952661  0.200532  1
  Si  Si345  1  0.574506  0.547430  0.200577  1
  Si  Si346  1  0.369845  0.547421  0.200532  1
  Si  Si347  1  0.473614  0.953132  0.161601  1
  Si  Si348  1  0.374295  0.953117  0.161573  1
  Si  Si349  1  0.473609  0.546959  0.161605  1
  Si  Si350  1  0.374280  0.546982  0.161569  1
  Si  Si351  1  0.845809  0.453133  0.138488  1
  Si  Si352  1  0.790399  0.953079  0.200640  1
  Si  Si353  1  0.055382  0.953052  0.160991  1
  Si  Si354  1  0.790286  0.953117  0.160802  1
  Si  Si355  1  0.154202  0.953004  0.200717  1
  Si  Si356  1  0.944593  0.453104  0.138637  1
  Si  Si357  1  0.790418  0.547100  0.200648  1
  Si  Si358  1  0.055383  0.547061  0.160992  1
  Si  Si359  1  0.845807  0.047147  0.138485  1
  Si  Si360  1  0.944596  0.047111  0.138639  1
  Si  Si361  1  0.790299  0.547144  0.160809  1
  Si  Si362  1  0.154198  0.547020  0.200719  1
  Si  Si363  1  0.508785  0.250072  0.144101  1
  Si  Si364  1  0.295795  0.250028  0.144104  1
  Si  Si365  1  0.609929  0.250058  0.183360  1
  Si  Si366  1  0.291778  0.250044  0.183346  1
  Si  Si367  1  0.806427  0.750128  0.106756  1
  Si  Si368  1  0.711825  0.250111  0.184821  1
  Si  Si369  1  0.094415  0.250062  0.145020  1
  Si  Si370  1  0.711712  0.250150  0.144851  1
  Si  Si371  1  0.193559  0.250029  0.184882  1
  Si  Si372  1  0.905539  0.750111  0.106905  1
  Si  Si373  1  0.425485  0.452653  0.245361  1
  Si  Si374  1  0.630124  0.452736  0.454903  1
  Si  Si375  1  0.944476  0.452810  0.372335  1
  Si  Si376  1  0.574509  0.952649  0.604243  1
  Si  Si377  1  0.369790  0.952726  0.394683  1
  Si  Si378  1  0.055484  0.952728  0.477504  1
  Si  Si379  1  0.055497  0.952695  0.394741  1
  Si  Si380  1  0.574465  0.952740  0.477258  1
  Si  Si381  1  0.369844  0.952661  0.604202  1
  Si  Si382  1  0.944463  0.452783  0.455117  1
  Si  Si383  1  0.425482  0.452723  0.372343  1
  Si  Si384  1  0.630182  0.452668  0.245409  1
  Si  Si385  1  0.574506  0.547430  0.604247  1
  Si  Si386  1  0.369780  0.547491  0.394683  1
  Si  Si387  1  0.055491  0.547499  0.477518  1
  Si  Si388  1  0.425478  0.047412  0.245361  1
  Si  Si389  1  0.630123  0.047496  0.454904  1
  Si  Si390  1  0.944479  0.047579  0.372341  1
  Si  Si391  1  0.944464  0.047556  0.455105  1
  Si  Si392  1  0.425477  0.047505  0.372338  1
  Si  Si393  1  0.630170  0.047434  0.245404  1
  Si  Si394  1  0.055506  0.547469  0.394736  1
  Si  Si395  1  0.574460  0.547498  0.477255  1
  Si  Si396  1  0.369845  0.547421  0.604202  1
  Si  Si397  1  0.526400  0.453128  0.284323  1
  Si  Si398  1  0.625708  0.453179  0.414152  1
  Si  Si399  1  0.848081  0.453362  0.374193  1
  Si  Si400  1  0.473614  0.953132  0.565270  1
  Si  Si401  1  0.374214  0.953202  0.435433  1
  Si  Si402  1  0.151788  0.953036  0.475580  1
  Si  Si403  1  0.151918  0.953092  0.435514  1
  Si  Si404  1  0.473576  0.953192  0.475490  1
  Si  Si405  1  0.374295  0.953117  0.565242  1
  Si  Si406  1  0.848164  0.453409  0.414302  1
  Si  Si407  1  0.526352  0.453198  0.374092  1
  Si  Si408  1  0.625741  0.453122  0.284369  1
  Si  Si409  1  0.473609  0.546959  0.565275  1
  Si  Si410  1  0.374206  0.547042  0.435433  1
  Si  Si411  1  0.151775  0.546868  0.475579  1
  Si  Si412  1  0.526394  0.046964  0.284322  1
  Si  Si413  1  0.625688  0.047044  0.414150  1
  Si  Si414  1  0.848071  0.047181  0.374189  1
  Si  Si415  1  0.848145  0.047245  0.414297  1
  Si  Si416  1  0.526344  0.047022  0.374085  1
  Si  Si417  1  0.625729  0.046962  0.284365  1
  Si  Si418  1  0.151913  0.546912  0.435514  1
  Si  Si419  1  0.473572  0.547026  0.475489  1
  Si  Si420  1  0.374280  0.546982  0.565238  1
  Si  Si421  1  0.209693  0.453000  0.245456  1
  Si  Si422  1  0.845809  0.453133  0.542157  1
  Si  Si423  1  0.944580  0.453068  0.285197  1
  Si  Si424  1  0.790399  0.953079  0.604309  1
  Si  Si425  1  0.153979  0.953003  0.307538  1
  Si  Si426  1  0.055382  0.953052  0.564660  1
  Si  Si427  1  0.055372  0.953088  0.307532  1
  Si  Si428  1  0.790286  0.953117  0.564471  1
  Si  Si429  1  0.154202  0.953004  0.604386  1
  Si  Si430  1  0.944593  0.453104  0.542307  1
  Si  Si431  1  0.209522  0.453044  0.285236  1
  Si  Si432  1  0.845957  0.453118  0.245389  1
  Si  Si433  1  0.790418  0.547100  0.604318  1
  Si  Si434  1  0.153964  0.547035  0.307542  1
  Si  Si435  1  0.055383  0.547061  0.564661  1
  Si  Si436  1  0.209705  0.047025  0.245454  1
  Si  Si437  1  0.845807  0.047147  0.542154  1
  Si  Si438  1  0.944582  0.047081  0.285178  1
  Si  Si439  1  0.944596  0.047111  0.542308  1
  Si  Si440  1  0.209539  0.047064  0.285235  1
  Si  Si441  1  0.845942  0.047153  0.245379  1
  Si  Si442  1  0.055372  0.547097  0.307549  1
  Si  Si443  1  0.790299  0.547144  0.564478  1
  Si  Si444  1  0.154198  0.547020  0.604389  1
  Si  Si445  1  0.491225  0.750040  0.301823  1
  Si  Si446  1  0.704190  0.750141  0.428377  1
  Si  Si447  1  0.804685  0.750254  0.342484  1
  Si  Si448  1  0.508785  0.250072  0.547771  1
  Si  Si449  1  0.295702  0.250109  0.421261  1
  Si  Si450  1  0.195187  0.249953  0.507280  1
  Si  Si451  1  0.195288  0.250015  0.421320  1
  Si  Si452  1  0.508765  0.250113  0.507194  1
  Si  Si453  1  0.295795  0.250028  0.547773  1
  Si  Si454  1  0.804764  0.750320  0.428479  1
  Si  Si455  1  0.491154  0.750081  0.342382  1
  Si  Si456  1  0.704243  0.750064  0.301892  1
  Si  Si457  1  0.390052  0.750019  0.262577  1
  Si  Si458  1  0.708190  0.750115  0.469238  1
  Si  Si459  1  0.901808  0.750226  0.340819  1
  Si  Si460  1  0.609929  0.250058  0.587029  1
  Si  Si461  1  0.291728  0.250092  0.380406  1
  Si  Si462  1  0.098187  0.250065  0.509031  1
  Si  Si463  1  0.098150  0.250043  0.380441  1
  Si  Si464  1  0.609912  0.250132  0.508780  1
  Si  Si465  1  0.291778  0.250044  0.587015  1
  Si  Si466  1  0.901780  0.750209  0.469395  1
  Si  Si467  1  0.390037  0.750095  0.340821  1
  Si  Si468  1  0.708233  0.750069  0.262645  1
  Si  Si469  1  0.288278  0.749994  0.261238  1
  Si  Si470  1  0.806427  0.750128  0.510426  1
  Si  Si471  1  0.905508  0.750142  0.301143  1
  Si  Si472  1  0.711825  0.250111  0.588490  1
  Si  Si473  1  0.193395  0.250004  0.339271  1
  Si  Si474  1  0.094415  0.250062  0.548689  1
  Si  Si475  1  0.094474  0.250033  0.339275  1
  Si  Si476  1  0.711712  0.250150  0.548521  1
  Si  Si477  1  0.193559  0.250029  0.588551  1
  Si  Si478  1  0.905539  0.750111  0.510574  1
  Si  Si479  1  0.288115  0.750033  0.301152  1
  Si  Si480  1  0.806556  0.750154  0.261206  1
  Si  Si481  1  0.425485  0.452653  0.649031  1
  Si  Si482  1  0.630182  0.452668  0.649078  1
  Si  Si483  1  0.425478  0.047412  0.649031  1
  Si  Si484  1  0.630170  0.047434  0.649074  1
  Si  Si485  1  0.526400  0.453128  0.687992  1
  Si  Si486  1  0.625741  0.453122  0.688038  1
  Si  Si487  1  0.526394  0.046964  0.687992  1
  Si  Si488  1  0.625729  0.046962  0.688034  1
  Si  Si489  1  0.209693  0.453000  0.649125  1
  Si  Si490  1  0.944580  0.453068  0.688866  1
  Si  Si491  1  0.153979  0.953003  0.711207  1
  Si  Si492  1  0.055372  0.953088  0.711201  1
  Si  Si493  1  0.209522  0.453044  0.688906  1
  Si  Si494  1  0.845957  0.453118  0.649059  1
  Si  Si495  1  0.153964  0.547035  0.711211  1
  Si  Si496  1  0.209705  0.047025  0.649123  1
  Si  Si497  1  0.944582  0.047081  0.688848  1
  Si  Si498  1  0.209539  0.047064  0.688905  1
  Si  Si499  1  0.845942  0.047153  0.649048  1
  Si  Si500  1  0.055372  0.547097  0.711218  1
  Si  Si501  1  0.491225  0.750040  0.705492  1
  Si  Si502  1  0.704243  0.750064  0.705562  1
  Si  Si503  1  0.390052  0.750019  0.666246  1
  Si  Si504  1  0.708233  0.750069  0.666315  1
  Si  Si505  1  0.288278  0.749994  0.664907  1
  Si  Si506  1  0.905508  0.750142  0.704813  1
  Si  Si507  1  0.193395  0.250004  0.742940  1
  Si  Si508  1  0.094474  0.250033  0.742944  1
  Si  Si509  1  0.288115  0.750033  0.704821  1
  Si  Si510  1  0.806556  0.750154  0.664876  1
  H  H511  1  0.502490  0.250112  0.110827  1
  H  H512  1  0.248666  0.249965  0.110846  1
  H  H513  1  0.755306  0.750120  0.075164  1
  H  H514  1  0.092389  0.249985  0.112638  1
  H  H515  1  0.662674  0.250178  0.112429  1
  H  H516  1  0.907563  0.750238  0.075340  1
  H  H517  1  0.497471  0.750041  0.738759  1
  H  H518  1  0.751295  0.750189  0.738851  1
  H  H519  1  0.907537  0.750255  0.737196  1
  H  H520  1  0.244610  0.250035  0.774483  1
  H  H521  1  0.092438  0.249968  0.774507  1
  H  H522  1  0.337196  0.750050  0.737223  1
