# generated using pymatgen
data_Si12H2O25
_symmetry_space_group_name_H-M   'P 1'
_cell_length_a   12.27826969
_cell_length_b   10.22726789
_cell_length_c   50.38501695
_cell_angle_alpha   90.00000000
_cell_angle_beta   120.00000000
_cell_angle_gamma   90.00000000
_symmetry_Int_Tables_number   1
_chemical_formula_structural   Si12H2O25
_chemical_formula_sum   'Si48 H8 O100'
_cell_volume   5479.34745762
_cell_formula_units_Z   4
loop_
 _symmetry_equiv_pos_site_id
 _symmetry_equiv_pos_as_xyz
  1  'x, y, z'
loop_
 _atom_site_type_symbol
 _atom_site_label
 _atom_site_symmetry_multiplicity
 _atom_site_fract_x
 _atom_site_fract_y
 _atom_site_fract_z
 _atom_site_occupancy
  O  O1  1  0.922770  0.751035  0.132450  1
  O  O2  1  0.536871  0.751068  0.132452  1
  O  O3  1  0.221142  0.250890  0.209395  1
  O  O4  1  0.313513  0.125376  0.258830  1
  O  O5  1  0.018253  0.125450  0.186943  1
  O  O6  1  0.313225  0.376313  0.258840  1
  O  O7  1  0.018281  0.376388  0.186894  1
  O  O8  1  0.074919  0.250672  0.150989  1
  O  O9  1  0.460814  0.251252  0.245030  1
  O  O10  1  0.460814  0.250661  0.150985  1
  O  O11  1  0.116986  0.518789  0.234734  1
  O  O12  1  0.117262  0.982878  0.234748  1
  O  O13  1  0.554247  0.250882  0.209392  1
  O  O14  1  0.776547  0.750933  0.155224  1
  O  O15  1  0.665043  0.125475  0.186945  1
  O  O16  1  0.979413  0.625445  0.182175  1
  O  O17  1  0.664698  0.125324  0.258822  1
  O  O18  1  0.684284  0.625470  0.182180  1
  O  O19  1  0.979432  0.876383  0.182195  1
  O  O20  1  0.664763  0.376412  0.186892  1
  O  O21  1  0.684358  0.876405  0.182195  1
  O  O22  1  0.665104  0.376261  0.258844  1
  O  O23  1  0.880684  0.018770  0.205969  1
  O  O24  1  0.762392  0.518781  0.234737  1
  O  O25  1  0.762200  0.982888  0.234749  1
  O  O26  1  0.880451  0.482866  0.205865  1
  O  O27  1  0.221141  0.250748  0.371908  1
  O  O28  1  0.443443  0.750797  0.317738  1
  O  O29  1  0.018262  0.125296  0.344940  1
  O  O30  1  0.332964  0.625239  0.340245  1
  O  O31  1  0.313350  0.125244  0.344944  1
  O  O32  1  0.332627  0.625386  0.268291  1
  O  O33  1  0.332610  0.876177  0.340180  1
  O  O34  1  0.018274  0.376231  0.344953  1
  O  O35  1  0.332952  0.876323  0.268305  1
  O  O36  1  0.313386  0.376182  0.344943  1
  O  O37  1  0.235509  0.018812  0.292384  1
  O  O38  1  0.117255  0.518835  0.321271  1
  O  O39  1  0.116993  0.982930  0.321156  1
  O  O40  1  0.235279  0.482919  0.292392  1
  O  O41  1  0.776549  0.750791  0.317736  1
  O  O42  1  0.684444  0.625332  0.268295  1
  O  O43  1  0.979405  0.625290  0.340240  1
  O  O44  1  0.684198  0.876271  0.268298  1
  O  O45  1  0.979440  0.876227  0.340186  1
  O  O46  1  0.922770  0.751035  0.376143  1
  O  O47  1  0.536877  0.750482  0.282101  1
  O  O48  1  0.536871  0.751068  0.376144  1
  O  O49  1  0.880413  0.018823  0.292385  1
  O  O50  1  0.880720  0.482911  0.292396  1
  O  O51  1  0.221142  0.250890  0.453088  1
  O  O52  1  0.313513  0.125376  0.502522  1
  O  O53  1  0.018253  0.125450  0.430636  1
  O  O54  1  0.313225  0.376313  0.502532  1
  O  O55  1  0.018281  0.376388  0.430586  1
  O  O56  1  0.074919  0.250672  0.394682  1
  O  O57  1  0.460814  0.251252  0.488723  1
  O  O58  1  0.460814  0.250661  0.394678  1
  O  O59  1  0.116986  0.518789  0.478426  1
  O  O60  1  0.117262  0.982878  0.478440  1
  O  O61  1  0.554247  0.250882  0.453085  1
  O  O62  1  0.776547  0.750933  0.398916  1
  O  O63  1  0.665043  0.125475  0.430638  1
  O  O64  1  0.979413  0.625445  0.425868  1
  O  O65  1  0.664698  0.125324  0.502515  1
  O  O66  1  0.684284  0.625470  0.425872  1
  O  O67  1  0.979432  0.876383  0.425887  1
  O  O68  1  0.664763  0.376412  0.430585  1
  O  O69  1  0.684358  0.876405  0.425888  1
  O  O70  1  0.665104  0.376261  0.502536  1
  O  O71  1  0.880684  0.018770  0.449662  1
  O  O72  1  0.762392  0.518781  0.478430  1
  O  O73  1  0.762200  0.982888  0.478441  1
  O  O74  1  0.880451  0.482866  0.449558  1
  O  O75  1  0.221141  0.250748  0.615600  1
  O  O76  1  0.443443  0.750797  0.561431  1
  O  O77  1  0.018262  0.125296  0.588632  1
  O  O78  1  0.332964  0.625239  0.583937  1
  O  O79  1  0.313350  0.125244  0.588636  1
  O  O80  1  0.332627  0.625386  0.511984  1
  O  O81  1  0.332610  0.876177  0.583873  1
  O  O82  1  0.018274  0.376231  0.588645  1
  O  O83  1  0.332952  0.876323  0.511998  1
  O  O84  1  0.313386  0.376182  0.588636  1
  O  O85  1  0.235509  0.018812  0.536077  1
  O  O86  1  0.117255  0.518835  0.564964  1
  O  O87  1  0.116993  0.982930  0.564849  1
  O  O88  1  0.235279  0.482919  0.536085  1
  O  O89  1  0.776549  0.750791  0.561429  1
  O  O90  1  0.684444  0.625332  0.511988  1
  O  O91  1  0.979405  0.625290  0.583932  1
  O  O92  1  0.684198  0.876271  0.511990  1
  O  O93  1  0.979440  0.876227  0.583878  1
  O  O94  1  0.922770  0.751035  0.619835  1
  O  O95  1  0.536877  0.750482  0.525793  1
  O  O96  1  0.536871  0.751068  0.619837  1
  O  O97  1  0.880413  0.018823  0.536077  1
  O  O98  1  0.880720  0.482911  0.536089  1
  O  O99  1  0.074919  0.250672  0.638374  1
  O  O100  1  0.460814  0.250661  0.638371  1
  Si  Si101  1  0.331098  0.250944  0.243561  1
  Si  Si102  1  0.080943  0.250852  0.182597  1
  Si  Si103  1  0.250599  0.500854  0.263564  1
  Si  Si104  1  0.250896  0.000000  0.263567  1
  Si  Si105  1  0.584493  0.250858  0.182597  1
  Si  Si106  1  0.916745  0.750941  0.162590  1
  Si  Si107  1  0.584489  0.250920  0.243558  1
  Si  Si108  1  0.666591  0.750957  0.162593  1
  Si  Si109  1  0.746998  0.000000  0.202202  1
  Si  Si110  1  0.998788  0.500877  0.202153  1
  Si  Si111  1  0.746884  0.500890  0.202155  1
  Si  Si112  1  0.998902  0.000000  0.202200  1
  Si  Si113  1  0.746789  0.000000  0.263564  1
  Si  Si114  1  0.747095  0.500819  0.263568  1
  Si  Si115  1  0.080946  0.250745  0.364540  1
  Si  Si116  1  0.413201  0.750819  0.344535  1
  Si  Si117  1  0.331103  0.250716  0.364539  1
  Si  Si118  1  0.413199  0.750755  0.283572  1
  Si  Si119  1  0.250688  0.000000  0.324929  1
  Si  Si120  1  0.250810  0.500784  0.324976  1
  Si  Si121  1  0.666590  0.750727  0.283571  1
  Si  Si122  1  0.916745  0.750835  0.344533  1
  Si  Si123  1  0.998905  0.500812  0.324979  1
  Si  Si124  1  0.998783  0.000000  0.324930  1
  Si  Si125  1  0.331098  0.250944  0.487253  1
  Si  Si126  1  0.080943  0.250852  0.426290  1
  Si  Si127  1  0.250599  0.500854  0.507256  1
  Si  Si128  1  0.250896  -0.000000  0.507260  1
  Si  Si129  1  0.584493  0.250858  0.426290  1
  Si  Si130  1  0.916745  0.750941  0.406283  1
  Si  Si131  1  0.584489  0.250920  0.487251  1
  Si  Si132  1  0.666591  0.750957  0.406286  1
  Si  Si133  1  0.746998  0.000000  0.445894  1
  Si  Si134  1  0.998788  0.500877  0.445846  1
  Si  Si135  1  0.746884  0.500890  0.445848  1
  Si  Si136  1  0.998902  0.000000  0.445893  1
  Si  Si137  1  0.746789  0.000000  0.507256  1
  Si  Si138  1  0.747095  0.500819  0.507261  1
  Si  Si139  1  0.080946  0.250745  0.608233  1
  Si  Si140  1  0.413201  0.750819  0.588227  1
  Si  Si141  1  0.331103  0.250716  0.608231  1
  Si  Si142  1  0.413199  0.750755  0.527265  1
  Si  Si143  1  0.250688  0.000000  0.568622  1
  Si  Si144  1  0.250810  0.500784  0.568669  1
  Si  Si145  1  0.666590  0.750727  0.527263  1
  Si  Si146  1  0.916745  0.750835  0.588226  1
  Si  Si147  1  0.998905  0.500812  0.568671  1
  Si  Si148  1  0.998783  0.000000  0.568623  1
  H  H149  1  0.922770  0.751035  0.114588  1
  H  H150  1  0.536871  0.751068  0.114589  1
  H  H151  1  0.074919  0.250672  0.133127  1
  H  H152  1  0.460814  0.250661  0.133123  1
  H  H153  1  0.922770  0.751035  0.637698  1
  H  H154  1  0.536871  0.751068  0.637699  1
  H  H155  1  0.074919  0.250672  0.656237  1
  H  H156  1  0.460814  0.250661  0.656233  1
