# generated using pymatgen
data_Si9(HO5)4
_symmetry_space_group_name_H-M   'P 1'
_cell_length_a   20.76204315
_cell_length_b   10.15215740
_cell_length_c   44.48947729
_cell_angle_alpha   134.99782056
_cell_angle_beta   90.00000000
_cell_angle_gamma   90.00000000
_symmetry_Int_Tables_number   1
_chemical_formula_structural   Si9(HO5)4
_chemical_formula_sum   'Si36 H16 O80'
_cell_volume   6631.12563687
_cell_formula_units_Z   4
loop_
 _symmetry_equiv_pos_site_id
 _symmetry_equiv_pos_as_xyz
  1  'x, y, z'
loop_
 _atom_site_type_symbol
 _atom_site_label
 _atom_site_symmetry_multiplicity
 _atom_site_fract_x
 _atom_site_fract_y
 _atom_site_fract_z
 _atom_site_occupancy
  O  O1  1  0.000000  0.500132  0.221541  1
  O  O2  1  0.500058  0.259415  0.221546  1
  O  O3  1  0.398128  0.820502  0.179168  1
  O  O4  1  0.898101  0.676291  0.237111  1
  O  O5  1  0.398168  0.179676  0.180212  1
  O  O6  1  0.898176  0.323573  0.180199  1
  O  O7  1  0.898116  0.676290  0.179161  1
  O  O8  1  0.398138  0.179677  0.237121  1
  O  O9  1  0.101891  0.676814  0.237180  1
  O  O10  1  0.602023  0.179690  0.180274  1
  O  O11  1  0.601903  0.820516  0.179230  1
  O  O12  1  0.101913  0.676813  0.179232  1
  O  O13  1  0.601908  0.179685  0.237182  1
  O  O14  1  0.102017  0.324096  0.180270  1
  O  O15  1  0.909584  0.499947  0.260359  1
  O  O16  1  0.409602  0.500091  0.260367  1
  O  O17  1  0.902445  -0.000000  0.260353  1
  O  O18  1  0.402448  0.000000  0.260363  1
  O  O19  1  0.300293  0.000000  0.232750  1
  O  O20  1  0.800283  0.828883  0.232754  1
  O  O21  1  0.199769  0.829154  0.232794  1
  O  O22  1  0.699775  -0.000000  0.232775  1
  O  O23  1  0.000000  0.500139  0.299222  1
  O  O24  1  0.500053  0.740782  0.299213  1
  O  O25  1  0.000000  0.500132  0.382891  1
  O  O26  1  0.500058  0.259415  0.382896  1
  O  O27  1  0.898194  0.323574  0.283602  1
  O  O28  1  0.398128  0.820502  0.340518  1
  O  O29  1  0.898101  0.676291  0.398461  1
  O  O30  1  0.398168  0.179676  0.341562  1
  O  O31  1  0.898176  0.323573  0.341549  1
  O  O32  1  0.398156  0.820504  0.283610  1
  O  O33  1  0.898116  0.676290  0.340512  1
  O  O34  1  0.398138  0.179677  0.398471  1
  O  O35  1  0.101891  0.676814  0.398530  1
  O  O36  1  0.602023  0.179690  0.341624  1
  O  O37  1  0.102037  0.324097  0.283670  1
  O  O38  1  0.601903  0.820516  0.340580  1
  O  O39  1  0.101913  0.676813  0.340582  1
  O  O40  1  0.601908  0.179685  0.398532  1
  O  O41  1  0.102017  0.324096  0.341620  1
  O  O42  1  0.602021  0.820511  0.283671  1
  O  O43  1  0.909584  0.499947  0.421709  1
  O  O44  1  0.409602  0.500091  0.421717  1
  O  O45  1  0.090528  0.500433  0.260422  1
  O  O46  1  0.590509  0.500102  0.260424  1
  O  O47  1  0.902445  0.000000  0.421704  1
  O  O48  1  0.402448  0.000000  0.421713  1
  O  O49  1  0.097666  -0.000000  0.260429  1
  O  O50  1  0.597663  -0.000000  0.260431  1
  O  O51  1  0.800327  0.171167  0.287981  1
  O  O52  1  0.300293  0.000000  0.394100  1
  O  O53  1  0.800283  0.828883  0.394104  1
  O  O54  1  0.300310  -0.000000  0.288005  1
  O  O55  1  0.199769  0.829154  0.394144  1
  O  O56  1  0.699844  -0.000000  0.288030  1
  O  O57  1  0.199844  0.171438  0.288021  1
  O  O58  1  0.699775  0.000000  0.394126  1
  O  O59  1  -0.000000  0.500139  0.460572  1
  O  O60  1  0.500053  0.740782  0.460563  1
  O  O61  1  0.898194  0.323574  0.444952  1
  O  O62  1  0.398128  0.820502  0.501868  1
  O  O63  1  0.398168  0.179676  0.502912  1
  O  O64  1  0.898176  0.323573  0.502899  1
  O  O65  1  0.398156  0.820504  0.444960  1
  O  O66  1  0.898116  0.676290  0.501862  1
  O  O67  1  0.602023  0.179690  0.502975  1
  O  O68  1  0.102037  0.324097  0.445021  1
  O  O69  1  0.601903  0.820516  0.501931  1
  O  O70  1  0.101913  0.676813  0.501932  1
  O  O71  1  0.102017  0.324096  0.502970  1
  O  O72  1  0.602021  0.820511  0.445021  1
  O  O73  1  0.090528  0.500433  0.421772  1
  O  O74  1  0.590509  0.500102  0.421774  1
  O  O75  1  0.097666  0.000000  0.421779  1
  O  O76  1  0.597663  -0.000000  0.421781  1
  O  O77  1  0.800327  0.171167  0.449331  1
  O  O78  1  0.300310  -0.000000  0.449355  1
  O  O79  1  0.699844  -0.000000  0.449380  1
  O  O80  1  0.199844  0.171438  0.449371  1
  Si  Si81  1  0.925145  0.499980  0.225682  1
  Si  Si82  1  0.425157  0.285220  0.225699  1
  Si  Si83  1  0.074953  0.500374  0.225732  1
  Si  Si84  1  0.574958  0.285228  0.225745  1
  Si  Si85  1  0.376784  0.000000  0.226136  1
  Si  Si86  1  0.876770  0.787868  0.226138  1
  Si  Si87  1  0.123266  0.788362  0.226206  1
  Si  Si88  1  0.623271  -0.000000  0.226193  1
  Si  Si89  1  0.925158  0.499982  0.295044  1
  Si  Si90  1  0.425153  0.714965  0.295038  1
  Si  Si91  1  0.925145  0.499980  0.387032  1
  Si  Si92  1  0.425157  0.285220  0.387049  1
  Si  Si93  1  0.074953  0.500374  0.387082  1
  Si  Si94  1  0.574958  0.285228  0.387096  1
  Si  Si95  1  0.074967  0.500376  0.295095  1
  Si  Si96  1  0.574954  0.714974  0.295085  1
  Si  Si97  1  0.876826  0.212018  0.294574  1
  Si  Si98  1  0.376784  0.000000  0.387486  1
  Si  Si99  1  0.876770  0.787868  0.387488  1
  Si  Si100  1  0.376806  -0.000000  0.294597  1
  Si  Si101  1  0.123266  0.788362  0.387556  1
  Si  Si102  1  0.623359  0.000000  0.294655  1
  Si  Si103  1  0.123360  0.212514  0.294643  1
  Si  Si104  1  0.623271  0.000000  0.387543  1
  Si  Si105  1  0.250056  0.000000  0.260392  1
  Si  Si106  1  0.750057  0.000000  0.260385  1
  Si  Si107  1  0.925158  0.499982  0.456395  1
  Si  Si108  1  0.425153  0.714965  0.456388  1
  Si  Si109  1  0.074967  0.500376  0.456445  1
  Si  Si110  1  0.574954  0.714974  0.456435  1
  Si  Si111  1  0.876826  0.212018  0.455925  1
  Si  Si112  1  0.376806  -0.000000  0.455947  1
  Si  Si113  1  0.623359  -0.000000  0.456005  1
  Si  Si114  1  0.123360  0.212514  0.455993  1
  Si  Si115  1  0.250056  0.000000  0.421742  1
  Si  Si116  1  0.750057  -0.000000  0.421735  1
  H  H117  1  0.398128  0.820502  0.158938  1
  H  H118  1  0.398168  0.179676  0.159982  1
  H  H119  1  0.898176  0.323573  0.159970  1
  H  H120  1  0.898116  0.676290  0.158932  1
  H  H121  1  0.602023  0.179690  0.160045  1
  H  H122  1  0.601903  0.820516  0.159001  1
  H  H123  1  0.101913  0.676813  0.159002  1
  H  H124  1  0.102017  0.324096  0.160040  1
  H  H125  1  0.398128  0.820502  0.522097  1
  H  H126  1  0.398168  0.179676  0.523142  1
  H  H127  1  0.898176  0.323573  0.523129  1
  H  H128  1  0.898116  0.676290  0.522091  1
  H  H129  1  0.602023  0.179690  0.523204  1
  H  H130  1  0.601903  0.820516  0.522160  1
  H  H131  1  0.101913  0.676813  0.522162  1
  H  H132  1  0.102017  0.324096  0.523200  1
