# generated using pymatgen
data_Si6H2O13
_symmetry_space_group_name_H-M   'P 1'
_cell_length_a   12.27826969
_cell_length_b   10.22726789
_cell_length_c   38.10656174
_cell_angle_alpha   90.00000000
_cell_angle_beta   120.00000000
_cell_angle_gamma   90.00000000
_symmetry_Int_Tables_number   1
_chemical_formula_structural   Si6H2O13
_chemical_formula_sum   'Si24 H8 O52'
_cell_volume   4144.07109143
_cell_formula_units_Z   4
loop_
 _symmetry_equiv_pos_site_id
 _symmetry_equiv_pos_as_xyz
  1  'x, y, z'
loop_
 _atom_site_type_symbol
 _atom_site_label
 _atom_site_symmetry_multiplicity
 _atom_site_fract_x
 _atom_site_fract_y
 _atom_site_fract_z
 _atom_site_occupancy
  O  O1  1  0.922770  0.751035  0.175127  1
  O  O2  1  0.536871  0.751068  0.175129  1
  O  O3  1  0.221142  0.250890  0.276865  1
  O  O4  1  0.313513  0.125376  0.342228  1
  O  O5  1  0.018253  0.125450  0.247179  1
  O  O6  1  0.313225  0.376313  0.342241  1
  O  O7  1  0.018281  0.376388  0.247113  1
  O  O8  1  0.074919  0.250672  0.199640  1
  O  O9  1  0.460814  0.251252  0.323982  1
  O  O10  1  0.460814  0.250661  0.199635  1
  O  O11  1  0.116986  0.518789  0.310368  1
  O  O12  1  0.117262  0.982878  0.310387  1
  O  O13  1  0.554247  0.250882  0.276861  1
  O  O14  1  0.776547  0.750933  0.205239  1
  O  O15  1  0.665043  0.125475  0.247181  1
  O  O16  1  0.979413  0.625445  0.240875  1
  O  O17  1  0.664698  0.125324  0.342218  1
  O  O18  1  0.684284  0.625470  0.240881  1
  O  O19  1  0.979432  0.876383  0.240901  1
  O  O20  1  0.664763  0.376412  0.247112  1
  O  O21  1  0.684358  0.876405  0.240901  1
  O  O22  1  0.665104  0.376261  0.342247  1
  O  O23  1  0.880684  0.018770  0.272335  1
  O  O24  1  0.762392  0.518781  0.310372  1
  O  O25  1  0.762200  0.982888  0.310388  1
  O  O26  1  0.880451  0.482866  0.272198  1
  O  O27  1  0.221141  0.250748  0.491741  1
  O  O28  1  0.443443  0.750797  0.420118  1
  O  O29  1  0.018262  0.125296  0.456084  1
  O  O30  1  0.332964  0.625239  0.449876  1
  O  O31  1  0.313350  0.125244  0.456089  1
  O  O32  1  0.332627  0.625386  0.354738  1
  O  O33  1  0.332610  0.876177  0.449791  1
  O  O34  1  0.018274  0.376231  0.456101  1
  O  O35  1  0.332952  0.876323  0.354757  1
  O  O36  1  0.313386  0.376182  0.456088  1
  O  O37  1  0.235509  0.018812  0.386595  1
  O  O38  1  0.117255  0.518835  0.424789  1
  O  O39  1  0.116993  0.982930  0.424637  1
  O  O40  1  0.235279  0.482919  0.386605  1
  O  O41  1  0.776549  0.750791  0.420115  1
  O  O42  1  0.684444  0.625332  0.354744  1
  O  O43  1  0.979405  0.625290  0.449870  1
  O  O44  1  0.684198  0.876271  0.354747  1
  O  O45  1  0.979440  0.876227  0.449798  1
  O  O46  1  0.922770  0.751035  0.497341  1
  O  O47  1  0.536877  0.750482  0.372997  1
  O  O48  1  0.536871  0.751068  0.497343  1
  O  O49  1  0.880413  0.018823  0.386595  1
  O  O50  1  0.880720  0.482911  0.386610  1
  O  O51  1  0.074919  0.250672  0.521854  1
  O  O52  1  0.460814  0.250661  0.521849  1
  Si  Si53  1  0.331098  0.250944  0.322039  1
  Si  Si54  1  0.080943  0.250852  0.241433  1
  Si  Si55  1  0.250599  0.500854  0.348487  1
  Si  Si56  1  0.250896  0.000000  0.348492  1
  Si  Si57  1  0.584493  0.250858  0.241432  1
  Si  Si58  1  0.916745  0.750941  0.214979  1
  Si  Si59  1  0.584489  0.250920  0.322036  1
  Si  Si60  1  0.666591  0.750957  0.214983  1
  Si  Si61  1  0.746998  -0.000000  0.267354  1
  Si  Si62  1  0.998788  0.500877  0.267290  1
  Si  Si63  1  0.746884  0.500890  0.267292  1
  Si  Si64  1  0.998902  -0.000000  0.267352  1
  Si  Si65  1  0.746789  0.000000  0.348487  1
  Si  Si66  1  0.747095  0.500819  0.348493  1
  Si  Si67  1  0.080946  0.250745  0.482000  1
  Si  Si68  1  0.413201  0.750819  0.455549  1
  Si  Si69  1  0.331103  0.250716  0.481998  1
  Si  Si70  1  0.413199  0.750755  0.374943  1
  Si  Si71  1  0.250688  0.000000  0.429626  1
  Si  Si72  1  0.250810  0.500784  0.429688  1
  Si  Si73  1  0.666590  0.750727  0.374941  1
  Si  Si74  1  0.916745  0.750835  0.455547  1
  Si  Si75  1  0.998905  0.500812  0.429691  1
  Si  Si76  1  0.998783  0.000000  0.429627  1
  H  H77  1  0.922770  0.751035  0.151509  1
  H  H78  1  0.536871  0.751068  0.151511  1
  H  H79  1  0.074919  0.250672  0.176022  1
  H  H80  1  0.460814  0.250661  0.176017  1
  H  H81  1  0.922770  0.751035  0.520959  1
  H  H82  1  0.536871  0.751068  0.520961  1
  H  H83  1  0.074919  0.250672  0.545472  1
  H  H84  1  0.460814  0.250661  0.545467  1
