# generated using pymatgen
data_Si6H2O13
_symmetry_space_group_name_H-M   'P 1'
_cell_length_a   9.18649954
_cell_length_b   9.99498220
_cell_length_c   35.75201122
_cell_angle_alpha   90.00000000
_cell_angle_beta   90.00000000
_cell_angle_gamma   90.00000000
_symmetry_Int_Tables_number   1
_chemical_formula_structural   Si6H2O13
_chemical_formula_sum   'Si24 H8 O52'
_cell_volume   3282.71032125
_cell_formula_units_Z   4
loop_
 _symmetry_equiv_pos_site_id
 _symmetry_equiv_pos_as_xyz
  1  'x, y, z'
loop_
 _atom_site_type_symbol
 _atom_site_label
 _atom_site_symmetry_multiplicity
 _atom_site_fract_x
 _atom_site_fract_y
 _atom_site_fract_z
 _atom_site_occupancy
  O  O1  1  0.514440  0.154938  0.165626  1
  O  O2  1  0.485253  0.654938  0.297778  1
  O  O3  1  0.742850  0.404745  0.356319  1
  O  O4  1  0.014442  0.094918  0.169332  1
  O  O5  1  0.985249  0.594916  0.294071  1
  O  O6  1  0.242851  0.845104  0.235530  1
  O  O7  1  0.756841  0.345104  0.227874  1
  O  O8  1  0.440761  -0.000000  0.216540  1
  O  O9  1  0.558928  0.500116  0.246864  1
  O  O10  1  0.058931  0.749739  0.344984  1
  O  O11  1  0.259124  0.176250  0.197676  1
  O  O12  1  0.740564  0.676252  0.265728  1
  O  O13  1  0.867518  0.426161  0.165026  1
  O  O14  1  0.132176  0.926162  0.298379  1
  O  O15  1  0.240565  0.573604  0.326121  1
  O  O16  1  0.367520  0.823690  0.169934  1
  O  O17  1  0.632173  0.323694  0.293471  1
  O  O18  1  0.496424  0.250174  0.232503  1
  O  O19  1  0.503264  0.750174  0.230902  1
  O  O20  1  0.996425  0.000000  0.359347  1
  O  O21  1  0.017009  0.294895  0.213533  1
  O  O22  1  0.982684  0.794891  0.249871  1
  O  O23  1  0.929091  0.544921  0.227236  1
  O  O24  1  0.070599  0.044924  0.236170  1
  O  O25  1  0.482685  0.454962  0.341978  1
  O  O26  1  0.570602  0.204932  0.355681  1
  O  O27  1  0.514440  0.154938  0.422517  1
  O  O28  1  0.485253  0.654938  0.554669  1
  O  O29  1  0.256842  0.904749  0.363975  1
  O  O30  1  0.014442  0.094918  0.426223  1
  O  O31  1  0.985249  0.594916  0.550962  1
  O  O32  1  0.242851  0.845104  0.492421  1
  O  O33  1  0.756841  0.345104  0.484765  1
  O  O34  1  0.440761  -0.000000  0.473431  1
  O  O35  1  0.558928  0.500116  0.503755  1
  O  O36  1  0.940763  0.249738  0.375310  1
  O  O37  1  0.259124  0.176250  0.454567  1
  O  O38  1  0.740564  0.676252  0.522618  1
  O  O39  1  0.867518  0.426161  0.421916  1
  O  O40  1  0.132176  0.926162  0.555270  1
  O  O41  1  0.759125  0.073603  0.394174  1
  O  O42  1  0.367520  0.823690  0.426825  1
  O  O43  1  0.632173  0.323694  0.550361  1
  O  O44  1  0.496424  0.250174  0.489394  1
  O  O45  1  0.503264  0.750174  0.487793  1
  O  O46  1  0.003267  0.499681  0.360947  1
  O  O47  1  0.017009  0.294895  0.470424  1
  O  O48  1  0.982684  0.794891  0.506762  1
  O  O49  1  0.929091  0.544921  0.484126  1
  O  O50  1  0.070599  0.044924  0.493061  1
  O  O51  1  0.517005  0.954962  0.378316  1
  O  O52  1  0.429093  0.704932  0.364614  1
  Si  Si53  1  0.427427  0.150863  0.203480  1
  Si  Si54  1  0.572263  0.650863  0.259924  1
  Si  Si55  1  0.109546  0.900557  0.341610  1
  Si  Si56  1  0.072263  0.598994  0.331926  1
  Si  Si57  1  0.390142  0.849297  0.213165  1
  Si  Si58  1  0.609548  0.349298  0.250239  1
  Si  Si59  1  0.091049  0.155433  0.204954  1
  Si  Si60  1  0.908642  0.655435  0.258450  1
  Si  Si61  1  0.895622  0.405455  0.208223  1
  Si  Si62  1  0.104069  0.905457  0.255181  1
  Si  Si63  1  0.408641  0.594421  0.333400  1
  Si  Si64  1  0.604068  0.344398  0.336669  1
  Si  Si65  1  0.427427  0.150863  0.460370  1
  Si  Si66  1  0.572263  0.650863  0.516815  1
  Si  Si67  1  0.890140  0.400558  0.378685  1
  Si  Si68  1  0.927427  0.098991  0.388370  1
  Si  Si69  1  0.390142  0.849297  0.470056  1
  Si  Si70  1  0.609548  0.349298  0.507130  1
  Si  Si71  1  0.091049  0.155433  0.461845  1
  Si  Si72  1  0.908642  0.655435  0.515341  1
  Si  Si73  1  0.895622  0.405455  0.465114  1
  Si  Si74  1  0.104069  0.905457  0.512072  1
  Si  Si75  1  0.591048  0.094420  0.386895  1
  Si  Si76  1  0.395621  0.844397  0.383627  1
  H  H77  1  0.514440  0.154938  0.140452  1
  H  H78  1  0.014442  0.094918  0.144159  1
  H  H79  1  0.867518  0.426161  0.139852  1
  H  H80  1  0.367520  0.823690  0.144760  1
  H  H81  1  0.485253  0.654938  0.579843  1
  H  H82  1  0.985249  0.594916  0.576136  1
  H  H83  1  0.132176  0.926162  0.580443  1
  H  H84  1  0.632173  0.323694  0.575535  1
