# generated using pymatgen
data_Si6H2O13
_symmetry_space_group_name_H-M   'P 1'
_cell_length_a   22.81355033
_cell_length_b   22.29290311
_cell_length_c   67.54555784
_cell_angle_alpha   149.99892106
_cell_angle_beta   90.00000000
_cell_angle_gamma   90.00000000
_symmetry_Int_Tables_number   1
_chemical_formula_structural   Si6H2O13
_chemical_formula_sum   'Si108 H36 O234'
_cell_volume   17176.7291467
_cell_formula_units_Z   18
loop_
 _symmetry_equiv_pos_site_id
 _symmetry_equiv_pos_as_xyz
  1  'x, y, z'
loop_
 _atom_site_type_symbol
 _atom_site_label
 _atom_site_symmetry_multiplicity
 _atom_site_fract_x
 _atom_site_fract_y
 _atom_site_fract_z
 _atom_site_occupancy
  O  O1  1  0.927126  0.104480  0.161368  1
  O  O2  1  0.824539  0.219977  0.161399  1
  O  O3  1  0.842115  0.446932  0.161387  1
  O  O4  1  0.508697  0.113577  0.161458  1
  O  O5  1  0.406151  0.228944  0.161430  1
  O  O6  1  0.414624  0.456373  0.161452  1
  O  O7  1  0.081281  0.123167  0.161399  1
  O  O8  1  0.260447  0.437785  0.161400  1
  O  O9  1  0.251971  0.210382  0.161419  1
  O  O10  1  0.739478  0.562432  0.161417  1
  O  O11  1  0.918658  0.877071  0.161378  1
  O  O12  1  0.747919  0.789794  0.161427  1
  O  O13  1  0.593774  0.771133  0.161451  1
  O  O14  1  0.585351  0.543828  0.161441  1
  O  O15  1  0.491185  0.886562  0.161437  1
  O  O16  1  0.072801  0.895769  0.161422  1
  O  O17  1  0.175398  0.780337  0.161404  1
  O  O18  1  0.157880  0.553137  0.161387  1
  O  O19  1  0.888644  0.654796  0.280105  1
  O  O20  1  0.888654  0.313798  0.215123  1
  O  O21  1  0.777940  0.353098  0.226362  1
  O  O22  1  0.777909  0.635219  0.280138  1
  O  O23  1  0.927138  0.791324  0.292253  1
  O  O24  1  0.927126  0.104480  0.351912  1
  O  O25  1  0.842046  0.447059  0.226318  1
  O  O26  1  -0.000000  0.729254  0.300320  1
  O  O27  1  0.000000  0.270986  0.213006  1
  O  O28  1  0.888694  0.654720  0.226353  1
  O  O29  1  0.888666  0.031792  0.298191  1
  O  O30  1  0.777988  0.635084  0.215128  1
  O  O31  1  0.918665  0.877082  0.281604  1
  O  O32  1  0.824539  0.219977  0.351943  1
  O  O33  1  0.777949  0.012173  0.286994  1
  O  O34  1  0.842115  0.446932  0.351931  1
  O  O35  1  0.842062  0.106399  0.287038  1
  O  O36  1  0.747966  0.789813  0.231737  1
  O  O37  1  0.824514  0.560537  0.226305  1
  O  O38  1  -0.000000  0.000000  0.300312  1
  O  O39  1  0.000000  0.729263  0.248719  1
  O  O40  1  0.444599  0.301767  0.215187  1
  O  O41  1  0.444583  0.678751  0.287020  1
  O  O42  1  0.414593  0.456364  0.231733  1
  O  O43  1  0.508767  0.772896  0.287058  1
  O  O44  1  0.508697  0.113577  0.352002  1
  O  O45  1  0.406117  0.542242  0.221132  1
  O  O46  1  0.406151  0.228944  0.351974  1
  O  O47  1  0.593789  0.771248  0.221151  1
  O  O48  1  0.555347  0.698354  0.233258  1
  O  O49  1  0.444619  0.678746  0.233278  1
  O  O50  1  0.414624  0.456373  0.351996  1
  O  O51  1  0.555328  0.980508  0.287054  1
  O  O52  1  0.414638  0.087336  0.281663  1
  O  O53  1  0.491229  0.886507  0.287092  1
  O  O54  1  0.444605  0.019665  0.298248  1
  O  O55  1  0.666664  0.666781  0.213042  1
  O  O56  1  0.666632  0.937698  0.264681  1
  O  O57  1  0.081281  0.123167  0.351943  1
  O  O58  1  0.081313  0.754282  0.281678  1
  O  O59  1  0.260463  0.437759  0.221078  1
  O  O60  1  0.333284  0.333386  0.213041  1
  O  O61  1  0.333268  0.604260  0.264648  1
  O  O62  1  0.111288  0.968416  0.280089  1
  O  O63  1  0.333305  0.062509  0.300364  1
  O  O64  1  0.260480  0.124598  0.292291  1
  O  O65  1  0.072816  0.895774  0.292272  1
  O  O66  1  0.260447  0.437785  0.351944  1
  O  O67  1  0.221997  0.988018  0.280104  1
  O  O68  1  0.222003  0.647084  0.215135  1
  O  O69  1  0.251962  0.579319  0.231692  1
  O  O70  1  0.175413  0.780214  0.226268  1
  O  O71  1  0.111295  0.686444  0.226377  1
  O  O72  1  0.251971  0.210382  0.351963  1
  O  O73  1  0.333294  0.604268  0.213036  1
  O  O74  1  0.927122  0.104426  0.221046  1
  O  O75  1  0.739447  0.875613  0.221111  1
  O  O76  1  0.739483  0.562386  0.292268  1
  O  O77  1  0.739478  0.562432  0.351961  1
  O  O78  1  0.888660  0.313733  0.286941  1
  O  O79  1  0.888620  0.031704  0.233206  1
  O  O80  1  0.777894  0.012145  0.233253  1
  O  O81  1  0.777977  0.353146  0.298215  1
  O  O82  1  0.918658  0.877071  0.351922  1
  O  O83  1  0.918619  0.245958  0.231650  1
  O  O84  1  0.747919  0.789794  0.351971  1
  O  O85  1  0.747977  0.420841  0.281650  1
  O  O86  1  0.824520  0.219885  0.287023  1
  O  O87  1  -0.000000  0.000000  0.213017  1
  O  O88  1  0.666672  0.395924  0.300358  1
  O  O89  1  -0.000000  0.270939  0.264595  1
  O  O90  1  0.593820  0.457896  0.292281  1
  O  O91  1  0.593774  0.771133  0.351995  1
  O  O92  1  0.406148  0.228983  0.292314  1
  O  O93  1  0.555353  0.321444  0.280164  1
  O  O94  1  0.555283  0.698390  0.298258  1
  O  O95  1  0.555325  0.321336  0.226393  1
  O  O96  1  0.555299  0.980410  0.215173  1
  O  O97  1  0.444610  0.019715  0.226407  1
  O  O98  1  0.444646  0.301790  0.280181  1
  O  O99  1  0.585351  0.543828  0.351985  1
  O  O100  1  0.585289  0.912825  0.231781  1
  O  O101  1  0.585304  0.543729  0.281676  1
  O  O102  1  0.508748  0.113638  0.226349  1
  O  O103  1  0.491185  0.886562  0.351981  1
  O  O104  1  0.491174  0.227246  0.226381  1
  O  O105  1  0.666646  0.395868  0.248727  1
  O  O106  1  0.666593  0.666789  0.300371  1
  O  O107  1  0.666590  0.937645  0.213048  1
  O  O108  1  0.072796  0.208888  0.221061  1
  O  O109  1  0.072801  0.895769  0.351966  1
  O  O110  1  0.221959  0.647059  0.286963  1
  O  O111  1  0.222008  0.364970  0.298185  1
  O  O112  1  0.221964  0.365135  0.233267  1
  O  O113  1  0.222009  0.988071  0.226387  1
  O  O114  1  0.111255  0.345515  0.233262  1
  O  O115  1  0.111281  0.968499  0.215156  1
  O  O116  1  0.111274  0.345405  0.286959  1
  O  O117  1  0.111267  0.686461  0.298212  1
  O  O118  1  0.252004  0.210393  0.281656  1
  O  O119  1  0.081262  0.123123  0.231711  1
  O  O120  1  0.175398  0.780337  0.351947  1
  O  O121  1  0.175414  0.439701  0.287059  1
  O  O122  1  0.157880  0.553137  0.351931  1
  O  O123  1  0.157868  0.893780  0.226283  1
  O  O124  1  0.157828  0.553294  0.287075  1
  O  O125  1  0.333321  0.062505  0.248747  1
  O  O126  1  0.333329  0.333381  0.300359  1
  O  O127  1  0.888644  0.654796  0.470649  1
  O  O128  1  0.888654  0.313798  0.405667  1
  O  O129  1  0.777940  0.353098  0.416906  1
  O  O130  1  0.777909  0.635219  0.470682  1
  O  O131  1  0.927138  0.791324  0.482797  1
  O  O132  1  0.927126  0.104480  0.542456  1
  O  O133  1  0.842046  0.447059  0.416862  1
  O  O134  1  -0.000000  0.729254  0.490863  1
  O  O135  1  0.000000  0.270986  0.403550  1
  O  O136  1  0.888694  0.654720  0.416897  1
  O  O137  1  0.888666  0.031792  0.488735  1
  O  O138  1  0.777988  0.635084  0.405672  1
  O  O139  1  0.918665  0.877082  0.472148  1
  O  O140  1  0.824539  0.219977  0.542487  1
  O  O141  1  0.777949  0.012173  0.477538  1
  O  O142  1  0.842115  0.446932  0.542475  1
  O  O143  1  0.842062  0.106399  0.477582  1
  O  O144  1  0.747966  0.789813  0.422281  1
  O  O145  1  0.824514  0.560537  0.416849  1
  O  O146  1  -0.000000  0.000000  0.490856  1
  O  O147  1  0.000000  0.729263  0.439263  1
  O  O148  1  0.444599  0.301767  0.405731  1
  O  O149  1  0.444583  0.678751  0.477564  1
  O  O150  1  0.414593  0.456364  0.422277  1
  O  O151  1  0.508767  0.772896  0.477602  1
  O  O152  1  0.508697  0.113577  0.542545  1
  O  O153  1  0.406117  0.542242  0.411676  1
  O  O154  1  0.406151  0.228944  0.542518  1
  O  O155  1  0.593789  0.771248  0.411695  1
  O  O156  1  0.555347  0.698354  0.423802  1
  O  O157  1  0.444619  0.678746  0.423822  1
  O  O158  1  0.414624  0.456373  0.542540  1
  O  O159  1  0.555328  0.980508  0.477598  1
  O  O160  1  0.414638  0.087336  0.472207  1
  O  O161  1  0.491229  0.886507  0.477636  1
  O  O162  1  0.444605  0.019665  0.488792  1
  O  O163  1  0.666664  0.666781  0.403586  1
  O  O164  1  0.666632  0.937698  0.455225  1
  O  O165  1  0.081281  0.123167  0.542487  1
  O  O166  1  0.081313  0.754282  0.472222  1
  O  O167  1  0.260463  0.437759  0.411622  1
  O  O168  1  0.333284  0.333386  0.403585  1
  O  O169  1  0.333268  0.604260  0.455192  1
  O  O170  1  0.111288  0.968416  0.470633  1
  O  O171  1  0.333305  0.062509  0.490908  1
  O  O172  1  0.260480  0.124598  0.482835  1
  O  O173  1  0.072816  0.895774  0.482815  1
  O  O174  1  0.260447  0.437785  0.542488  1
  O  O175  1  0.221997  0.988018  0.470648  1
  O  O176  1  0.222003  0.647084  0.405679  1
  O  O177  1  0.251962  0.579319  0.422236  1
  O  O178  1  0.175413  0.780214  0.416811  1
  O  O179  1  0.111295  0.686444  0.416921  1
  O  O180  1  0.251971  0.210382  0.542507  1
  O  O181  1  0.333294  0.604268  0.403580  1
  O  O182  1  0.927122  0.104426  0.411590  1
  O  O183  1  0.739447  0.875613  0.411655  1
  O  O184  1  0.739483  0.562386  0.482812  1
  O  O185  1  0.739478  0.562432  0.542505  1
  O  O186  1  0.888660  0.313733  0.477485  1
  O  O187  1  0.888620  0.031704  0.423750  1
  O  O188  1  0.777894  0.012145  0.423797  1
  O  O189  1  0.777977  0.353146  0.488759  1
  O  O190  1  0.918658  0.877071  0.542466  1
  O  O191  1  0.918619  0.245958  0.422194  1
  O  O192  1  0.747919  0.789794  0.542515  1
  O  O193  1  0.747977  0.420841  0.472193  1
  O  O194  1  0.824520  0.219885  0.477567  1
  O  O195  1  0.000000  -0.000000  0.403561  1
  O  O196  1  0.666672  0.395924  0.490902  1
  O  O197  1  0.000000  0.270939  0.455139  1
  O  O198  1  0.593820  0.457896  0.482825  1
  O  O199  1  0.593774  0.771133  0.542538  1
  O  O200  1  0.406148  0.228983  0.482858  1
  O  O201  1  0.555353  0.321444  0.470708  1
  O  O202  1  0.555283  0.698390  0.488802  1
  O  O203  1  0.555325  0.321336  0.416937  1
  O  O204  1  0.555299  0.980410  0.405716  1
  O  O205  1  0.444610  0.019715  0.416951  1
  O  O206  1  0.444646  0.301790  0.470725  1
  O  O207  1  0.585351  0.543828  0.542529  1
  O  O208  1  0.585289  0.912825  0.422325  1
  O  O209  1  0.585304  0.543729  0.472220  1
  O  O210  1  0.508748  0.113638  0.416893  1
  O  O211  1  0.491185  0.886562  0.542525  1
  O  O212  1  0.491174  0.227246  0.416925  1
  O  O213  1  0.666646  0.395868  0.439271  1
  O  O214  1  0.666593  0.666789  0.490915  1
  O  O215  1  0.666590  0.937645  0.403592  1
  O  O216  1  0.072796  0.208888  0.411605  1
  O  O217  1  0.072801  0.895769  0.542510  1
  O  O218  1  0.221959  0.647059  0.477507  1
  O  O219  1  0.222008  0.364970  0.488729  1
  O  O220  1  0.221964  0.365135  0.423811  1
  O  O221  1  0.222009  0.988071  0.416931  1
  O  O222  1  0.111255  0.345515  0.423806  1
  O  O223  1  0.111281  0.968499  0.405700  1
  O  O224  1  0.111274  0.345405  0.477503  1
  O  O225  1  0.111267  0.686461  0.488756  1
  O  O226  1  0.252004  0.210393  0.472200  1
  O  O227  1  0.081262  0.123123  0.422255  1
  O  O228  1  0.175398  0.780337  0.542491  1
  O  O229  1  0.175414  0.439701  0.477603  1
  O  O230  1  0.157880  0.553137  0.542475  1
  O  O231  1  0.157868  0.893780  0.416827  1
  O  O232  1  0.157828  0.553294  0.477619  1
  O  O233  1  0.333321  0.062505  0.439291  1
  O  O234  1  0.333329  0.333381  0.490903  1
  Si  Si235  1  0.833294  0.333483  0.207195  1
  Si  Si236  1  0.833262  0.573875  0.253015  1
  Si  Si237  1  0.932733  0.760658  0.306237  1
  Si  Si238  1  0.932709  0.239178  0.206869  1
  Si  Si239  1  0.932732  -0.000000  0.306417  1
  Si  Si240  1  0.932749  0.760662  0.260743  1
  Si  Si241  1  0.733896  0.666454  0.206911  1
  Si  Si242  1  0.733868  0.906269  0.252621  1
  Si  Si243  1  0.833300  0.093137  0.306146  1
  Si  Si244  1  0.833337  0.573750  0.207185  1
  Si  Si245  1  0.499948  0.759708  0.306186  1
  Si  Si246  1  0.499946  0.240437  0.207252  1
  Si  Si247  1  0.400532  0.333042  0.206929  1
  Si  Si248  1  0.400517  0.572844  0.252627  1
  Si  Si249  1  0.499997  0.759662  0.260377  1
  Si  Si250  1  0.599381  0.905964  0.252663  1
  Si  Si251  1  0.599412  0.667121  0.207131  1
  Si  Si252  1  0.400533  0.572869  0.207138  1
  Si  Si253  1  0.400554  0.094231  0.306477  1
  Si  Si254  1  0.499966  -0.000000  0.306204  1
  Si  Si255  1  0.266035  0.572466  0.252578  1
  Si  Si256  1  0.266048  0.333733  0.207108  1
  Si  Si257  1  0.067218  0.761080  0.306464  1
  Si  Si258  1  0.067194  0.239575  0.207085  1
  Si  Si259  1  0.266047  0.572490  0.206897  1
  Si  Si260  1  0.166651  0.666716  0.207185  1
  Si  Si261  1  0.067216  -0.000000  0.306253  1
  Si  Si262  1  0.166648  0.907049  0.252973  1
  Si  Si263  1  0.266068  0.093944  0.306278  1
  Si  Si264  1  0.067234  0.761074  0.260775  1
  Si  Si265  1  0.733855  0.666495  0.306281  1
  Si  Si266  1  0.733903  0.427722  0.306460  1
  Si  Si267  1  0.833278  0.093079  0.260335  1
  Si  Si268  1  0.932707  0.239122  0.252540  1
  Si  Si269  1  0.932714  -0.000000  0.207068  1
  Si  Si270  1  0.833326  0.333435  0.306137  1
  Si  Si271  1  0.733839  0.906233  0.207114  1
  Si  Si272  1  0.733891  0.427672  0.260759  1
  Si  Si273  1  0.499985  0.240482  0.253061  1
  Si  Si274  1  0.499957  -0.000000  0.207234  1
  Si  Si275  1  0.400557  0.333059  0.306308  1
  Si  Si276  1  0.599422  0.427335  0.306296  1
  Si  Si277  1  0.599367  0.667081  0.306498  1
  Si  Si278  1  0.599405  0.427239  0.260772  1
  Si  Si279  1  0.599356  0.905865  0.206948  1
  Si  Si280  1  0.400560  0.094256  0.260797  1
  Si  Si281  1  0.166610  0.426479  0.260382  1
  Si  Si282  1  0.166629  0.907128  0.207201  1
  Si  Si283  1  0.166604  0.666781  0.306153  1
  Si  Si284  1  0.166657  0.426334  0.306135  1
  Si  Si285  1  0.067192  0.239537  0.252570  1
  Si  Si286  1  0.266070  0.333692  0.306447  1
  Si  Si287  1  0.266077  0.093956  0.260785  1
  Si  Si288  1  0.067199  0.000000  0.206916  1
  Si  Si289  1  0.833294  0.333483  0.397739  1
  Si  Si290  1  0.833262  0.573875  0.443559  1
  Si  Si291  1  0.932733  0.760658  0.496781  1
  Si  Si292  1  0.932709  0.239178  0.397413  1
  Si  Si293  1  0.932732  -0.000000  0.496961  1
  Si  Si294  1  0.932749  0.760662  0.451287  1
  Si  Si295  1  0.733896  0.666454  0.397455  1
  Si  Si296  1  0.733868  0.906269  0.443165  1
  Si  Si297  1  0.833300  0.093137  0.496690  1
  Si  Si298  1  0.833337  0.573750  0.397729  1
  Si  Si299  1  0.499948  0.759708  0.496730  1
  Si  Si300  1  0.499946  0.240437  0.397796  1
  Si  Si301  1  0.400532  0.333042  0.397473  1
  Si  Si302  1  0.400517  0.572844  0.443171  1
  Si  Si303  1  0.499997  0.759662  0.450921  1
  Si  Si304  1  0.599381  0.905964  0.443207  1
  Si  Si305  1  0.599412  0.667121  0.397675  1
  Si  Si306  1  0.400533  0.572869  0.397682  1
  Si  Si307  1  0.400554  0.094231  0.497021  1
  Si  Si308  1  0.499966  -0.000000  0.496748  1
  Si  Si309  1  0.266035  0.572466  0.443122  1
  Si  Si310  1  0.266048  0.333733  0.397652  1
  Si  Si311  1  0.067218  0.761080  0.497008  1
  Si  Si312  1  0.067194  0.239575  0.397629  1
  Si  Si313  1  0.266047  0.572490  0.397441  1
  Si  Si314  1  0.166651  0.666716  0.397729  1
  Si  Si315  1  0.067216  -0.000000  0.496797  1
  Si  Si316  1  0.166648  0.907049  0.443517  1
  Si  Si317  1  0.266068  0.093944  0.496822  1
  Si  Si318  1  0.067234  0.761074  0.451319  1
  Si  Si319  1  0.733855  0.666495  0.496824  1
  Si  Si320  1  0.733903  0.427722  0.497004  1
  Si  Si321  1  0.833278  0.093079  0.450879  1
  Si  Si322  1  0.932707  0.239122  0.443084  1
  Si  Si323  1  0.932714  0.000000  0.397612  1
  Si  Si324  1  0.833326  0.333435  0.496681  1
  Si  Si325  1  0.733839  0.906233  0.397658  1
  Si  Si326  1  0.733891  0.427672  0.451303  1
  Si  Si327  1  0.499985  0.240482  0.443604  1
  Si  Si328  1  0.499957  -0.000000  0.397777  1
  Si  Si329  1  0.400557  0.333059  0.496852  1
  Si  Si330  1  0.599422  0.427335  0.496840  1
  Si  Si331  1  0.599367  0.667081  0.497042  1
  Si  Si332  1  0.599405  0.427239  0.451316  1
  Si  Si333  1  0.599356  0.905865  0.397492  1
  Si  Si334  1  0.400560  0.094256  0.451341  1
  Si  Si335  1  0.166610  0.426479  0.450926  1
  Si  Si336  1  0.166629  0.907128  0.397745  1
  Si  Si337  1  0.166604  0.666781  0.496696  1
  Si  Si338  1  0.166657  0.426334  0.496679  1
  Si  Si339  1  0.067192  0.239537  0.443114  1
  Si  Si340  1  0.266070  0.333692  0.496990  1
  Si  Si341  1  0.266077  0.093956  0.451328  1
  Si  Si342  1  0.067199  -0.000000  0.397460  1
  H  H343  1  0.927126  0.104480  0.148043  1
  H  H344  1  0.824539  0.219977  0.148074  1
  H  H345  1  0.842115  0.446932  0.148063  1
  H  H346  1  0.508697  0.113577  0.148133  1
  H  H347  1  0.406151  0.228944  0.148106  1
  H  H348  1  0.414624  0.456373  0.148128  1
  H  H349  1  0.081281  0.123167  0.148075  1
  H  H350  1  0.260447  0.437785  0.148076  1
  H  H351  1  0.251971  0.210382  0.148095  1
  H  H352  1  0.739478  0.562432  0.148093  1
  H  H353  1  0.918658  0.877071  0.148054  1
  H  H354  1  0.747919  0.789794  0.148103  1
  H  H355  1  0.593774  0.771133  0.148126  1
  H  H356  1  0.585351  0.543828  0.148117  1
  H  H357  1  0.491185  0.886562  0.148113  1
  H  H358  1  0.072801  0.895769  0.148098  1
  H  H359  1  0.175398  0.780337  0.148079  1
  H  H360  1  0.157880  0.553137  0.148063  1
  H  H361  1  0.927126  0.104480  0.555780  1
  H  H362  1  0.824539  0.219977  0.555811  1
  H  H363  1  0.842115  0.446932  0.555799  1
  H  H364  1  0.508697  0.113577  0.555870  1
  H  H365  1  0.406151  0.228944  0.555842  1
  H  H366  1  0.414624  0.456373  0.555864  1
  H  H367  1  0.081281  0.123167  0.555812  1
  H  H368  1  0.260447  0.437785  0.555812  1
  H  H369  1  0.251971  0.210382  0.555832  1
  H  H370  1  0.739478  0.562432  0.555829  1
  H  H371  1  0.918658  0.877071  0.555790  1
  H  H372  1  0.747919  0.789794  0.555839  1
  H  H373  1  0.593774  0.771133  0.555863  1
  H  H374  1  0.585351  0.543828  0.555853  1
  H  H375  1  0.491185  0.886562  0.555850  1
  H  H376  1  0.072801  0.895769  0.555835  1
  H  H377  1  0.175398  0.780337  0.555816  1
  H  H378  1  0.157880  0.553137  0.555799  1
