# generated using pymatgen
data_Si18H2O37
_symmetry_space_group_name_H-M   'P 1'
_cell_length_a   8.35857008
_cell_length_b   14.33942635
_cell_length_c   52.09005916
_cell_angle_alpha   90.00000000
_cell_angle_beta   90.00000000
_cell_angle_gamma   90.00000000
_symmetry_Int_Tables_number   1
_chemical_formula_structural   Si18H2O37
_chemical_formula_sum   'Si72 H8 O148'
_cell_volume   6243.36343231
_cell_formula_units_Z   4
loop_
 _symmetry_equiv_pos_site_id
 _symmetry_equiv_pos_as_xyz
  1  'x, y, z'
loop_
 _atom_site_type_symbol
 _atom_site_label
 _atom_site_symmetry_multiplicity
 _atom_site_fract_x
 _atom_site_fract_y
 _atom_site_fract_z
 _atom_site_occupancy
  O  O1  1  0.500123  0.750409  0.402467  1
  O  O2  1  -0.000000  0.249450  0.208738  1
  O  O3  1  -0.000000  0.749408  0.211828  1
  O  O4  1  0.500125  0.255918  0.262701  1
  O  O5  1  -0.000000  0.243948  0.351591  1
  O  O6  1  0.500131  0.754875  0.157826  1
  O  O7  1  -0.000000  0.444845  0.280528  1
  O  O8  1  -0.000000  0.063572  0.277664  1
  O  O9  1  0.500122  0.436261  0.336627  1
  O  O10  1  -0.000000  0.944474  0.140285  1
  O  O11  1  0.500130  0.055028  0.333760  1
  O  O12  1  -0.000000  0.562586  0.142759  1
  O  O13  1  -0.000000  0.928800  0.377616  1
  O  O14  1  0.500124  0.427296  0.183995  1
  O  O15  1  -0.000000  0.572463  0.377680  1
  O  O16  1  0.500119  0.071192  0.183965  1
  O  O17  1  0.500127  0.927351  0.236614  1
  O  O18  1  0.500121  0.571034  0.236672  1
  O  O19  1  0.728388  0.249676  0.230585  1
  O  O20  1  0.271877  0.249670  0.230584  1
  O  O21  1  0.771872  0.250170  0.383717  1
  O  O22  1  0.271931  0.749691  0.189980  1
  O  O23  1  0.228381  0.250172  0.383717  1
  O  O24  1  0.728325  0.749698  0.189979  1
  O  O25  1  0.763327  0.339332  0.271812  1
  O  O26  1  0.250044  0.160228  0.272116  1
  O  O27  1  0.750021  0.339571  0.342182  1
  O  O28  1  0.237711  0.839283  0.148726  1
  O  O29  1  0.263328  0.160460  0.342476  1
  O  O30  1  0.751448  0.660214  0.148475  1
  O  O31  1  0.736928  0.160457  0.342476  1
  O  O32  1  0.248814  0.660216  0.148477  1
  O  O33  1  0.250229  0.339571  0.342181  1
  O  O34  1  0.762542  0.839277  0.148728  1
  O  O35  1  0.750210  0.160229  0.272117  1
  O  O36  1  0.236935  0.339333  0.271815  1
  O  O37  1  0.256290  0.959127  0.113576  1
  O  O38  1  0.743012  0.459133  0.306984  1
  O  O39  1  0.756293  0.540668  0.113265  1
  O  O40  1  0.242977  0.040720  0.307307  1
  O  O41  1  0.757278  0.040724  0.307307  1
  O  O42  1  0.243961  0.540663  0.113266  1
  O  O43  1  0.257248  0.459124  0.306982  1
  O  O44  1  0.743967  0.959132  0.113576  1
  O  O45  1  0.749935  0.508136  0.258886  1
  O  O46  1  0.252173  0.991015  0.259227  1
  O  O47  1  0.752208  0.508810  0.355075  1
  O  O48  1  0.250780  0.008006  0.161680  1
  O  O49  1  0.249997  0.991694  0.355415  1
  O  O50  1  0.747781  0.491050  0.161349  1
  O  O51  1  0.750255  0.991698  0.355414  1
  O  O52  1  0.252475  0.491049  0.161349  1
  O  O53  1  0.248050  0.508809  0.355075  1
  O  O54  1  0.749474  0.008005  0.161679  1
  O  O55  1  0.748083  0.991019  0.259227  1
  O  O56  1  0.250320  0.508136  0.258886  1
  O  O57  1  0.719205  0.499917  0.210147  1
  O  O58  1  0.781028  0.499913  0.403864  1
  O  O59  1  0.281026  -0.000000  0.210434  1
  O  O60  1  0.281055  0.499918  0.210147  1
  O  O61  1  0.219228  0.499915  0.403864  1
  O  O62  1  0.719231  0.000000  0.210435  1
  O  O63  1  0.263549  0.841615  0.383625  1
  O  O64  1  0.764538  0.341345  0.189865  1
  O  O65  1  0.735710  0.658500  0.383594  1
  O  O66  1  0.236510  0.158164  0.189895  1
  O  O67  1  0.235728  0.841330  0.230709  1
  O  O68  1  0.763596  0.658208  0.230670  1
  O  O69  1  0.236666  0.658208  0.230669  1
  O  O70  1  0.764528  0.841332  0.230709  1
  O  O71  1  0.264547  0.658501  0.383593  1
  O  O72  1  0.763754  0.158163  0.189892  1
  O  O73  1  0.736713  0.841614  0.383626  1
  O  O74  1  0.235715  0.341343  0.189865  1
  O  O75  1  0.000000  0.249450  0.596190  1
  O  O76  1  0.500128  0.250381  0.405552  1
  O  O77  1  -0.000000  0.749408  0.599280  1
  O  O78  1  -0.000000  0.744960  0.456472  1
  O  O79  1  0.500125  0.255918  0.650153  1
  O  O80  1  0.500131  0.754875  0.545278  1
  O  O81  1  0.500116  0.937255  0.471537  1
  O  O82  1  -0.000000  0.444845  0.667980  1
  O  O83  1  0.500127  0.555357  0.474014  1
  O  O84  1  -0.000000  0.063572  0.665116  1
  O  O85  1  -0.000000  0.944474  0.527737  1
  O  O86  1  -0.000000  0.562586  0.530211  1
  O  O87  1  0.500124  0.427296  0.571447  1
  O  O88  1  0.500119  0.071192  0.571417  1
  O  O89  1  -0.000000  0.428639  0.430332  1
  O  O90  1  0.500127  0.927351  0.624066  1
  O  O91  1  -0.000000  0.072529  0.430299  1
  O  O92  1  0.500121  0.571034  0.624124  1
  O  O93  1  0.228335  0.750118  0.424314  1
  O  O94  1  0.728388  0.249676  0.618037  1
  O  O95  1  0.771923  0.750121  0.424313  1
  O  O96  1  0.271877  0.249670  0.618036  1
  O  O97  1  0.271931  0.749691  0.577432  1
  O  O98  1  0.728325  0.749698  0.577431  1
  O  O99  1  0.251493  0.839609  0.465823  1
  O  O100  1  0.763327  0.339332  0.659264  1
  O  O101  1  0.737730  0.660531  0.465569  1
  O  O102  1  0.250044  0.160228  0.659568  1
  O  O103  1  0.237711  0.839283  0.536178  1
  O  O104  1  0.751448  0.660214  0.535927  1
  O  O105  1  0.248814  0.660216  0.535929  1
  O  O106  1  0.762542  0.839277  0.536180  1
  O  O107  1  0.262521  0.660538  0.465567  1
  O  O108  1  0.750210  0.160229  0.659569  1
  O  O109  1  0.748767  0.839606  0.465823  1
  O  O110  1  0.236935  0.339333  0.659266  1
  O  O111  1  0.256290  0.959127  0.501028  1
  O  O112  1  0.743012  0.459133  0.694436  1
  O  O113  1  0.756293  0.540668  0.500717  1
  O  O114  1  0.242977  0.040720  0.694759  1
  O  O115  1  0.757278  0.040724  0.694759  1
  O  O116  1  0.243961  0.540663  0.500718  1
  O  O117  1  0.257248  0.459124  0.694434  1
  O  O118  1  0.743967  0.959132  0.501028  1
  O  O119  1  0.247750  0.008771  0.452946  1
  O  O120  1  0.749935  0.508136  0.646338  1
  O  O121  1  0.750775  0.491803  0.452611  1
  O  O122  1  0.252173  0.991015  0.646679  1
  O  O123  1  0.250780  0.008006  0.549132  1
  O  O124  1  0.747781  0.491050  0.548801  1
  O  O125  1  0.252475  0.491049  0.548801  1
  O  O126  1  0.749474  0.008005  0.549131  1
  O  O127  1  0.249476  0.491805  0.452612  1
  O  O128  1  0.748083  0.991019  0.646679  1
  O  O129  1  0.752506  0.008771  0.452946  1
  O  O130  1  0.250320  0.508136  0.646338  1
  O  O131  1  0.219209  -0.000000  0.404145  1
  O  O132  1  0.719205  0.499917  0.597599  1
  O  O133  1  0.281026  -0.000000  0.597886  1
  O  O134  1  0.781050  -0.000000  0.404145  1
  O  O135  1  0.281055  0.499918  0.597599  1
  O  O136  1  0.719231  0.000000  0.597887  1
  O  O137  1  0.764538  0.341345  0.577317  1
  O  O138  1  0.236510  0.158164  0.577347  1
  O  O139  1  0.736516  0.341661  0.424401  1
  O  O140  1  0.235728  0.841330  0.618161  1
  O  O141  1  0.264550  0.158463  0.424433  1
  O  O142  1  0.763596  0.658208  0.618122  1
  O  O143  1  0.735699  0.158464  0.424433  1
  O  O144  1  0.236666  0.658208  0.618121  1
  O  O145  1  0.263741  0.341662  0.424401  1
  O  O146  1  0.764528  0.841332  0.618161  1
  O  O147  1  0.763754  0.158163  0.577344  1
  O  O148  1  0.235715  0.341343  0.577317  1
  Si  Si149  1  0.814570  0.439766  0.279676  1
  Si  Si150  1  0.185555  0.061791  0.279266  1
  Si  Si151  1  0.685588  0.438032  0.335030  1
  Si  Si152  1  0.185695  0.939628  0.140932  1
  Si  Si153  1  0.314575  0.060024  0.334612  1
  Si  Si154  1  0.814649  0.561563  0.141265  1
  Si  Si155  1  0.685683  0.060023  0.334611  1
  Si  Si156  1  0.185591  0.561565  0.141266  1
  Si  Si157  1  0.314659  0.438031  0.335029  1
  Si  Si158  1  0.814562  0.939618  0.140933  1
  Si  Si159  1  0.814695  0.061790  0.279266  1
  Si  Si160  1  0.185684  0.439770  0.279675  1
  Si  Si161  1  0.185267  0.939888  0.379583  1
  Si  Si162  1  0.685199  0.439274  0.185702  1
  Si  Si163  1  0.815023  0.560565  0.379420  1
  Si  Si164  1  0.314976  0.059907  0.185873  1
  Si  Si165  1  0.315034  0.939263  0.234883  1
  Si  Si166  1  0.685273  0.559931  0.234709  1
  Si  Si167  1  0.314972  0.559931  0.234709  1
  Si  Si168  1  0.685221  0.939263  0.234885  1
  Si  Si169  1  0.185227  0.560567  0.379420  1
  Si  Si170  1  0.685267  0.059904  0.185873  1
  Si  Si171  1  0.814977  0.939887  0.379582  1
  Si  Si172  1  0.315049  0.439274  0.185703  1
  Si  Si173  1  0.315414  0.750130  0.397836  1
  Si  Si174  1  0.815420  0.249703  0.204104  1
  Si  Si175  1  0.684832  0.750129  0.397835  1
  Si  Si176  1  0.184826  0.249703  0.204104  1
  Si  Si177  1  0.184844  0.749709  0.216458  1
  Si  Si178  1  0.815404  0.749711  0.216457  1
  Si  Si179  1  0.685637  0.251190  0.259639  1
  Si  Si180  1  0.314607  0.251195  0.259637  1
  Si  Si181  1  0.814591  0.248597  0.354661  1
  Si  Si182  1  0.314578  0.750954  0.160922  1
  Si  Si183  1  0.185663  0.248599  0.354661  1
  Si  Si184  1  0.685683  0.750946  0.160921  1
  Si  Si185  1  0.314656  0.938276  0.473030  1
  Si  Si186  1  0.814570  0.439766  0.667128  1
  Si  Si187  1  0.685704  0.560179  0.473360  1
  Si  Si188  1  0.185555  0.061791  0.666718  1
  Si  Si189  1  0.185695  0.939628  0.528384  1
  Si  Si190  1  0.814649  0.561563  0.528717  1
  Si  Si191  1  0.185591  0.561565  0.528718  1
  Si  Si192  1  0.814562  0.939618  0.528384  1
  Si  Si193  1  0.314552  0.560190  0.473360  1
  Si  Si194  1  0.814695  0.061790  0.666718  1
  Si  Si195  1  0.685580  0.938275  0.473030  1
  Si  Si196  1  0.185684  0.439770  0.667127  1
  Si  Si197  1  0.685199  0.439274  0.573154  1
  Si  Si198  1  0.314976  0.059907  0.573325  1
  Si  Si199  1  0.814992  0.439901  0.428423  1
  Si  Si200  1  0.315034  0.939263  0.622335  1
  Si  Si201  1  0.185202  0.060534  0.428589  1
  Si  Si202  1  0.685273  0.559931  0.622161  1
  Si  Si203  1  0.815049  0.060534  0.428589  1
  Si  Si204  1  0.314972  0.559931  0.622161  1
  Si  Si205  1  0.185253  0.439902  0.428423  1
  Si  Si206  1  0.685221  0.939263  0.622337  1
  Si  Si207  1  0.685267  0.059904  0.573325  1
  Si  Si208  1  0.315049  0.439274  0.573155  1
  Si  Si209  1  0.815420  0.249703  0.591556  1
  Si  Si210  1  0.184826  0.249703  0.591556  1
  Si  Si211  1  0.684825  0.250118  0.410197  1
  Si  Si212  1  0.184844  0.749709  0.603910  1
  Si  Si213  1  0.315429  0.250116  0.410197  1
  Si  Si214  1  0.815404  0.749711  0.603909  1
  Si  Si215  1  0.185697  0.748886  0.453373  1
  Si  Si216  1  0.685637  0.251190  0.647090  1
  Si  Si217  1  0.814560  0.748879  0.453372  1
  Si  Si218  1  0.314607  0.251195  0.647089  1
  Si  Si219  1  0.314578  0.750954  0.548373  1
  Si  Si220  1  0.685683  0.750946  0.548373  1
  H  H221  1  0.256290  0.959127  0.096299  1
  H  H222  1  0.756293  0.540668  0.095988  1
  H  H223  1  0.243961  0.540663  0.095988  1
  H  H224  1  0.743967  0.959132  0.096299  1
  H  H225  1  0.743012  0.459133  0.711713  1
  H  H226  1  0.242977  0.040720  0.712037  1
  H  H227  1  0.757278  0.040724  0.712037  1
  H  H228  1  0.257248  0.459124  0.711712  1
