# generated using pymatgen
data_Si31H2O63
_symmetry_space_group_name_H-M   'P 1'
_cell_length_a   5.06243706
_cell_length_b   11.18977051
_cell_length_c   78.86268446
_cell_angle_alpha   90.00000000
_cell_angle_beta   90.00000000
_cell_angle_gamma   90.00000000
_symmetry_Int_Tables_number   1
_chemical_formula_structural   Si31H2O63
_chemical_formula_sum   'Si62 H4 O126'
_cell_volume   4467.37462185
_cell_formula_units_Z   2
loop_
 _symmetry_equiv_pos_site_id
 _symmetry_equiv_pos_as_xyz
  1  'x, y, z'
loop_
 _atom_site_type_symbol
 _atom_site_label
 _atom_site_symmetry_multiplicity
 _atom_site_fract_x
 _atom_site_fract_y
 _atom_site_fract_z
 _atom_site_occupancy
  O  O1  1  0.006394  0.766132  0.074814  1
  O  O2  1  0.509298  0.451902  0.075662  1
  O  O3  1  0.009485  0.141682  0.317928  1
  O  O4  1  0.009861  0.141667  0.141574  1
  O  O5  1  0.509865  0.858160  0.180031  1
  O  O6  1  0.509433  0.858188  0.279475  1
  O  O7  1  0.290962  0.001774  0.300112  1
  O  O8  1  0.791219  0.998157  0.162216  1
  O  O9  1  0.291222  0.001674  0.159389  1
  O  O10  1  0.790961  0.998094  0.297290  1
  O  O11  1  0.009735  0.911989  0.323686  1
  O  O12  1  0.009806  0.911978  0.135820  1
  O  O13  1  0.509786  0.087851  0.185786  1
  O  O14  1  0.509773  0.087880  0.273717  1
  O  O15  1  0.248564  0.334448  0.328532  1
  O  O16  1  0.748121  0.328719  0.131470  1
  O  O17  1  0.248038  0.671124  0.190130  1
  O  O18  1  0.749228  0.665590  0.268888  1
  O  O19  1  0.249292  0.670783  0.269329  1
  O  O20  1  0.747975  0.665183  0.190652  1
  O  O21  1  0.248056  0.334626  0.130956  1
  O  O22  1  0.748630  0.328925  0.328050  1
  O  O23  1  0.005560  0.328961  0.300609  1
  O  O24  1  0.005473  0.328939  0.158893  1
  O  O25  1  0.505522  0.670891  0.162711  1
  O  O26  1  0.505625  0.670901  0.296791  1
  O  O27  1  0.006394  0.766132  0.350610  1
  O  O28  1  0.006300  0.766147  0.108893  1
  O  O29  1  0.506204  0.233693  0.212712  1
  O  O30  1  0.506372  0.233718  0.246791  1
  O  O31  1  0.216090  0.706960  0.322625  1
  O  O32  1  0.718379  0.728467  0.134772  1
  O  O33  1  0.218301  0.271348  0.186832  1
  O  O34  1  0.716118  0.292930  0.274771  1
  O  O35  1  0.218375  0.271387  0.272668  1
  O  O36  1  0.716046  0.292904  0.184733  1
  O  O37  1  0.216125  0.706932  0.136871  1
  O  O38  1  0.718347  0.728467  0.324735  1
  O  O39  1  0.508796  0.522807  0.321575  1
  O  O40  1  0.508874  0.522789  0.137928  1
  O  O41  1  0.008833  0.477035  0.183676  1
  O  O42  1  0.008932  0.477063  0.275826  1
  O  O43  1  0.509298  0.451902  0.351458  1
  O  O44  1  0.509508  0.451888  0.108045  1
  O  O45  1  0.009534  0.547945  0.213559  1
  O  O46  1  0.009152  0.547952  0.245942  1
  O  O47  1  0.727260  0.621544  0.091850  1
  O  O48  1  0.224698  0.600805  0.091859  1
  O  O49  1  0.724627  0.399042  0.229741  1
  O  O50  1  0.227189  0.378299  0.229759  1
  O  O51  1  0.009485  0.141682  0.593724  1
  O  O52  1  0.009861  0.141667  0.417371  1
  O  O53  1  0.509865  0.858160  0.455827  1
  O  O54  1  0.509433  0.858188  0.555271  1
  O  O55  1  0.290962  0.001774  0.575909  1
  O  O56  1  0.791219  0.998157  0.438013  1
  O  O57  1  0.291222  0.001674  0.435185  1
  O  O58  1  0.790961  0.998094  0.573087  1
  O  O59  1  0.009735  0.911989  0.599482  1
  O  O60  1  0.009806  0.911978  0.411616  1
  O  O61  1  0.509786  0.087851  0.461582  1
  O  O62  1  0.509773  0.087880  0.549514  1
  O  O63  1  0.248564  0.334448  0.604328  1
  O  O64  1  0.748121  0.328719  0.407266  1
  O  O65  1  0.248038  0.671124  0.465926  1
  O  O66  1  0.749228  0.665590  0.544684  1
  O  O67  1  0.249292  0.670783  0.545125  1
  O  O68  1  0.747975  0.665183  0.466449  1
  O  O69  1  0.248056  0.334626  0.406752  1
  O  O70  1  0.748630  0.328925  0.603846  1
  O  O71  1  0.005560  0.328961  0.576405  1
  O  O72  1  0.005473  0.328939  0.434689  1
  O  O73  1  0.505522  0.670891  0.438508  1
  O  O74  1  0.505625  0.670901  0.572587  1
  O  O75  1  0.006394  0.766132  0.626406  1
  O  O76  1  0.006300  0.766147  0.384689  1
  O  O77  1  0.506204  0.233693  0.488508  1
  O  O78  1  0.506372  0.233718  0.522587  1
  O  O79  1  0.216090  0.706960  0.598421  1
  O  O80  1  0.718379  0.728467  0.410568  1
  O  O81  1  0.218301  0.271348  0.462628  1
  O  O82  1  0.716118  0.292930  0.550568  1
  O  O83  1  0.218375  0.271387  0.548465  1
  O  O84  1  0.716046  0.292904  0.460529  1
  O  O85  1  0.216125  0.706932  0.412668  1
  O  O86  1  0.718347  0.728467  0.600531  1
  O  O87  1  0.508796  0.522807  0.597371  1
  O  O88  1  0.508874  0.522789  0.413725  1
  O  O89  1  0.008833  0.477035  0.459473  1
  O  O90  1  0.008932  0.477063  0.551622  1
  O  O91  1  0.509298  0.451902  0.627254  1
  O  O92  1  0.509508  0.451888  0.383842  1
  O  O93  1  0.009534  0.547945  0.489355  1
  O  O94  1  0.009152  0.547952  0.521739  1
  O  O95  1  0.727260  0.621544  0.367647  1
  O  O96  1  0.224698  0.600805  0.367656  1
  O  O97  1  0.724627  0.399042  0.505537  1
  O  O98  1  0.227189  0.378299  0.505555  1
  O  O99  1  0.009861  0.141667  0.693167  1
  O  O100  1  0.509865  0.858160  0.731624  1
  O  O101  1  0.791219  0.998157  0.713809  1
  O  O102  1  0.291222  0.001674  0.710982  1
  O  O103  1  0.009806  0.911978  0.687412  1
  O  O104  1  0.509786  0.087851  0.737379  1
  O  O105  1  0.748121  0.328719  0.683063  1
  O  O106  1  0.248038  0.671124  0.741722  1
  O  O107  1  0.747975  0.665183  0.742245  1
  O  O108  1  0.248056  0.334626  0.682548  1
  O  O109  1  0.005473  0.328939  0.710486  1
  O  O110  1  0.505522  0.670891  0.714304  1
  O  O111  1  0.006300  0.766147  0.660486  1
  O  O112  1  0.506204  0.233693  0.764304  1
  O  O113  1  0.506372  0.233718  0.798384  1
  O  O114  1  0.718379  0.728467  0.686365  1
  O  O115  1  0.218301  0.271348  0.738424  1
  O  O116  1  0.716046  0.292904  0.736325  1
  O  O117  1  0.216125  0.706932  0.688464  1
  O  O118  1  0.508874  0.522789  0.689521  1
  O  O119  1  0.008833  0.477035  0.735269  1
  O  O120  1  0.509508  0.451888  0.659638  1
  O  O121  1  0.009534  0.547945  0.765151  1
  O  O122  1  0.009152  0.547952  0.797535  1
  O  O123  1  0.727260  0.621544  0.643443  1
  O  O124  1  0.224698  0.600805  0.643452  1
  O  O125  1  0.724627  0.399042  0.781334  1
  O  O126  1  0.227189  0.378299  0.781351  1
  Si  Si127  1  0.024980  0.013660  0.309974  1
  Si  Si128  1  0.025231  0.013647  0.149530  1
  Si  Si129  1  0.525230  0.986182  0.172075  1
  Si  Si130  1  0.524979  0.986211  0.287429  1
  Si  Si131  1  0.003426  0.281316  0.319223  1
  Si  Si132  1  0.003254  0.281296  0.140279  1
  Si  Si133  1  0.503223  0.718531  0.181326  1
  Si  Si134  1  0.503752  0.718553  0.278178  1
  Si  Si135  1  0.987889  0.781288  0.330758  1
  Si  Si136  1  0.987903  0.781285  0.128746  1
  Si  Si137  1  0.487835  0.218546  0.192859  1
  Si  Si138  1  0.487915  0.218576  0.266643  1
  Si  Si139  1  0.487400  0.657371  0.316430  1
  Si  Si140  1  0.487414  0.657355  0.143072  1
  Si  Si141  1  0.987347  0.342471  0.178532  1
  Si  Si142  1  0.987428  0.342500  0.280971  1
  Si  Si143  1  0.503695  0.406876  0.332703  1
  Si  Si144  1  0.503530  0.406856  0.126800  1
  Si  Si145  1  0.003491  0.592971  0.194804  1
  Si  Si146  1  0.004024  0.592988  0.264697  1
  Si  Si147  1  0.492296  0.531718  0.091854  1
  Si  Si148  1  0.992228  0.468126  0.229750  1
  Si  Si149  1  0.992483  0.692674  0.091854  1
  Si  Si150  1  0.492415  0.307171  0.229750  1
  Si  Si151  1  0.024980  0.013660  0.585770  1
  Si  Si152  1  0.025231  0.013647  0.425326  1
  Si  Si153  1  0.525230  0.986182  0.447872  1
  Si  Si154  1  0.524979  0.986211  0.563225  1
  Si  Si155  1  0.003426  0.281316  0.595020  1
  Si  Si156  1  0.003254  0.281296  0.416075  1
  Si  Si157  1  0.503223  0.718531  0.457122  1
  Si  Si158  1  0.503752  0.718553  0.553974  1
  Si  Si159  1  0.987889  0.781288  0.606554  1
  Si  Si160  1  0.987903  0.781285  0.404542  1
  Si  Si161  1  0.487835  0.218546  0.468655  1
  Si  Si162  1  0.487915  0.218576  0.542440  1
  Si  Si163  1  0.487400  0.657371  0.592226  1
  Si  Si164  1  0.487414  0.657355  0.418869  1
  Si  Si165  1  0.987347  0.342471  0.454328  1
  Si  Si166  1  0.987428  0.342500  0.556767  1
  Si  Si167  1  0.503695  0.406876  0.608499  1
  Si  Si168  1  0.503530  0.406856  0.402596  1
  Si  Si169  1  0.003491  0.592971  0.470600  1
  Si  Si170  1  0.004024  0.592988  0.540493  1
  Si  Si171  1  0.492296  0.531718  0.367651  1
  Si  Si172  1  0.992228  0.468126  0.505547  1
  Si  Si173  1  0.992483  0.692674  0.367650  1
  Si  Si174  1  0.492415  0.307171  0.505547  1
  Si  Si175  1  0.025231  0.013647  0.701123  1
  Si  Si176  1  0.525230  0.986182  0.723668  1
  Si  Si177  1  0.003254  0.281296  0.691871  1
  Si  Si178  1  0.503223  0.718531  0.732918  1
  Si  Si179  1  0.987903  0.781285  0.680338  1
  Si  Si180  1  0.487835  0.218546  0.744452  1
  Si  Si181  1  0.487414  0.657355  0.694665  1
  Si  Si182  1  0.987347  0.342471  0.730124  1
  Si  Si183  1  0.503530  0.406856  0.678393  1
  Si  Si184  1  0.003491  0.592971  0.746396  1
  Si  Si185  1  0.492296  0.531718  0.643447  1
  Si  Si186  1  0.992228  0.468126  0.781343  1
  Si  Si187  1  0.992483  0.692674  0.643446  1
  Si  Si188  1  0.492415  0.307171  0.781343  1
  H  H189  1  0.006394  0.766132  0.063401  1
  H  H190  1  0.509298  0.451902  0.064249  1
  H  H191  1  0.506372  0.233718  0.809796  1
  H  H192  1  0.009152  0.547952  0.808947  1
