# generated using pymatgen
data_Si13(HO7)4
_symmetry_space_group_name_H-M   'P 1'
_cell_length_a   13.27749269
_cell_length_b   13.28550072
_cell_length_c   37.71922333
_cell_angle_alpha   90.00000000
_cell_angle_beta   90.00000000
_cell_angle_gamma   90.00000000
_symmetry_Int_Tables_number   1
_chemical_formula_structural   Si13(HO7)4
_chemical_formula_sum   'Si52 H16 O112'
_cell_volume   6653.60078835
_cell_formula_units_Z   4
loop_
 _symmetry_equiv_pos_site_id
 _symmetry_equiv_pos_as_xyz
  1  'x, y, z'
loop_
 _atom_site_type_symbol
 _atom_site_label
 _atom_site_symmetry_multiplicity
 _atom_site_fract_x
 _atom_site_fract_y
 _atom_site_fract_z
 _atom_site_occupancy
  O  O1  1  0.253726  0.154155  0.333691  1
  O  O2  1  0.095658  0.252659  0.317508  1
  O  O3  1  0.140399  0.091731  0.284225  1
  O  O4  1  0.368182  0.249407  0.224167  1
  O  O5  1  0.372538  0.258944  0.157085  1
  O  O6  1  0.189433  0.016572  0.224557  1
  O  O7  1  0.329627  0.094022  0.187278  1
  O  O8  1  0.244898  0.249511  0.275593  1
  O  O9  1  0.174352  0.017758  0.157876  1
  O  O10  1  0.497071  0.500772  0.308552  1
  O  O11  1  0.165322  0.496435  0.189012  1
  O  O12  1  0.407573  0.636087  0.273371  1
  O  O13  1  0.247332  0.594762  0.238964  1
  O  O14  1  0.403777  0.355784  0.278984  1
  O  O15  1  0.262523  0.405045  0.237231  1
  O  O16  1  0.021961  0.594131  0.303691  1
  O  O17  1  0.095693  0.485878  0.253638  1
  O  O18  1  0.488994  0.834747  0.191121  1
  O  O19  1  0.249813  0.867765  0.333680  1
  O  O20  1  0.091280  0.766946  0.319498  1
  O  O21  1  0.151837  0.902665  0.276916  1
  O  O22  1  0.345571  0.755093  0.225473  1
  O  O23  1  0.352206  0.739158  0.158780  1
  O  O24  1  0.006560  0.998884  0.249261  1
  O  O25  1  0.477090  0.682508  0.333973  1
  O  O26  1  0.305884  0.906192  0.187073  1
  O  O27  1  0.249598  0.739637  0.283291  1
  O  O28  1  0.511153  0.165572  0.190528  1
  O  O29  1  0.647385  0.261641  0.223168  1
  O  O30  1  0.760686  0.126391  0.333648  1
  O  O31  1  0.905646  0.240849  0.317080  1
  O  O32  1  0.859648  0.094500  0.276723  1
  O  O33  1  0.655074  0.244299  0.156419  1
  O  O34  1  0.694043  0.094015  0.195330  1
  O  O35  1  0.595854  0.173239  0.363223  1
  O  O36  1  0.743038  0.245415  0.281350  1
  O  O37  1  0.505406  0.321179  0.334428  1
  O  O38  1  0.833530  0.503686  0.192612  1
  O  O39  1  0.595903  0.647977  0.282366  1
  O  O40  1  0.737313  0.592988  0.241429  1
  O  O41  1  0.594381  0.364501  0.276561  1
  O  O42  1  0.758955  0.404259  0.244308  1
  O  O43  1  0.989745  0.406863  0.302787  1
  O  O44  1  0.908698  0.518803  0.255972  1
  O  O45  1  0.995006  0.334414  0.366760  1
  O  O46  1  0.664637  0.989915  0.366869  1
  O  O47  1  0.627748  0.741923  0.224372  1
  O  O48  1  0.756837  0.851779  0.334390  1
  O  O49  1  0.903197  0.740077  0.316580  1
  O  O50  1  0.870585  0.905051  0.283598  1
  O  O51  1  0.631414  0.750178  0.157200  1
  O  O52  1  0.670139  0.906313  0.193725  1
  O  O53  1  0.592424  0.807281  0.364686  1
  O  O54  1  0.825568  0.980686  0.223808  1
  O  O55  1  0.751594  0.757162  0.275725  1
  O  O56  1  0.810526  0.985607  0.157141  1
  O  O57  1  0.333915  0.010185  0.367656  1
  O  O58  1  0.243090  0.148416  0.400686  1
  O  O59  1  0.095722  0.259287  0.418125  1
  O  O60  1  0.129576  0.094795  0.451307  1
  O  O61  1  0.368182  0.249407  0.577158  1
  O  O62  1  0.372538  0.258944  0.510076  1
  O  O63  1  0.408401  0.191033  0.370727  1
  O  O64  1  0.189433  0.016572  0.577549  1
  O  O65  1  0.329627  0.094022  0.540270  1
  O  O66  1  0.247120  0.243905  0.459166  1
  O  O67  1  0.174352  0.017758  0.510868  1
  O  O68  1  0.165322  0.496435  0.542003  1
  O  O69  1  0.403336  0.352423  0.451976  1
  O  O70  1  0.262694  0.408257  0.493200  1
  O  O71  1  0.406261  0.634392  0.458984  1
  O  O72  1  0.240115  0.596855  0.490601  1
  O  O73  1  0.090965  0.481794  0.478476  1
  O  O74  1  0.008765  0.593198  0.431766  1
  O  O75  1  0.005026  0.665896  0.367857  1
  O  O76  1  0.488994  0.834747  0.544112  1
  O  O77  1  0.239797  0.872652  0.400767  1
  O  O78  1  0.095558  0.757775  0.417596  1
  O  O79  1  0.140324  0.905120  0.457620  1
  O  O80  1  0.345571  0.755093  0.578464  1
  O  O81  1  0.352206  0.739158  0.511772  1
  O  O82  1  0.404793  0.828335  0.370440  1
  O  O83  1  0.305884  0.906192  0.540064  1
  O  O84  1  0.489837  0.680113  0.400596  1
  O  O85  1  0.258215  0.754854  0.453289  1
  O  O86  1  0.511153  0.165572  0.543519  1
  O  O87  1  0.647385  0.261641  0.576160  1
  O  O88  1  0.749271  0.132170  0.400706  1
  O  O89  1  0.907470  0.233714  0.414801  1
  O  O90  1  0.848579  0.097707  0.457359  1
  O  O91  1  0.655074  0.244299  0.509410  1
  O  O92  1  0.694043  0.094015  0.548321  1
  O  O93  1  0.749296  0.259821  0.451206  1
  O  O94  1  0.523598  0.317095  0.400818  1
  O  O95  1  0.993619  0.001271  0.485397  1
  O  O96  1  0.833530  0.503686  0.545603  1
  O  O97  1  0.503251  0.499243  0.426030  1
  O  O98  1  0.591606  0.363544  0.461623  1
  O  O99  1  0.752750  0.404418  0.495605  1
  O  O100  1  0.596612  0.645443  0.454859  1
  O  O101  1  0.736109  0.593895  0.497093  1
  O  O102  1  0.977577  0.405856  0.430970  1
  O  O103  1  0.903794  0.514001  0.481079  1
  O  O104  1  0.627748  0.741923  0.577363  1
  O  O105  1  0.746473  0.847490  0.401383  1
  O  O106  1  0.905237  0.749043  0.416991  1
  O  O107  1  0.859708  0.908581  0.450856  1
  O  O108  1  0.631414  0.750178  0.510191  1
  O  O109  1  0.670139  0.906313  0.546717  1
  O  O110  1  0.825568  0.980686  0.576800  1
  O  O111  1  0.756266  0.750017  0.459140  1
  O  O112  1  0.810526  0.985607  0.510132  1
  Si  Si113  1  0.320217  0.314780  0.253961  1
  Si  Si114  1  0.183308  0.187104  0.302911  1
  Si  Si115  1  0.122093  0.002637  0.258032  1
  Si  Si116  1  0.395519  0.190538  0.189741  1
  Si  Si117  1  0.249798  0.008660  0.189287  1
  Si  Si118  1  0.494772  0.616580  0.300276  1
  Si  Si119  1  0.004527  0.501446  0.279026  1
  Si  Si120  1  0.190846  0.495436  0.229712  1
  Si  Si121  1  0.005194  0.689842  0.327020  1
  Si  Si122  1  0.373188  0.810945  0.190522  1
  Si  Si123  1  0.185802  0.819661  0.303519  1
  Si  Si124  1  0.312247  0.680816  0.255129  1
  Si  Si125  1  0.996503  0.310238  0.325959  1
  Si  Si126  1  0.626918  0.189342  0.191497  1
  Si  Si127  1  0.690910  0.105297  0.366111  1
  Si  Si128  1  0.686043  0.319218  0.256393  1
  Si  Si129  1  0.817448  0.176773  0.302111  1
  Si  Si130  1  0.508601  0.250417  0.367190  1
  Si  Si131  1  0.811106  0.504777  0.233543  1
  Si  Si132  1  0.500129  0.385217  0.300029  1
  Si  Si133  1  0.750141  0.991626  0.192429  1
  Si  Si134  1  0.604565  0.809611  0.191568  1
  Si  Si135  1  0.688233  0.874031  0.366860  1
  Si  Si136  1  0.678075  0.685195  0.255924  1
  Si  Si137  1  0.820655  0.813409  0.302603  1
  Si  Si138  1  0.890821  0.994874  0.257817  1
  Si  Si139  1  0.321459  0.315745  0.478661  1
  Si  Si140  1  0.311427  0.126117  0.368165  1
  Si  Si141  1  0.109351  0.004397  0.476798  1
  Si  Si142  1  0.395519  0.190538  0.542732  1
  Si  Si143  1  0.178679  0.186804  0.432314  1
  Si  Si144  1  0.249798  0.008660  0.542278  1
  Si  Si145  1  0.188197  0.495941  0.501091  1
  Si  Si146  1  0.499147  0.614824  0.434638  1
  Si  Si147  1  0.491005  0.749692  0.367502  1
  Si  Si148  1  0.308599  0.894744  0.368157  1
  Si  Si149  1  0.373188  0.810945  0.543514  1
  Si  Si150  1  0.183276  0.822728  0.432424  1
  Si  Si151  1  0.314144  0.681080  0.478588  1
  Si  Si152  1  0.003595  0.689979  0.408654  1
  Si  Si153  1  0.994213  0.310253  0.407581  1
  Si  Si154  1  0.626918  0.189342  0.544489  1
  Si  Si155  1  0.813400  0.180363  0.430825  1
  Si  Si156  1  0.687329  0.318530  0.479588  1
  Si  Si157  1  0.994759  0.498676  0.455582  1
  Si  Si158  1  0.808403  0.504167  0.504884  1
  Si  Si159  1  0.505153  0.383427  0.434402  1
  Si  Si160  1  0.679718  0.685035  0.480379  1
  Si  Si161  1  0.750141  0.991626  0.545420  1
  Si  Si162  1  0.604565  0.809611  0.544559  1
  Si  Si163  1  0.817230  0.813515  0.431935  1
  Si  Si164  1  0.878055  0.998365  0.476679  1
  H  H165  1  0.372538  0.258944  0.133225  1
  H  H166  1  0.174352  0.017758  0.134016  1
  H  H167  1  0.165322  0.496435  0.165152  1
  H  H168  1  0.352206  0.739158  0.134920  1
  H  H169  1  0.655074  0.244299  0.132558  1
  H  H170  1  0.833530  0.503686  0.168752  1
  H  H171  1  0.631414  0.750178  0.133340  1
  H  H172  1  0.810526  0.985607  0.133280  1
  H  H173  1  0.368182  0.249407  0.601019  1
  H  H174  1  0.189433  0.016572  0.601409  1
  H  H175  1  0.165322  0.496435  0.565864  1
  H  H176  1  0.345571  0.755093  0.602325  1
  H  H177  1  0.647385  0.261641  0.600020  1
  H  H178  1  0.833530  0.503686  0.569464  1
  H  H179  1  0.627748  0.741923  0.601223  1
  H  H180  1  0.825568  0.980686  0.600660  1
