# generated using pymatgen
data_Si44H2O89
_symmetry_space_group_name_H-M   'P 1'
_cell_length_a   9.50193370
_cell_length_b   7.29401298
_cell_length_c   83.10452103
_cell_angle_alpha   90.00000000
_cell_angle_beta   90.00000000
_cell_angle_gamma   90.45000000
_symmetry_Int_Tables_number   1
_chemical_formula_structural   Si44H2O89
_chemical_formula_sum   'Si88 H4 O178'
_cell_volume   5759.56632134
_cell_formula_units_Z   2
loop_
 _symmetry_equiv_pos_site_id
 _symmetry_equiv_pos_as_xyz
  1  'x, y, z'
loop_
 _atom_site_type_symbol
 _atom_site_label
 _atom_site_symmetry_multiplicity
 _atom_site_fract_x
 _atom_site_fract_y
 _atom_site_fract_z
 _atom_site_occupancy
  O  O1  1  0.711187  0.828118  0.389236  1
  O  O2  1  0.211167  0.827966  0.204818  1
  O  O3  1  0.288692  0.171794  0.389237  1
  O  O4  1  0.788674  0.171645  0.204816  1
  O  O5  1  0.288641  0.171686  0.121594  1
  O  O6  1  0.788696  0.171737  0.306011  1
  O  O7  1  0.711135  0.828007  0.121594  1
  O  O8  1  0.211190  0.828061  0.306017  1
  O  O9  1  0.912820  0.737217  0.371116  1
  O  O10  1  0.412778  0.737117  0.186695  1
  O  O11  1  0.087077  0.262614  0.371113  1
  O  O12  1  0.587036  0.262515  0.186695  1
  O  O13  1  0.087025  0.262538  0.139717  1
  O  O14  1  0.587082  0.262620  0.324134  1
  O  O15  1  0.912768  0.737140  0.139715  1
  O  O16  1  0.412825  0.737223  0.324137  1
  O  O17  1  0.716828  0.500412  0.375455  1
  O  O18  1  0.216815  0.500265  0.191035  1
  O  O19  1  0.283026  0.499492  0.375454  1
  O  O20  1  0.783016  0.499344  0.191034  1
  O  O21  1  0.282993  0.499380  0.135377  1
  O  O22  1  0.783063  0.499443  0.319793  1
  O  O23  1  0.716793  0.500300  0.135377  1
  O  O24  1  0.216864  0.500364  0.319799  1
  O  O25  1  0.883825  0.582920  0.397951  1
  O  O26  1  0.383836  0.582798  0.213528  1
  O  O27  1  0.116018  0.416954  0.397946  1
  O  O28  1  0.616025  0.416825  0.213529  1
  O  O29  1  0.115983  0.416865  0.112883  1
  O  O30  1  0.616049  0.416933  0.297300  1
  O  O31  1  0.883794  0.582838  0.112881  1
  O  O32  1  0.383855  0.582900  0.297303  1
  O  O33  1  0.000000  0.000000  0.296575  1
  O  O34  1  0.499894  0.000000  0.112155  1
  O  O35  1  0.000000  0.000000  0.214256  1
  O  O36  1  0.499941  0.000000  0.398676  1
  O  O37  1  0.814693  0.842775  0.314466  1
  O  O38  1  0.314628  0.842706  0.130046  1
  O  O39  1  0.185244  0.157054  0.314465  1
  O  O40  1  0.685181  0.156987  0.130045  1
  O  O41  1  0.185202  0.156948  0.196366  1
  O  O42  1  0.685216  0.157093  0.380784  1
  O  O43  1  0.814650  0.842667  0.196364  1
  O  O44  1  0.314665  0.842814  0.380785  1
  O  O45  1  0.749489  0.914504  0.285449  1
  O  O46  1  0.249405  0.914480  0.101031  1
  O  O47  1  0.250471  0.085224  0.285451  1
  O  O48  1  0.750386  0.085198  0.101029  1
  O  O49  1  0.250405  0.085168  0.225383  1
  O  O50  1  0.750439  0.085311  0.409799  1
  O  O51  1  0.749423  0.914449  0.225379  1
  O  O52  1  0.249457  0.914590  0.409801  1
  O  O53  1  0.840615  0.112517  0.070995  1
  O  O54  1  0.340643  0.112487  0.255417  1
  O  O55  1  0.159230  0.887256  0.070996  1
  O  O56  1  0.659257  0.887225  0.255414  1
  O  O57  1  0.000000  0.000000  0.417653  1
  O  O58  1  0.499917  0.000000  0.233234  1
  O  O59  1  0.000000  0.000000  0.093177  1
  O  O60  1  0.499992  0.000000  0.277597  1
  O  O61  1  0.932577  0.335524  0.418562  1
  O  O62  1  0.432546  0.335415  0.234140  1
  O  O63  1  0.067330  0.664327  0.418559  1
  O  O64  1  0.567303  0.664214  0.234142  1
  O  O65  1  0.067275  0.664250  0.092269  1
  O  O66  1  0.567313  0.664313  0.276690  1
  O  O67  1  0.932518  0.335451  0.092271  1
  O  O68  1  0.432560  0.335511  0.276690  1
  O  O69  1  0.920614  0.710094  0.340461  1
  O  O70  1  0.420571  0.710030  0.156040  1
  O  O71  1  0.079278  0.289693  0.340459  1
  O  O72  1  0.579235  0.289625  0.156041  1
  O  O73  1  0.079236  0.289609  0.170372  1
  O  O74  1  0.579281  0.289738  0.354789  1
  O  O75  1  0.920571  0.710014  0.170369  1
  O  O76  1  0.420618  0.710140  0.354791  1
  O  O77  1  0.655052  0.727766  0.336905  1
  O  O78  1  0.154999  0.727740  0.152486  1
  O  O79  1  0.344853  0.271981  0.336907  1
  O  O80  1  0.844801  0.271956  0.152487  1
  O  O81  1  0.344806  0.271912  0.173924  1
  O  O82  1  0.844845  0.272081  0.358344  1
  O  O83  1  0.655005  0.727696  0.173925  1
  O  O84  1  0.155044  0.727865  0.358343  1
  O  O85  1  0.000000  0.000000  0.354101  1
  O  O86  1  0.499921  0.000000  0.169682  1
  O  O87  1  0.000000  0.000000  0.156729  1
  O  O88  1  0.500002  0.000000  0.341149  1
  O  O89  1  0.711187  0.828118  0.758075  1
  O  O90  1  0.211167  0.827966  0.573657  1
  O  O91  1  0.288692  0.171794  0.758076  1
  O  O92  1  0.788674  0.171645  0.573655  1
  O  O93  1  0.288641  0.171686  0.490433  1
  O  O94  1  0.788696  0.171737  0.674850  1
  O  O95  1  0.711135  0.828007  0.490433  1
  O  O96  1  0.211190  0.828061  0.674856  1
  O  O97  1  0.912820  0.737217  0.739955  1
  O  O98  1  0.412778  0.737117  0.555534  1
  O  O99  1  0.087077  0.262614  0.739952  1
  O  O100  1  0.587036  0.262515  0.555534  1
  O  O101  1  0.087025  0.262538  0.508556  1
  O  O102  1  0.587082  0.262620  0.692973  1
  O  O103  1  0.912768  0.737140  0.508554  1
  O  O104  1  0.412825  0.737223  0.692976  1
  O  O105  1  0.716828  0.500412  0.744294  1
  O  O106  1  0.216815  0.500265  0.559874  1
  O  O107  1  0.283026  0.499492  0.744293  1
  O  O108  1  0.783016  0.499344  0.559873  1
  O  O109  1  0.282993  0.499380  0.504216  1
  O  O110  1  0.783063  0.499443  0.688632  1
  O  O111  1  0.716793  0.500300  0.504216  1
  O  O112  1  0.216864  0.500364  0.688638  1
  O  O113  1  0.883825  0.582920  0.766790  1
  O  O114  1  0.383836  0.582798  0.582368  1
  O  O115  1  0.116018  0.416954  0.766785  1
  O  O116  1  0.616025  0.416825  0.582369  1
  O  O117  1  0.115983  0.416865  0.481722  1
  O  O118  1  0.616049  0.416933  0.666139  1
  O  O119  1  0.883794  0.582838  0.481720  1
  O  O120  1  0.383855  0.582900  0.666142  1
  O  O121  1  0.000000  0.000000  0.665414  1
  O  O122  1  0.499894  -0.000000  0.480994  1
  O  O123  1  -0.000000  -0.000000  0.583095  1
  O  O124  1  0.499941  0.000000  0.767515  1
  O  O125  1  0.814693  0.842775  0.683306  1
  O  O126  1  0.314628  0.842706  0.498886  1
  O  O127  1  0.185244  0.157054  0.683304  1
  O  O128  1  0.685181  0.156987  0.498884  1
  O  O129  1  0.185202  0.156948  0.565205  1
  O  O130  1  0.685216  0.157093  0.749623  1
  O  O131  1  0.814650  0.842667  0.565203  1
  O  O132  1  0.314665  0.842814  0.749624  1
  O  O133  1  0.749489  0.914504  0.654288  1
  O  O134  1  0.249405  0.914480  0.469870  1
  O  O135  1  0.250471  0.085224  0.654290  1
  O  O136  1  0.750386  0.085198  0.469868  1
  O  O137  1  0.250405  0.085168  0.594222  1
  O  O138  1  0.750439  0.085311  0.778639  1
  O  O139  1  0.749423  0.914449  0.594218  1
  O  O140  1  0.249457  0.914590  0.778640  1
  O  O141  1  0.840615  0.112517  0.439834  1
  O  O142  1  0.340643  0.112487  0.624256  1
  O  O143  1  0.159230  0.887256  0.439836  1
  O  O144  1  0.659257  0.887225  0.624253  1
  O  O145  1  0.000000  -0.000000  0.786492  1
  O  O146  1  0.499917  -0.000000  0.602073  1
  O  O147  1  0.000000  -0.000000  0.462016  1
  O  O148  1  0.499992  -0.000000  0.646436  1
  O  O149  1  0.932577  0.335524  0.787401  1
  O  O150  1  0.432546  0.335415  0.602979  1
  O  O151  1  0.067330  0.664327  0.787398  1
  O  O152  1  0.567303  0.664214  0.602981  1
  O  O153  1  0.067275  0.664250  0.461108  1
  O  O154  1  0.567313  0.664313  0.645529  1
  O  O155  1  0.932518  0.335451  0.461110  1
  O  O156  1  0.432560  0.335511  0.645529  1
  O  O157  1  0.920614  0.710094  0.709300  1
  O  O158  1  0.420571  0.710030  0.524880  1
  O  O159  1  0.079278  0.289693  0.709298  1
  O  O160  1  0.579235  0.289625  0.524880  1
  O  O161  1  0.079236  0.289609  0.539211  1
  O  O162  1  0.579281  0.289738  0.723628  1
  O  O163  1  0.920571  0.710014  0.539208  1
  O  O164  1  0.420618  0.710140  0.723630  1
  O  O165  1  0.655052  0.727766  0.705745  1
  O  O166  1  0.154999  0.727740  0.521325  1
  O  O167  1  0.344853  0.271981  0.705746  1
  O  O168  1  0.844801  0.271956  0.521326  1
  O  O169  1  0.344806  0.271912  0.542763  1
  O  O170  1  0.844845  0.272081  0.727183  1
  O  O171  1  0.655005  0.727696  0.542764  1
  O  O172  1  0.155044  0.727865  0.727183  1
  O  O173  1  0.000000  0.000000  0.722941  1
  O  O174  1  0.499921  0.000000  0.538521  1
  O  O175  1  0.000000  0.000000  0.525568  1
  O  O176  1  0.500002  0.000000  0.709988  1
  O  O177  1  0.840615  0.112517  0.808673  1
  O  O178  1  0.159230  0.887256  0.808675  1
  Si  Si179  1  0.875664  0.134252  0.421376  1
  Si  Si180  1  0.375642  0.134145  0.236956  1
  Si  Si181  1  0.124225  0.865599  0.421376  1
  Si  Si182  1  0.624205  0.865493  0.236955  1
  Si  Si183  1  0.124183  0.865526  0.089455  1
  Si  Si184  1  0.624249  0.865569  0.273874  1
  Si  Si185  1  0.875620  0.134178  0.089455  1
  Si  Si186  1  0.375688  0.134222  0.273875  1
  Si  Si187  1  0.801511  0.663546  0.383384  1
  Si  Si188  1  0.301493  0.663408  0.198964  1
  Si  Si189  1  0.198359  0.336342  0.383382  1
  Si  Si190  1  0.698342  0.336206  0.198963  1
  Si  Si191  1  0.198313  0.336243  0.127448  1
  Si  Si192  1  0.698380  0.336303  0.311865  1
  Si  Si193  1  0.801464  0.663444  0.127447  1
  Si  Si194  1  0.301531  0.663507  0.311869  1
  Si  Si195  1  0.838675  0.979045  0.300269  1
  Si  Si196  1  0.338607  0.978995  0.115851  1
  Si  Si197  1  0.161252  0.020754  0.300271  1
  Si  Si198  1  0.661184  0.020703  0.115850  1
  Si  Si199  1  0.161210  0.020661  0.210561  1
  Si  Si200  1  0.661230  0.020809  0.394980  1
  Si  Si201  1  0.838633  0.978954  0.210559  1
  Si  Si202  1  0.338652  0.979100  0.394981  1
  Si  Si203  1  0.797703  0.694244  0.327835  1
  Si  Si204  1  0.297648  0.694189  0.143416  1
  Si  Si205  1  0.202210  0.305548  0.327837  1
  Si  Si206  1  0.702153  0.305492  0.143416  1
  Si  Si207  1  0.202163  0.305457  0.182996  1
  Si  Si208  1  0.702193  0.305608  0.367414  1
  Si  Si209  1  0.797657  0.694154  0.182994  1
  Si  Si210  1  0.297685  0.694304  0.367414  1
  Si  Si211  1  0.998820  0.787892  0.355721  1
  Si  Si212  1  0.498796  0.787783  0.171301  1
  Si  Si213  1  0.001046  0.211957  0.355720  1
  Si  Si214  1  0.501023  0.211847  0.171301  1
  Si  Si215  1  0.001010  0.211867  0.155111  1
  Si  Si216  1  0.501077  0.211940  0.339529  1
  Si  Si217  1  0.998783  0.787803  0.155109  1
  Si  Si218  1  0.498851  0.787875  0.339531  1
  Si  Si219  1  0.000000  0.499929  0.408983  1
  Si  Si220  1  0.499927  0.499815  0.224564  1
  Si  Si221  1  -0.000000  0.499854  0.101848  1
  Si  Si222  1  0.499941  0.499913  0.286267  1
  Si  Si223  1  0.875664  0.134252  0.790215  1
  Si  Si224  1  0.375642  0.134145  0.605795  1
  Si  Si225  1  0.124225  0.865599  0.790215  1
  Si  Si226  1  0.624205  0.865493  0.605794  1
  Si  Si227  1  0.124183  0.865526  0.458294  1
  Si  Si228  1  0.624249  0.865569  0.642713  1
  Si  Si229  1  0.875620  0.134178  0.458294  1
  Si  Si230  1  0.375688  0.134222  0.642714  1
  Si  Si231  1  0.801511  0.663546  0.752223  1
  Si  Si232  1  0.301493  0.663408  0.567803  1
  Si  Si233  1  0.198359  0.336342  0.752221  1
  Si  Si234  1  0.698342  0.336206  0.567802  1
  Si  Si235  1  0.198313  0.336243  0.496287  1
  Si  Si236  1  0.698380  0.336303  0.680704  1
  Si  Si237  1  0.801464  0.663444  0.496286  1
  Si  Si238  1  0.301531  0.663507  0.680709  1
  Si  Si239  1  0.838675  0.979045  0.669109  1
  Si  Si240  1  0.338607  0.978995  0.484690  1
  Si  Si241  1  0.161252  0.020754  0.669110  1
  Si  Si242  1  0.661184  0.020703  0.484689  1
  Si  Si243  1  0.161210  0.020661  0.579401  1
  Si  Si244  1  0.661230  0.020809  0.763819  1
  Si  Si245  1  0.838633  0.978954  0.579398  1
  Si  Si246  1  0.338652  0.979100  0.763820  1
  Si  Si247  1  0.797703  0.694244  0.696674  1
  Si  Si248  1  0.297648  0.694189  0.512256  1
  Si  Si249  1  0.202210  0.305548  0.696676  1
  Si  Si250  1  0.702153  0.305492  0.512256  1
  Si  Si251  1  0.202163  0.305457  0.551835  1
  Si  Si252  1  0.702193  0.305608  0.736253  1
  Si  Si253  1  0.797657  0.694154  0.551833  1
  Si  Si254  1  0.297685  0.694304  0.736253  1
  Si  Si255  1  0.998820  0.787892  0.724560  1
  Si  Si256  1  0.498796  0.787783  0.540140  1
  Si  Si257  1  0.001046  0.211957  0.724559  1
  Si  Si258  1  0.501023  0.211847  0.540140  1
  Si  Si259  1  0.001010  0.211867  0.523950  1
  Si  Si260  1  0.501077  0.211940  0.708368  1
  Si  Si261  1  0.998783  0.787803  0.523948  1
  Si  Si262  1  0.498851  0.787875  0.708370  1
  Si  Si263  1  -0.000000  0.499929  0.777822  1
  Si  Si264  1  0.499927  0.499815  0.593403  1
  Si  Si265  1  -0.000000  0.499854  0.470687  1
  Si  Si266  1  0.499941  0.499913  0.655106  1
  H  H267  1  0.840615  0.112517  0.060165  1
  H  H268  1  0.159230  0.887256  0.060167  1
  H  H269  1  0.840615  0.112517  0.819503  1
  H  H270  1  0.159230  0.887256  0.819504  1
