# generated using pymatgen
data_Si13H2O27
_symmetry_space_group_name_H-M   'P 1'
_cell_length_a   7.46542387
_cell_length_b   23.45454691
_cell_length_c   58.58607809
_cell_angle_alpha   127.21301349
_cell_angle_beta   90.00000000
_cell_angle_gamma   90.00000000
_symmetry_Int_Tables_number   1
_chemical_formula_structural   Si13H2O27
_chemical_formula_sum   'Si78 H12 O162'
_cell_volume   8169.64429298
_cell_formula_units_Z   6
loop_
 _symmetry_equiv_pos_site_id
 _symmetry_equiv_pos_as_xyz
  1  'x, y, z'
loop_
 _atom_site_type_symbol
 _atom_site_label
 _atom_site_symmetry_multiplicity
 _atom_site_fract_x
 _atom_site_fract_y
 _atom_site_fract_z
 _atom_site_occupancy
  O  O1  1  0.669477  0.749278  0.218533  1
  O  O2  1  0.169535  0.249272  0.218534  1
  O  O3  1  0.330176  0.749267  0.218533  1
  O  O4  1  0.830232  0.249283  0.218535  1
  O  O5  1  0.669479  0.749282  0.321029  1
  O  O6  1  0.169533  0.249267  0.321023  1
  O  O7  1  0.330177  0.749272  0.321024  1
  O  O8  1  0.830231  0.249278  0.321028  1
  O  O9  1  0.754340  0.879653  0.237985  1
  O  O10  1  0.254379  0.379648  0.237986  1
  O  O11  1  0.245334  0.879643  0.237983  1
  O  O12  1  0.745370  0.379659  0.237989  1
  O  O13  1  0.754343  0.879659  0.122588  1
  O  O14  1  0.254374  0.379643  0.122587  1
  O  O15  1  0.245333  0.879649  0.122586  1
  O  O16  1  0.745368  0.379653  0.122590  1
  O  O17  1  -0.000000  0.798568  0.234215  1
  O  O18  1  0.499883  0.298571  0.234217  1
  O  O19  1  0.000000  0.798571  0.329214  1
  O  O20  1  0.499881  0.298568  0.329215  1
  O  O21  1  0.750483  0.842456  0.270378  1
  O  O22  1  0.250536  0.342450  0.270378  1
  O  O23  1  0.249171  0.842451  0.270377  1
  O  O24  1  0.749230  0.342455  0.270380  1
  O  O25  1  0.750480  0.842455  0.314302  1
  O  O26  1  0.250539  0.342451  0.314303  1
  O  O27  1  0.249175  0.842450  0.314300  1
  O  O28  1  0.749227  0.342456  0.314304  1
  O  O29  1  0.735821  0.968435  0.178905  1
  O  O30  1  0.235874  0.468424  0.178905  1
  O  O31  1  0.263835  0.968427  0.178903  1
  O  O32  1  0.763889  0.468432  0.178907  1
  O  O33  1  0.735820  0.968433  0.224658  1
  O  O34  1  0.235876  0.468427  0.224659  1
  O  O35  1  0.263835  0.968423  0.224656  1
  O  O36  1  0.763891  0.468436  0.224662  1
  O  O37  1  0.830201  0.012319  0.150469  1
  O  O38  1  0.330254  0.512301  0.150466  1
  O  O39  1  0.169455  0.012307  0.150466  1
  O  O40  1  0.669508  0.512313  0.150470  1
  O  O41  1  0.830200  0.012313  0.274344  1
  O  O42  1  0.330259  0.512307  0.274345  1
  O  O43  1  0.169452  0.012301  0.274341  1
  O  O44  1  0.669513  0.512320  0.274348  1
  O  O45  1  0.499828  0.969298  0.147617  1
  O  O46  1  0.000000  0.469292  0.147619  1
  O  O47  1  0.499827  0.969293  0.256363  1
  O  O48  1  0.000000  0.469298  0.256367  1
  O  O49  1  0.000000  0.045577  0.318394  1
  O  O50  1  0.499880  0.545581  0.318398  1
  O  O51  1  0.000000  0.045581  0.122526  1
  O  O52  1  0.499879  0.545577  0.122527  1
  O  O53  1  0.000000  0.132081  0.304292  1
  O  O54  1  0.499851  0.632087  0.304296  1
  O  O55  1  0.000000  0.132087  0.178517  1
  O  O56  1  0.499849  0.632081  0.178518  1
  O  O57  1  0.000000  0.175097  0.229723  1
  O  O58  1  0.499862  0.675098  0.229725  1
  O  O59  1  0.000000  0.175098  0.273915  1
  O  O60  1  0.499861  0.675097  0.273917  1
  O  O61  1  0.499823  0.903691  0.307166  1
  O  O62  1  0.000000  0.403690  0.307168  1
  O  O63  1  0.830022  0.953677  0.319269  1
  O  O64  1  0.330090  0.453672  0.319269  1
  O  O65  1  0.169621  0.953672  0.319268  1
  O  O66  1  0.669688  0.453677  0.319270  1
  O  O67  1  0.499821  0.033126  0.217445  1
  O  O68  1  0.000000  0.533126  0.217447  1
  O  O69  1  0.830295  0.079138  0.228586  1
  O  O70  1  0.330360  0.579128  0.228584  1
  O  O71  1  0.169350  0.079127  0.228583  1
  O  O72  1  0.669415  0.579138  0.228587  1
  O  O73  1  0.669477  0.749278  0.460653  1
  O  O74  1  0.169535  0.249272  0.460654  1
  O  O75  1  0.330176  0.749267  0.460653  1
  O  O76  1  0.830232  0.249283  0.460654  1
  O  O77  1  0.669479  0.749282  0.563149  1
  O  O78  1  0.169533  0.249267  0.563143  1
  O  O79  1  0.330177  0.749272  0.563144  1
  O  O80  1  0.830231  0.249278  0.563148  1
  O  O81  1  0.754340  0.879653  0.480105  1
  O  O82  1  0.254379  0.379648  0.480106  1
  O  O83  1  0.245334  0.879643  0.480102  1
  O  O84  1  0.745370  0.379659  0.480109  1
  O  O85  1  0.754343  0.879659  0.364708  1
  O  O86  1  0.254374  0.379643  0.364707  1
  O  O87  1  0.245333  0.879649  0.364705  1
  O  O88  1  0.745368  0.379653  0.364709  1
  O  O89  1  -0.000000  0.798568  0.476334  1
  O  O90  1  0.499883  0.298571  0.476337  1
  O  O91  1  0.000000  0.798571  0.571333  1
  O  O92  1  0.499881  0.298568  0.571334  1
  O  O93  1  0.750483  0.842456  0.512497  1
  O  O94  1  0.250536  0.342450  0.512498  1
  O  O95  1  0.249171  0.842451  0.512496  1
  O  O96  1  0.749230  0.342455  0.512499  1
  O  O97  1  0.750480  0.842455  0.556421  1
  O  O98  1  0.250539  0.342451  0.556422  1
  O  O99  1  0.249175  0.842450  0.556420  1
  O  O100  1  0.749227  0.342456  0.556424  1
  O  O101  1  0.735821  0.968435  0.421025  1
  O  O102  1  0.235874  0.468424  0.421024  1
  O  O103  1  0.263835  0.968427  0.421023  1
  O  O104  1  0.763889  0.468432  0.421027  1
  O  O105  1  0.735820  0.968433  0.466778  1
  O  O106  1  0.235876  0.468427  0.466779  1
  O  O107  1  0.263835  0.968423  0.466775  1
  O  O108  1  0.763891  0.468436  0.466781  1
  O  O109  1  0.830201  0.012319  0.392589  1
  O  O110  1  0.330254  0.512301  0.392586  1
  O  O111  1  0.169455  0.012307  0.392585  1
  O  O112  1  0.669508  0.512313  0.392590  1
  O  O113  1  0.830200  0.012313  0.516464  1
  O  O114  1  0.330259  0.512307  0.516465  1
  O  O115  1  0.169452  0.012301  0.516461  1
  O  O116  1  0.669513  0.512320  0.516468  1
  O  O117  1  0.499828  0.969298  0.389737  1
  O  O118  1  0.000000  0.469292  0.389738  1
  O  O119  1  0.499827  0.969293  0.498483  1
  O  O120  1  -0.000000  0.469298  0.498486  1
  O  O121  1  0.000000  0.045577  0.560514  1
  O  O122  1  0.499880  0.545581  0.560517  1
  O  O123  1  0.000000  0.045581  0.364646  1
  O  O124  1  0.499879  0.545577  0.364647  1
  O  O125  1  0.000000  0.132081  0.546412  1
  O  O126  1  0.499851  0.632087  0.546416  1
  O  O127  1  0.000000  0.132087  0.420636  1
  O  O128  1  0.499849  0.632081  0.420637  1
  O  O129  1  0.000000  0.175097  0.471843  1
  O  O130  1  0.499862  0.675098  0.471845  1
  O  O131  1  0.000000  0.175098  0.516035  1
  O  O132  1  0.499861  0.675097  0.516036  1
  O  O133  1  0.499823  0.903691  0.549286  1
  O  O134  1  0.000000  0.403690  0.549288  1
  O  O135  1  0.830022  0.953677  0.561389  1
  O  O136  1  0.330090  0.453672  0.561389  1
  O  O137  1  0.169621  0.953672  0.561388  1
  O  O138  1  0.669688  0.453677  0.561390  1
  O  O139  1  0.499821  0.033126  0.459565  1
  O  O140  1  0.000000  0.533126  0.459567  1
  O  O141  1  0.830295  0.079138  0.470706  1
  O  O142  1  0.330360  0.579128  0.470704  1
  O  O143  1  0.169350  0.079127  0.470703  1
  O  O144  1  0.669415  0.579138  0.470707  1
  O  O145  1  0.754343  0.879659  0.606828  1
  O  O146  1  0.254374  0.379643  0.606826  1
  O  O147  1  0.245333  0.879649  0.606825  1
  O  O148  1  0.745368  0.379653  0.606829  1
  O  O149  1  0.735821  0.968435  0.663144  1
  O  O150  1  0.235874  0.468424  0.663144  1
  O  O151  1  0.263835  0.968427  0.663142  1
  O  O152  1  0.763889  0.468432  0.663146  1
  O  O153  1  0.830201  0.012319  0.634708  1
  O  O154  1  0.330254  0.512301  0.634705  1
  O  O155  1  0.169455  0.012307  0.634705  1
  O  O156  1  0.669508  0.512313  0.634709  1
  O  O157  1  0.499828  0.969298  0.631857  1
  O  O158  1  0.000000  0.469292  0.631858  1
  O  O159  1  0.000000  0.045581  0.606765  1
  O  O160  1  0.499879  0.545577  0.606767  1
  O  O161  1  0.000000  0.132087  0.662756  1
  O  O162  1  0.499849  0.632081  0.662757  1
  Si  Si163  1  0.793821  0.815802  0.239232  1
  Si  Si164  1  0.293873  0.315798  0.239233  1
  Si  Si165  1  0.205837  0.815794  0.239230  1
  Si  Si166  1  0.705891  0.315806  0.239235  1
  Si  Si167  1  0.705895  0.957209  0.149670  1
  Si  Si168  1  0.205944  0.457196  0.149670  1
  Si  Si169  1  0.293764  0.957201  0.149668  1
  Si  Si170  1  0.793815  0.457204  0.149672  1
  Si  Si171  1  0.705893  0.957204  0.248456  1
  Si  Si172  1  0.205948  0.457201  0.248458  1
  Si  Si173  1  0.293764  0.957195  0.248454  1
  Si  Si174  1  0.793819  0.457210  0.248460  1
  Si  Si175  1  0.000000  0.052500  0.293299  1
  Si  Si176  1  0.499877  0.552506  0.293303  1
  Si  Si177  1  0.000000  0.052507  0.150974  1
  Si  Si178  1  0.499873  0.552501  0.150975  1
  Si  Si179  1  0.000000  0.200561  0.210431  1
  Si  Si180  1  0.499839  0.700558  0.210431  1
  Si  Si181  1  0.000000  0.200558  0.305538  1
  Si  Si182  1  0.499840  0.700561  0.305540  1
  Si  Si183  1  0.706456  0.886234  0.302939  1
  Si  Si184  1  0.206518  0.386232  0.302941  1
  Si  Si185  1  0.293193  0.886232  0.302939  1
  Si  Si186  1  0.793255  0.386234  0.302942  1
  Si  Si187  1  0.704865  0.011751  0.212270  1
  Si  Si188  1  0.204926  0.511742  0.212269  1
  Si  Si189  1  0.294784  0.011742  0.212268  1
  Si  Si190  1  0.794846  0.511751  0.212272  1
  Si  Si191  1  0.000000  0.128379  0.240508  1
  Si  Si192  1  0.499877  0.628379  0.240509  1
  Si  Si193  1  0.793821  0.815802  0.481351  1
  Si  Si194  1  0.293873  0.315798  0.481353  1
  Si  Si195  1  0.205837  0.815794  0.481350  1
  Si  Si196  1  0.705891  0.315806  0.481354  1
  Si  Si197  1  0.793822  0.815805  0.332542  1
  Si  Si198  1  0.293871  0.315794  0.332541  1
  Si  Si199  1  0.205838  0.815798  0.332540  1
  Si  Si200  1  0.705888  0.315802  0.332543  1
  Si  Si201  1  0.705895  0.957209  0.391790  1
  Si  Si202  1  0.205944  0.457196  0.391789  1
  Si  Si203  1  0.293764  0.957201  0.391788  1
  Si  Si204  1  0.793815  0.457204  0.391792  1
  Si  Si205  1  0.705893  0.957204  0.490576  1
  Si  Si206  1  0.205948  0.457201  0.490578  1
  Si  Si207  1  0.293764  0.957195  0.490574  1
  Si  Si208  1  0.793819  0.457210  0.490580  1
  Si  Si209  1  0.000000  0.052500  0.535418  1
  Si  Si210  1  0.499877  0.552506  0.535422  1
  Si  Si211  1  0.000000  0.052507  0.393094  1
  Si  Si212  1  0.499873  0.552501  0.393095  1
  Si  Si213  1  0.000000  0.200561  0.452550  1
  Si  Si214  1  0.499839  0.700558  0.452550  1
  Si  Si215  1  0.000000  0.200558  0.547658  1
  Si  Si216  1  0.499840  0.700561  0.547660  1
  Si  Si217  1  0.706456  0.886234  0.545059  1
  Si  Si218  1  0.206518  0.386232  0.545061  1
  Si  Si219  1  0.293193  0.886232  0.545059  1
  Si  Si220  1  0.793255  0.386234  0.545061  1
  Si  Si221  1  0.704865  0.011751  0.454389  1
  Si  Si222  1  0.204926  0.511742  0.454389  1
  Si  Si223  1  0.294784  0.011742  0.454387  1
  Si  Si224  1  0.794846  0.511751  0.454392  1
  Si  Si225  1  0.000000  0.128379  0.482628  1
  Si  Si226  1  0.499877  0.628379  0.482629  1
  Si  Si227  1  0.000000  0.003007  0.331212  1
  Si  Si228  1  0.499885  0.503007  0.331214  1
  Si  Si229  1  0.793822  0.815805  0.574662  1
  Si  Si230  1  0.293871  0.315794  0.574661  1
  Si  Si231  1  0.205838  0.815798  0.574660  1
  Si  Si232  1  0.705888  0.315802  0.574663  1
  Si  Si233  1  0.705895  0.957209  0.633909  1
  Si  Si234  1  0.205944  0.457196  0.633909  1
  Si  Si235  1  0.293764  0.957201  0.633907  1
  Si  Si236  1  0.793815  0.457204  0.633911  1
  Si  Si237  1  0.000000  0.052507  0.635214  1
  Si  Si238  1  0.499873  0.552501  0.635215  1
  Si  Si239  1  0.000000  0.003007  0.573332  1
  Si  Si240  1  0.499885  0.503007  0.573334  1
  H  H241  1  0.754343  0.879659  0.107226  1
  H  H242  1  0.254374  0.379643  0.107225  1
  H  H243  1  0.245333  0.879649  0.107224  1
  H  H244  1  0.745368  0.379653  0.107228  1
  H  H245  1  0.000000  0.045581  0.107164  1
  H  H246  1  0.499879  0.545577  0.107165  1
  H  H247  1  0.735821  0.968435  0.678506  1
  H  H248  1  0.235874  0.468424  0.678506  1
  H  H249  1  0.263835  0.968427  0.678504  1
  H  H250  1  0.763889  0.468432  0.678508  1
  H  H251  1  0.000000  0.132087  0.678118  1
  H  H252  1  0.499849  0.632081  0.678119  1
