# generated using pymatgen
data_Si15(HO8)4
_symmetry_space_group_name_H-M   'P 1'
_cell_length_a   17.25651483
_cell_length_b   25.40291210
_cell_length_c   51.66816815
_cell_angle_alpha   132.78789079
_cell_angle_beta   120.00000000
_cell_angle_gamma   70.14486815
_symmetry_Int_Tables_number   1
_chemical_formula_structural   Si15(HO8)4
_chemical_formula_sum   'Si90 H24 O192'
_cell_volume   14394.9931884
_cell_formula_units_Z   6
loop_
 _symmetry_equiv_pos_site_id
 _symmetry_equiv_pos_as_xyz
  1  'x, y, z'
loop_
 _atom_site_type_symbol
 _atom_site_label
 _atom_site_symmetry_multiplicity
 _atom_site_fract_x
 _atom_site_fract_y
 _atom_site_fract_z
 _atom_site_occupancy
  O  O1  1  0.150253  0.035698  0.226792  1
  O  O2  1  0.424939  0.035749  0.318622  1
  O  O3  1  0.424904  0.035658  0.226719  1
  O  O4  1  0.251695  0.040745  0.286346  1
  O  O5  1  0.251635  0.040698  0.204429  1
  O  O6  1  0.015160  0.322719  0.218971  1
  O  O7  1  0.249085  0.322669  0.218860  1
  O  O8  1  0.084089  0.010774  0.254130  1
  O  O9  1  0.317994  0.010741  0.160633  1
  O  O10  1  0.317784  0.011086  0.332404  1
  O  O11  1  0.084003  0.010800  0.160708  1
  O  O12  1  0.135690  0.135053  0.290585  1
  O  O13  1  0.333151  0.135044  0.224437  1
  O  O14  1  0.333151  0.135150  0.356558  1
  O  O15  1  0.135684  0.135031  0.224462  1
  O  O16  1  0.170413  0.230292  0.295128  1
  O  O17  1  0.414814  0.230419  0.295085  1
  O  O18  1  0.075984  0.266077  0.331089  1
  O  O19  1  0.342571  0.266054  0.251410  1
  O  O20  1  0.076024  0.266011  0.251510  1
  O  O21  1  0.242687  0.233611  0.353685  1
  O  O22  1  0.242721  0.233541  0.262873  1
  O  O23  1  0.496418  0.040793  0.286305  1
  O  O24  1  0.483490  0.369018  0.226740  1
  O  O25  1  0.348686  0.655890  0.218869  1
  O  O26  1  0.417216  0.344235  0.254113  1
  O  O27  1  0.417233  0.344084  0.160647  1
  O  O28  1  0.468946  0.468377  0.290531  1
  O  O29  1  0.468999  0.468305  0.224404  1
  O  O30  1  0.251830  0.436393  0.336727  1
  O  O31  1  0.085384  0.400768  0.293408  1
  O  O32  1  0.323889  0.400782  0.293321  1
  O  O33  1  0.409267  0.599375  0.331090  1
  O  O34  1  0.409322  0.599307  0.251427  1
  O  O35  1  0.091480  0.702432  0.318546  1
  O  O36  1  0.091528  0.702275  0.226720  1
  O  O37  1  0.163289  0.707337  0.286284  1
  O  O38  1  0.264457  0.677508  0.332292  1
  O  O39  1  0.264492  0.677457  0.254114  1
  O  O40  1  0.197675  0.801723  0.356522  1
  O  O41  1  0.197679  0.801658  0.290543  1
  O  O42  1  0.081434  0.896961  0.295081  1
  O  O43  1  0.418533  0.734097  0.293316  1
  O  O44  1  0.009401  0.932492  0.251371  1
  O  O45  1  0.247848  0.932660  0.331136  1
  O  O46  1  0.180989  0.900161  0.353625  1
  O  O47  1  0.597866  0.010886  0.332284  1
  O  O48  1  0.597868  0.010829  0.254225  1
  O  O49  1  0.531011  0.135124  0.356532  1
  O  O50  1  0.530992  0.135028  0.290545  1
  O  O51  1  0.918416  0.102855  0.336638  1
  O  O52  1  0.751987  0.067341  0.293412  1
  O  O53  1  0.990623  0.067184  0.293260  1
  O  O54  1  0.581308  0.265933  0.331117  1
  O  O55  1  0.514295  0.233573  0.353614  1
  O  O56  1  0.758127  0.369008  0.318501  1
  O  O57  1  0.758187  0.369021  0.226709  1
  O  O58  1  0.584821  0.373938  0.286270  1
  O  O59  1  0.829749  0.374136  0.286287  1
  O  O60  1  0.584873  0.373993  0.204377  1
  O  O61  1  0.582474  0.655851  0.218809  1
  O  O62  1  0.931142  0.344186  0.332258  1
  O  O63  1  0.651259  0.344225  0.160646  1
  O  O64  1  0.651423  0.344171  0.332335  1
  O  O65  1  0.931218  0.344229  0.254247  1
  O  O66  1  0.864283  0.468389  0.356515  1
  O  O67  1  0.666495  0.468405  0.224442  1
  O  O68  1  0.666319  0.468342  0.356469  1
  O  O69  1  0.864270  0.468419  0.290554  1
  O  O70  1  0.503546  0.563657  0.295071  1
  O  O71  1  0.748138  0.563796  0.295126  1
  O  O72  1  0.675884  0.599357  0.251415  1
  O  O73  1  0.914643  0.599296  0.331138  1
  O  O74  1  0.575944  0.566878  0.353612  1
  O  O75  1  0.847688  0.566888  0.353649  1
  O  O76  1  0.576032  0.566850  0.262877  1
  O  O77  1  0.816642  0.702327  0.226727  1
  O  O78  1  0.918209  0.707516  0.286337  1
  O  O79  1  0.918242  0.707314  0.204459  1
  O  O80  1  0.681846  0.989303  0.218934  1
  O  O81  1  0.915945  0.989079  0.218810  1
  O  O82  1  0.750629  0.677579  0.254179  1
  O  O83  1  0.984554  0.677373  0.160631  1
  O  O84  1  0.984561  0.677604  0.332319  1
  O  O85  1  0.750687  0.677489  0.160634  1
  O  O86  1  0.802234  0.801787  0.290574  1
  O  O87  1  0.802317  0.801664  0.224449  1
  O  O88  1  0.584947  0.769709  0.336664  1
  O  O89  1  0.837006  0.897012  0.295124  1
  O  O90  1  0.657146  0.734033  0.293295  1
  O  O91  1  0.742699  0.932749  0.331148  1
  O  O92  1  0.742671  0.932628  0.251457  1
  O  O93  1  0.909390  0.900272  0.353682  1
  O  O94  1  0.909360  0.900139  0.262851  1
  O  O95  1  0.000000  0.801798  0.356567  1
  O  O96  1  0.000000  0.801580  0.224409  1
  O  O97  1  0.182795  0.297619  0.486692  1
  O  O98  1  0.081531  0.292488  0.427097  1
  O  O99  1  0.081508  0.292754  0.509130  1
  O  O100  1  0.249118  0.322413  0.459337  1
  O  O101  1  0.015160  0.322719  0.552946  1
  O  O102  1  0.015317  0.322397  0.381133  1
  O  O103  1  0.249085  0.322669  0.552834  1
  O  O104  1  0.317994  0.010741  0.494608  1
  O  O105  1  0.084003  0.010800  0.494683  1
  O  O106  1  0.197386  0.198223  0.422922  1
  O  O107  1  0.197339  0.198425  0.489115  1
  O  O108  1  0.162682  0.103067  0.418445  1
  O  O109  1  0.414784  0.230500  0.376838  1
  O  O110  1  0.257072  0.067327  0.382452  1
  O  O111  1  0.257176  0.067468  0.462115  1
  O  O112  1  0.342556  0.266009  0.420187  1
  O  O113  1  0.090407  0.099676  0.359817  1
  O  O114  1  0.090428  0.099946  0.450740  1
  O  O115  1  -0.000000  0.198138  0.356866  1
  O  O116  1  0.000000  0.198487  0.481569  1
  O  O117  1  0.241693  0.631132  0.395015  1
  O  O118  1  0.241655  0.631038  0.486776  1
  O  O119  1  0.414973  0.625955  0.427177  1
  O  O120  1  0.169930  0.626122  0.427261  1
  O  O121  1  0.414897  0.625959  0.508992  1
  O  O122  1  0.068704  0.655934  0.381238  1
  O  O123  1  0.348686  0.655890  0.552843  1
  O  O124  1  0.348623  0.655900  0.381212  1
  O  O125  1  0.068641  0.655910  0.459356  1
  O  O126  1  0.417233  0.344084  0.494621  1
  O  O127  1  0.135571  0.531747  0.357030  1
  O  O128  1  0.333397  0.531667  0.489061  1
  O  O129  1  0.333400  0.531709  0.356966  1
  O  O130  1  0.135479  0.531732  0.422951  1
  O  O131  1  0.496134  0.436297  0.418306  1
  O  O132  1  0.251650  0.436347  0.418421  1
  O  O133  1  0.323851  0.400696  0.462084  1
  O  O134  1  0.085217  0.400783  0.382357  1
  O  O135  1  0.423964  0.433171  0.359793  1
  O  O136  1  0.152291  0.433235  0.359906  1
  O  O137  1  0.423728  0.433137  0.450574  1
  O  O138  1  0.401935  0.989286  0.381248  1
  O  O139  1  0.401982  0.989246  0.459320  1
  O  O140  1  0.468774  0.865083  0.356982  1
  O  O141  1  0.468819  0.865075  0.422946  1
  O  O142  1  0.081462  0.897103  0.376850  1
  O  O143  1  0.418582  0.734107  0.382353  1
  O  O144  1  0.247844  0.932707  0.420158  1
  O  O145  1  0.009187  0.932775  0.420212  1
  O  O146  1  0.485390  0.766578  0.359835  1
  O  O147  1  0.908341  0.297546  0.394886  1
  O  O148  1  0.908245  0.297784  0.486846  1
  O  O149  1  0.836836  0.292549  0.427222  1
  O  O150  1  0.735465  0.322428  0.381217  1
  O  O151  1  0.735296  0.322590  0.459297  1
  O  O152  1  0.802299  0.198230  0.357008  1
  O  O153  1  0.802329  0.198398  0.423041  1
  O  O154  1  0.918370  0.103106  0.418546  1
  O  O155  1  0.990525  0.067470  0.462200  1
  O  O156  1  0.751947  0.067460  0.382420  1
  O  O157  1  0.581197  0.266052  0.420157  1
  O  O158  1  0.819091  0.099801  0.359952  1
  O  O159  1  0.516504  0.630970  0.486715  1
  O  O160  1  0.582580  0.655790  0.459309  1
  O  O161  1  0.582474  0.655851  0.552783  1
  O  O162  1  0.651259  0.344225  0.494621  1
  O  O163  1  0.530935  0.531591  0.422904  1
  O  O164  1  0.530767  0.531626  0.488979  1
  O  O165  1  0.748040  0.563696  0.376778  1
  O  O166  1  0.590658  0.400615  0.382388  1
  O  O167  1  0.590471  0.400751  0.462010  1
  O  O168  1  0.914498  0.599314  0.420153  1
  O  O169  1  0.675864  0.599310  0.420124  1
  O  O170  1  0.849581  0.964252  0.486717  1
  O  O171  1  0.574939  0.964375  0.394950  1
  O  O172  1  0.574964  0.964469  0.486810  1
  O  O173  1  0.748209  0.959287  0.427184  1
  O  O174  1  0.748242  0.959375  0.509121  1
  O  O175  1  0.915830  0.989113  0.459385  1
  O  O176  1  0.681846  0.989303  0.552909  1
  O  O177  1  0.681888  0.989151  0.381178  1
  O  O178  1  0.915945  0.989079  0.552785  1
  O  O179  1  0.984554  0.677373  0.494605  1
  O  O180  1  0.750687  0.677489  0.494609  1
  O  O181  1  0.864075  0.864870  0.422892  1
  O  O182  1  0.666574  0.865099  0.489087  1
  O  O183  1  0.666746  0.864973  0.356960  1
  O  O184  1  0.864066  0.864928  0.489001  1
  O  O185  1  0.503322  0.959396  0.427235  1
  O  O186  1  0.829513  0.769526  0.418337  1
  O  O187  1  0.584981  0.769759  0.418386  1
  O  O188  1  0.923779  0.733993  0.382350  1
  O  O189  1  0.657085  0.734063  0.462038  1
  O  O190  1  0.923745  0.734020  0.462070  1
  O  O191  1  0.757028  0.766400  0.359802  1
  O  O192  1  0.756996  0.766551  0.450617  1
  Si  Si193  1  0.154630  0.052414  0.262999  1
  Si  Si194  1  0.333174  0.052399  0.203155  1
  Si  Si195  1  0.333172  0.052496  0.322700  1
  Si  Si196  1  0.154616  0.052392  0.203195  1
  Si  Si197  1  0.154657  0.217504  0.258452  1
  Si  Si198  1  0.154585  0.217533  0.317992  1
  Si  Si199  1  0.333494  0.217535  0.258399  1
  Si  Si200  1  0.487841  0.385737  0.262944  1
  Si  Si201  1  0.487854  0.385667  0.203131  1
  Si  Si202  1  0.154881  0.449283  0.335821  1
  Si  Si203  1  0.333098  0.449239  0.335758  1
  Si  Si204  1  0.487810  0.550856  0.317939  1
  Si  Si205  1  0.487890  0.550786  0.258388  1
  Si  Si206  1  0.026680  0.333417  0.254445  1
  Si  Si207  1  0.333196  0.333453  0.254336  1
  Si  Si208  1  0.026606  0.333366  0.356710  1
  Si  Si209  1  0.178778  0.719087  0.322621  1
  Si  Si210  1  0.359967  0.666675  0.254336  1
  Si  Si211  1  0.178807  0.719014  0.262945  1
  Si  Si212  1  0.487990  0.782599  0.335741  1
  Si  Si213  1  0.178402  0.884132  0.317960  1
  Si  Si214  1  0.000000  0.000000  0.254289  1
  Si  Si215  1  0.359960  0.666714  0.356739  1
  Si  Si216  1  0.000000  0.884063  0.258381  1
  Si  Si217  1  0.693300  -0.000000  0.254410  1
  Si  Si218  1  0.512122  0.052473  0.322651  1
  Si  Si219  1  0.512097  0.052398  0.262973  1
  Si  Si220  1  0.821562  0.115758  0.335804  1
  Si  Si221  1  0.693286  -0.000000  0.356749  1
  Si  Si222  1  0.511744  0.217510  0.317947  1
  Si  Si223  1  -0.000000  0.115677  0.335681  1
  Si  Si224  1  0.845401  0.385748  0.322604  1
  Si  Si225  1  0.666449  0.385762  0.203145  1
  Si  Si226  1  0.666408  0.385687  0.322600  1
  Si  Si227  1  0.845413  0.385774  0.262964  1
  Si  Si228  1  0.666829  0.550876  0.258427  1
  Si  Si229  1  0.845075  0.550898  0.317991  1
  Si  Si230  1  0.000000  0.719168  0.322651  1
  Si  Si231  1  0.821271  0.884134  0.258427  1
  Si  Si232  1  0.821130  0.719146  0.262984  1
  Si  Si233  1  0.666508  0.666722  0.254318  1
  Si  Si234  1  0.821141  0.719018  0.203153  1
  Si  Si235  1  0.666303  0.782501  0.335728  1
  Si  Si236  1  0.821259  0.884250  0.318008  1
  Si  Si237  1  0.000000  0.718951  0.203143  1
  Si  Si238  1  0.000000  0.280788  0.390760  1
  Si  Si239  1  0.306552  0.000000  0.459137  1
  Si  Si240  1  0.333498  0.217611  0.377773  1
  Si  Si241  1  0.178520  0.280872  0.450492  1
  Si  Si242  1  0.178491  0.281056  0.510349  1
  Si  Si243  1  0.178443  0.115767  0.395538  1
  Si  Si244  1  0.178514  0.115942  0.455152  1
  Si  Si245  1  0.306449  -0.000000  0.356803  1
  Si  Si246  1  0.333135  0.333298  0.459151  1
  Si  Si247  1  0.154424  0.614404  0.390928  1
  Si  Si248  1  0.333419  0.614299  0.510324  1
  Si  Si249  1  0.333404  0.614354  0.390883  1
  Si  Si250  1  0.154373  0.614374  0.450565  1
  Si  Si251  1  0.332993  0.449183  0.455088  1
  Si  Si252  1  0.154756  0.449257  0.395550  1
  Si  Si253  1  0.487682  0.947715  0.390897  1
  Si  Si254  1  0.487742  0.947715  0.450559  1
  Si  Si255  1  0.488027  0.782593  0.395503  1
  Si  Si256  1  0.178388  0.884193  0.377740  1
  Si  Si257  1  0.000000  0.884281  0.377796  1
  Si  Si258  1  0.821179  0.280879  0.390884  1
  Si  Si259  1  0.821108  0.281036  0.450582  1
  Si  Si260  1  0.821493  0.115915  0.395611  1
  Si  Si261  1  0.511724  0.217594  0.377732  1
  Si  Si262  1  0.640034  0.333292  0.356772  1
  Si  Si263  1  -0.000000  0.115995  0.455228  1
  Si  Si264  1  0.000000  0.281112  0.510436  1
  Si  Si265  1  0.000000  -0.000000  0.459213  1
  Si  Si266  1  0.512042  0.614236  0.450489  1
  Si  Si267  1  0.511970  0.614276  0.510278  1
  Si  Si268  1  0.512030  0.449117  0.395475  1
  Si  Si269  1  0.511800  0.449157  0.454992  1
  Si  Si270  1  0.845023  0.550859  0.377730  1
  Si  Si271  1  0.666700  0.550812  0.377688  1
  Si  Si272  1  0.639872  0.333415  0.459132  1
  Si  Si273  1  0.973179  0.666655  0.459143  1
  Si  Si274  1  0.666600  0.666649  0.459118  1
  Si  Si275  1  0.845223  0.947516  0.450507  1
  Si  Si276  1  0.666647  0.947744  0.510399  1
  Si  Si277  1  0.666693  0.947615  0.390857  1
  Si  Si278  1  0.845238  0.947570  0.510318  1
  Si  Si279  1  0.845161  0.782393  0.395473  1
  Si  Si280  1  0.666207  0.782629  0.455088  1
  Si  Si281  1  0.845143  0.782452  0.455036  1
  Si  Si282  1  0.973241  0.666711  0.356764  1
  H  H283  1  0.015160  0.322719  0.201552  1
  H  H284  1  0.249085  0.322669  0.201441  1
  H  H285  1  0.317994  0.010741  0.143214  1
  H  H286  1  0.084003  0.010800  0.143289  1
  H  H287  1  0.348686  0.655890  0.201450  1
  H  H288  1  0.417233  0.344084  0.143228  1
  H  H289  1  0.582474  0.655851  0.201390  1
  H  H290  1  0.651259  0.344225  0.143228  1
  H  H291  1  0.681846  0.989303  0.201515  1
  H  H292  1  0.915945  0.989079  0.201392  1
  H  H293  1  0.984554  0.677373  0.143212  1
  H  H294  1  0.750687  0.677489  0.143215  1
  H  H295  1  0.015160  0.322719  0.570364  1
  H  H296  1  0.249085  0.322669  0.570253  1
  H  H297  1  0.317994  0.010741  0.512026  1
  H  H298  1  0.084003  0.010800  0.512102  1
  H  H299  1  0.348686  0.655890  0.570262  1
  H  H300  1  0.417233  0.344084  0.512040  1
  H  H301  1  0.582474  0.655851  0.570202  1
  H  H302  1  0.651259  0.344225  0.512040  1
  H  H303  1  0.681846  0.989303  0.570328  1
  H  H304  1  0.915945  0.989079  0.570204  1
  H  H305  1  0.984554  0.677373  0.512024  1
  H  H306  1  0.750687  0.677489  0.512027  1
