# generated using pymatgen
data_Si23H2O47
_symmetry_space_group_name_H-M   'P 1'
_cell_length_a   5.06243706
_cell_length_b   11.18977051
_cell_length_c   62.74621010
_cell_angle_alpha   90.00000000
_cell_angle_beta   90.00000000
_cell_angle_gamma   90.00000000
_symmetry_Int_Tables_number   1
_chemical_formula_structural   Si23H2O47
_chemical_formula_sum   'Si46 H4 O94'
_cell_volume   3554.41649624
_cell_formula_units_Z   2
loop_
 _symmetry_equiv_pos_site_id
 _symmetry_equiv_pos_as_xyz
  1  'x, y, z'
loop_
 _atom_site_type_symbol
 _atom_site_label
 _atom_site_symmetry_multiplicity
 _atom_site_fract_x
 _atom_site_fract_y
 _atom_site_fract_z
 _atom_site_occupancy
  O  O1  1  0.009485  0.141682  0.357821  1
  O  O2  1  0.009861  0.141667  0.136170  1
  O  O3  1  0.509865  0.858160  0.184505  1
  O  O4  1  0.509433  0.858188  0.309491  1
  O  O5  1  0.290962  0.001774  0.335429  1
  O  O6  1  0.791219  0.998157  0.162115  1
  O  O7  1  0.291222  0.001674  0.158561  1
  O  O8  1  0.790961  0.998094  0.331883  1
  O  O9  1  0.009735  0.911989  0.365057  1
  O  O10  1  0.009806  0.911978  0.128938  1
  O  O11  1  0.509786  0.087851  0.191738  1
  O  O12  1  0.509773  0.087880  0.302255  1
  O  O13  1  0.248564  0.334448  0.371148  1
  O  O14  1  0.748121  0.328719  0.123471  1
  O  O15  1  0.248038  0.671124  0.197197  1
  O  O16  1  0.749228  0.665590  0.296185  1
  O  O17  1  0.249292  0.670783  0.296739  1
  O  O18  1  0.747975  0.665183  0.197854  1
  O  O19  1  0.248056  0.334626  0.122824  1
  O  O20  1  0.748630  0.328925  0.370542  1
  O  O21  1  0.005560  0.328961  0.336054  1
  O  O22  1  0.005473  0.328939  0.157937  1
  O  O23  1  0.505522  0.670891  0.162736  1
  O  O24  1  0.505625  0.670901  0.331255  1
  O  O25  1  0.006394  0.766132  0.398897  1
  O  O26  1  0.006300  0.766147  0.095095  1
  O  O27  1  0.506204  0.233693  0.225580  1
  O  O28  1  0.506372  0.233718  0.268412  1
  O  O29  1  0.216090  0.706960  0.363725  1
  O  O30  1  0.718379  0.728467  0.127621  1
  O  O31  1  0.218301  0.271348  0.193052  1
  O  O32  1  0.716118  0.292930  0.303580  1
  O  O33  1  0.218375  0.271387  0.300936  1
  O  O34  1  0.716046  0.292904  0.190414  1
  O  O35  1  0.216125  0.706932  0.130260  1
  O  O36  1  0.718347  0.728467  0.366376  1
  O  O37  1  0.508796  0.522807  0.362404  1
  O  O38  1  0.508874  0.522789  0.131588  1
  O  O39  1  0.008833  0.477035  0.189086  1
  O  O40  1  0.008932  0.477063  0.304905  1
  O  O41  1  0.509298  0.451902  0.399963  1
  O  O42  1  0.509508  0.451888  0.094030  1
  O  O43  1  0.009534  0.547945  0.226644  1
  O  O44  1  0.009152  0.547952  0.267345  1
  O  O45  1  0.724627  0.399042  0.246983  1
  O  O46  1  0.227189  0.378299  0.247005  1
  O  O47  1  0.009485  0.141682  0.704456  1
  O  O48  1  0.009861  0.141667  0.482805  1
  O  O49  1  0.509865  0.858160  0.531140  1
  O  O50  1  0.509433  0.858188  0.656126  1
  O  O51  1  0.290962  0.001774  0.682064  1
  O  O52  1  0.791219  0.998157  0.508750  1
  O  O53  1  0.291222  0.001674  0.505196  1
  O  O54  1  0.790961  0.998094  0.678518  1
  O  O55  1  0.009735  0.911989  0.711692  1
  O  O56  1  0.009806  0.911978  0.475573  1
  O  O57  1  0.509786  0.087851  0.538373  1
  O  O58  1  0.509773  0.087880  0.648890  1
  O  O59  1  0.248564  0.334448  0.717784  1
  O  O60  1  0.748121  0.328719  0.470106  1
  O  O61  1  0.248038  0.671124  0.543832  1
  O  O62  1  0.749228  0.665590  0.642820  1
  O  O63  1  0.249292  0.670783  0.643374  1
  O  O64  1  0.747975  0.665183  0.544489  1
  O  O65  1  0.248056  0.334626  0.469459  1
  O  O66  1  0.748630  0.328925  0.717178  1
  O  O67  1  0.005560  0.328961  0.682689  1
  O  O68  1  0.005473  0.328939  0.504572  1
  O  O69  1  0.505522  0.670891  0.509372  1
  O  O70  1  0.505625  0.670901  0.677890  1
  O  O71  1  0.006394  0.766132  0.745532  1
  O  O72  1  0.006300  0.766147  0.441730  1
  O  O73  1  0.506204  0.233693  0.572215  1
  O  O74  1  0.506372  0.233718  0.615047  1
  O  O75  1  0.216090  0.706960  0.710360  1
  O  O76  1  0.718379  0.728467  0.474256  1
  O  O77  1  0.218301  0.271348  0.539687  1
  O  O78  1  0.716118  0.292930  0.650215  1
  O  O79  1  0.218375  0.271387  0.647571  1
  O  O80  1  0.716046  0.292904  0.537049  1
  O  O81  1  0.216125  0.706932  0.476895  1
  O  O82  1  0.718347  0.728467  0.713011  1
  O  O83  1  0.508796  0.522807  0.709039  1
  O  O84  1  0.508874  0.522789  0.478223  1
  O  O85  1  0.008833  0.477035  0.535721  1
  O  O86  1  0.008932  0.477063  0.651540  1
  O  O87  1  0.509298  0.451902  0.746598  1
  O  O88  1  0.509508  0.451888  0.440665  1
  O  O89  1  0.009534  0.547945  0.573279  1
  O  O90  1  0.009152  0.547952  0.613981  1
  O  O91  1  0.727260  0.621544  0.420310  1
  O  O92  1  0.224698  0.600805  0.420321  1
  O  O93  1  0.724627  0.399042  0.593618  1
  O  O94  1  0.227189  0.378299  0.593640  1
  Si  Si95  1  0.024980  0.013660  0.347824  1
  Si  Si96  1  0.025231  0.013647  0.146170  1
  Si  Si97  1  0.525230  0.986182  0.174506  1
  Si  Si98  1  0.524979  0.986211  0.319488  1
  Si  Si99  1  0.003426  0.281316  0.359449  1
  Si  Si100  1  0.003254  0.281296  0.134542  1
  Si  Si101  1  0.503223  0.718531  0.186132  1
  Si  Si102  1  0.503752  0.718553  0.307860  1
  Si  Si103  1  0.987889  0.781288  0.373946  1
  Si  Si104  1  0.987903  0.781285  0.120047  1
  Si  Si105  1  0.487835  0.218546  0.200628  1
  Si  Si106  1  0.487915  0.218576  0.293364  1
  Si  Si107  1  0.487400  0.657371  0.355938  1
  Si  Si108  1  0.487414  0.657355  0.138053  1
  Si  Si109  1  0.987347  0.342471  0.182621  1
  Si  Si110  1  0.987428  0.342500  0.311371  1
  Si  Si111  1  0.503695  0.406876  0.376391  1
  Si  Si112  1  0.503530  0.406856  0.117601  1
  Si  Si113  1  0.003491  0.592971  0.203072  1
  Si  Si114  1  0.004024  0.592988  0.290917  1
  Si  Si115  1  0.992228  0.468126  0.246995  1
  Si  Si116  1  0.492415  0.307171  0.246995  1
  Si  Si117  1  0.024980  0.013660  0.694459  1
  Si  Si118  1  0.025231  0.013647  0.492805  1
  Si  Si119  1  0.525230  0.986182  0.521141  1
  Si  Si120  1  0.524979  0.986211  0.666123  1
  Si  Si121  1  0.003426  0.281316  0.706084  1
  Si  Si122  1  0.003254  0.281296  0.481177  1
  Si  Si123  1  0.503223  0.718531  0.532767  1
  Si  Si124  1  0.503752  0.718553  0.654496  1
  Si  Si125  1  0.987889  0.781288  0.720582  1
  Si  Si126  1  0.987903  0.781285  0.466682  1
  Si  Si127  1  0.487835  0.218546  0.547263  1
  Si  Si128  1  0.487915  0.218576  0.639999  1
  Si  Si129  1  0.487400  0.657371  0.702573  1
  Si  Si130  1  0.487414  0.657355  0.484688  1
  Si  Si131  1  0.987347  0.342471  0.529256  1
  Si  Si132  1  0.987428  0.342500  0.658006  1
  Si  Si133  1  0.503695  0.406876  0.723026  1
  Si  Si134  1  0.503530  0.406856  0.464237  1
  Si  Si135  1  0.003491  0.592971  0.549707  1
  Si  Si136  1  0.004024  0.592988  0.637552  1
  Si  Si137  1  0.492296  0.531718  0.420315  1
  Si  Si138  1  0.992228  0.468126  0.593630  1
  Si  Si139  1  0.992483  0.692674  0.420314  1
  Si  Si140  1  0.492415  0.307171  0.593630  1
  H  H141  1  0.006300  0.766147  0.080751  1
  H  H142  1  0.509508  0.451888  0.079686  1
  H  H143  1  0.006394  0.766132  0.759876  1
  H  H144  1  0.509298  0.451902  0.760942  1
