# generated using pymatgen
data_Si9H2O19
_symmetry_space_group_name_H-M   'P 1'
_cell_length_a   18.09186212
_cell_length_b   7.53764703
_cell_length_c   45.75762101
_cell_angle_alpha   90.00000000
_cell_angle_beta   120.00000000
_cell_angle_gamma   90.00000000
_symmetry_Int_Tables_number   1
_chemical_formula_structural   Si9H2O19
_chemical_formula_sum   'Si36 H8 O76'
_cell_volume   5403.97255249
_cell_formula_units_Z   4
loop_
 _symmetry_equiv_pos_site_id
 _symmetry_equiv_pos_as_xyz
  1  'x, y, z'
loop_
 _atom_site_type_symbol
 _atom_site_label
 _atom_site_symmetry_multiplicity
 _atom_site_fract_x
 _atom_site_fract_y
 _atom_site_fract_z
 _atom_site_occupancy
  O  O1  1  0.739725  0.751612  0.168924  1
  O  O2  1  0.845406  0.751600  0.145852  1
  O  O3  1  0.575676  0.751606  0.145845  1
  O  O4  1  0.119630  0.420780  0.248341  1
  O  O5  1  0.119628  0.082459  0.248342  1
  O  O6  1  0.096300  0.751619  0.261341  1
  O  O7  1  0.257991  0.251616  0.271349  1
  O  O8  1  0.480496  0.251599  0.271357  1
  O  O9  1  0.152329  0.251602  0.206500  1
  O  O10  1  0.422060  0.251597  0.206508  1
  O  O11  1  0.710224  0.001608  0.259736  1
  O  O12  1  0.998885  0.501615  0.259752  1
  O  O13  1  0.998882  0.001617  0.259751  1
  O  O14  1  0.710224  0.501604  0.259736  1
  O  O15  1  0.681491  0.920773  0.200606  1
  O  O16  1  0.878086  0.920778  0.200615  1
  O  O17  1  0.560616  0.420758  0.248327  1
  O  O18  1  0.681493  0.582453  0.200607  1
  O  O19  1  0.560616  0.082444  0.248327  1
  O  O20  1  0.878088  0.582455  0.200617  1
  O  O21  1  0.832011  0.021369  0.241914  1
  O  O22  1  0.832013  0.481858  0.241915  1
  O  O23  1  0.714342  0.251612  0.222830  1
  O  O24  1  0.901435  0.251617  0.222840  1
  O  O25  1  0.616824  0.751601  0.261323  1
  O  O26  1  0.316282  0.420776  0.326058  1
  O  O27  1  0.316279  0.082461  0.326058  1
  O  O28  1  0.165767  0.521377  0.307863  1
  O  O29  1  0.165765  0.981858  0.307864  1
  O  O30  1  0.283440  0.751618  0.335297  1
  O  O31  1  0.422041  0.251605  0.313100  1
  O  O32  1  0.560594  0.420750  0.326066  1
  O  O33  1  0.560591  0.082440  0.326066  1
  O  O34  1  0.665041  0.521361  0.307847  1
  O  O35  1  0.665040  0.981836  0.307846  1
  O  O36  1  0.616799  0.751594  0.335297  1
  O  O37  1  0.437145  0.920765  0.421583  1
  O  O38  1  0.437143  0.582453  0.421583  1
  O  O39  1  0.332695  0.021368  0.439802  1
  O  O40  1  0.332694  0.481843  0.439802  1
  O  O41  1  0.380938  0.251610  0.412351  1
  O  O42  1  0.287551  0.001612  0.373831  1
  O  O43  1  0.287550  0.501613  0.373830  1
  O  O44  1  0.681458  0.920742  0.421590  1
  O  O45  1  0.681455  0.582428  0.421590  1
  O  O46  1  0.831971  0.021345  0.439785  1
  O  O47  1  0.831969  0.481826  0.439785  1
  O  O48  1  0.714296  0.251586  0.412351  1
  O  O49  1  0.575695  0.751599  0.434549  1
  O  O50  1  0.710185  0.001592  0.373818  1
  O  O51  1  0.710186  0.501590  0.373819  1
  O  O52  1  0.287511  0.501599  0.487912  1
  O  O53  1  0.287512  0.001595  0.487913  1
  O  O54  1  0.316243  0.420751  0.547042  1
  O  O55  1  0.437120  0.920760  0.499321  1
  O  O56  1  0.119647  0.420747  0.547032  1
  O  O57  1  0.316245  0.082430  0.547042  1
  O  O58  1  0.119649  0.082424  0.547034  1
  O  O59  1  0.437120  0.582447  0.499321  1
  O  O60  1  0.165723  0.521345  0.505733  1
  O  O61  1  0.165725  0.981833  0.505734  1
  O  O62  1  0.283394  0.751591  0.524819  1
  O  O63  1  0.380912  0.251602  0.486326  1
  O  O64  1  0.096301  0.751586  0.524809  1
  O  O65  1  0.998851  0.501588  0.487897  1
  O  O66  1  0.878108  0.920744  0.499306  1
  O  O67  1  0.878105  0.582423  0.499308  1
  O  O68  1  0.901435  0.251584  0.486307  1
  O  O69  1  0.739745  0.751587  0.476299  1
  O  O70  1  0.517240  0.751605  0.476291  1
  O  O71  1  0.845406  0.751600  0.541148  1
  O  O72  1  0.575676  0.751606  0.541141  1
  O  O73  1  0.998854  0.001585  0.487897  1
  O  O74  1  0.258011  0.251591  0.578724  1
  O  O75  1  0.152329  0.251602  0.601796  1
  O  O76  1  0.422060  0.251597  0.601804  1
  Si  Si77  1  0.094070  0.547745  0.269356  1
  Si  Si78  1  0.094068  0.955492  0.269357  1
  Si  Si79  1  0.161606  0.251615  0.242318  1
  Si  Si80  1  0.734602  0.047738  0.231731  1
  Si  Si81  1  0.903680  0.047742  0.231739  1
  Si  Si82  1  0.639329  0.547728  0.269339  1
  Si  Si83  1  0.734603  0.455485  0.231731  1
  Si  Si84  1  0.639330  0.955474  0.269338  1
  Si  Si85  1  0.903682  0.455490  0.231740  1
  Si  Si86  1  0.836109  0.751613  0.177998  1
  Si  Si87  1  0.666275  0.751611  0.177989  1
  Si  Si88  1  0.503410  0.251600  0.242315  1
  Si  Si89  1  0.331470  0.251616  0.309449  1
  Si  Si90  1  0.263180  0.547744  0.336188  1
  Si  Si91  1  0.263178  0.955490  0.336188  1
  Si  Si92  1  0.639306  0.955468  0.336182  1
  Si  Si93  1  0.639308  0.547722  0.336183  1
  Si  Si94  1  0.503389  0.251597  0.309458  1
  Si  Si95  1  0.494346  0.751607  0.438191  1
  Si  Si96  1  0.358430  0.047737  0.411466  1
  Si  Si97  1  0.358428  0.455482  0.411466  1
  Si  Si98  1  0.666266  0.751588  0.438200  1
  Si  Si99  1  0.734558  0.047713  0.411460  1
  Si  Si100  1  0.734556  0.455459  0.411461  1
  Si  Si101  1  0.358407  0.455475  0.478310  1
  Si  Si102  1  0.263133  0.547717  0.515917  1
  Si  Si103  1  0.358406  0.047730  0.478310  1
  Si  Si104  1  0.094053  0.547712  0.515908  1
  Si  Si105  1  0.263134  0.955466  0.515918  1
  Si  Si106  1  0.094056  0.955461  0.515909  1
  Si  Si107  1  0.494326  0.751604  0.505334  1
  Si  Si108  1  0.331461  0.251592  0.569659  1
  Si  Si109  1  0.161627  0.251590  0.569651  1
  Si  Si110  1  0.903668  0.047711  0.478291  1
  Si  Si111  1  0.903666  0.455458  0.478292  1
  Si  Si112  1  0.836130  0.751587  0.505330  1
  H  H113  1  0.845406  0.751600  0.126183  1
  H  H114  1  0.575676  0.751606  0.126176  1
  H  H115  1  0.152329  0.251602  0.186832  1
  H  H116  1  0.422060  0.251597  0.186839  1
  H  H117  1  0.845406  0.751600  0.560817  1
  H  H118  1  0.575676  0.751606  0.560809  1
  H  H119  1  0.152329  0.251602  0.621465  1
  H  H120  1  0.422060  0.251597  0.621473  1
