# generated using pymatgen
data_Si6H2O13
_symmetry_space_group_name_H-M   'P 1'
_cell_length_a   30.61891400
_cell_length_b   21.27945387
_cell_length_c   73.71358950
_cell_angle_alpha   149.99973029
_cell_angle_beta   90.00000000
_cell_angle_gamma   90.00000000
_symmetry_Int_Tables_number   1
_chemical_formula_structural   Si6H2O13
_chemical_formula_sum   'Si144 H48 O312'
_cell_volume   24014.3792915
_cell_formula_units_Z   24
loop_
 _symmetry_equiv_pos_site_id
 _symmetry_equiv_pos_as_xyz
  1  'x, y, z'
loop_
 _atom_site_type_symbol
 _atom_site_label
 _atom_site_symmetry_multiplicity
 _atom_site_fract_x
 _atom_site_fract_y
 _atom_site_fract_z
 _atom_site_occupancy
  Si  Si1  1  0.999687  0.749939  0.458490  1
  Si  Si2  1  0.916722  0.416395  0.416484  1
  Si  Si3  1  0.916608  0.668251  0.375655  1
  Si  Si4  1  0.916451  0.919549  0.375615  1
  Si  Si5  1  0.916695  0.919762  0.417622  1
  Si  Si6  1  0.916553  0.416519  0.458409  1
  Si  Si7  1  0.916416  0.668254  0.458509  1
  Si  Si8  1  0.833267  0.335846  0.458707  1
  Si  Si9  1  0.833339  0.082550  0.458182  1
  Si  Si10  1  0.833138  0.585796  0.417577  1
  Si  Si11  1  0.833322  0.585866  0.375381  1
  Si  Si12  1  0.833360  0.335795  0.375926  1
  Si  Si13  1  0.833162  0.082638  0.416529  1
  Si  Si14  1  0.999743  0.252665  0.417496  1
  Si  Si15  1  0.999747  0.750185  0.416654  1
  Si  Si16  1  0.999725  0.001360  0.375640  1
  Si  Si17  1  0.999942  0.001532  0.458518  1
  Si  Si18  1  0.999995  0.252907  0.375651  1
  Si  Si19  1  0.583254  0.416595  0.416735  1
  Si  Si20  1  0.583053  0.668046  0.375804  1
  Si  Si21  1  0.582895  0.919587  0.375727  1
  Si  Si22  1  0.583184  0.919225  0.417596  1
  Si  Si23  1  0.583026  0.416304  0.458560  1
  Si  Si24  1  0.582876  0.668149  0.458591  1
  Si  Si25  1  0.666407  0.335654  0.458761  1
  Si  Si26  1  0.666413  0.082420  0.458224  1
  Si  Si27  1  0.666193  0.586157  0.417791  1
  Si  Si28  1  0.666439  0.585889  0.375503  1
  Si  Si29  1  0.666414  0.335794  0.376018  1
  Si  Si30  1  0.666262  0.082167  0.416456  1
  Si  Si31  1  0.749870  0.920467  0.417714  1
  Si  Si32  1  0.749733  0.416794  0.458723  1
  Si  Si33  1  0.749748  0.666926  0.458168  1
  Si  Si34  1  0.500074  0.252729  0.375754  1
  Si  Si35  1  0.500043  0.001338  0.458618  1
  Si  Si36  1  0.749740  0.920348  0.375981  1
  Si  Si37  1  0.749929  0.416677  0.416448  1
  Si  Si38  1  0.749780  0.666973  0.375456  1
  Si  Si39  1  0.499827  0.750013  0.416753  1
  Si  Si40  1  0.416403  0.585970  0.417538  1
  Si  Si41  1  0.416457  0.335036  0.458590  1
  Si  Si42  1  0.416793  0.083420  0.458711  1
  Si  Si43  1  0.416421  0.084173  0.416948  1
  Si  Si44  1  0.416504  0.586729  0.375833  1
  Si  Si45  1  0.416829  0.334753  0.375827  1
  Si  Si46  1  0.333175  0.667534  0.375611  1
  Si  Si47  1  0.333333  0.920098  0.376127  1
  Si  Si48  1  0.333286  0.416196  0.416380  1
  Si  Si49  1  0.333139  0.417522  0.458920  1
  Si  Si50  1  0.333293  0.666879  0.458355  1
  Si  Si51  1  0.333276  0.921429  0.418141  1
  Si  Si52  1  0.499553  0.750003  0.458660  1
  Si  Si53  1  0.499552  0.001384  0.375792  1
  Si  Si54  1  0.499768  0.252740  0.417652  1
  Si  Si55  1  0.249884  0.335805  0.458855  1
  Si  Si56  1  0.249732  0.336291  0.376139  1
  Si  Si57  1  0.082855  0.585999  0.417544  1
  Si  Si58  1  0.082891  0.334676  0.458499  1
  Si  Si59  1  0.083347  0.083052  0.458538  1
  Si  Si60  1  0.082844  0.083430  0.416675  1
  Si  Si61  1  0.082946  0.586411  0.375748  1
  Si  Si62  1  0.083402  0.334420  0.375670  1
  Si  Si63  1  0.166420  0.666776  0.375522  1
  Si  Si64  1  0.166184  0.920819  0.376047  1
  Si  Si65  1  0.166485  0.417992  0.416928  1
  Si  Si66  1  0.166400  0.416494  0.458780  1
  Si  Si67  1  0.166104  0.667510  0.458298  1
  Si  Si68  1  0.166501  0.919417  0.417393  1
  Si  Si69  1  0.249674  0.082771  0.458304  1
  Si  Si70  1  0.249837  0.081864  0.416366  1
  Si  Si71  1  0.249808  0.587019  0.418080  1
  Si  Si72  1  0.249883  0.586048  0.375596  1
  O  O73  1  0.993791  0.120003  0.333753  1
  O  O74  1  0.993635  0.765000  0.441307  1
  O  O75  1  0.993682  0.119538  0.392832  1
  O  O76  1  0.875663  0.352698  0.391849  1
  O  O77  1  0.875445  0.647904  0.382823  1
  O  O78  1  0.875221  0.002959  0.392885  1
  O  O79  1  0.875601  0.003744  0.442219  1
  O  O80  1  0.875348  0.353285  0.451254  1
  O  O81  1  0.875180  0.648057  0.441244  1
  O  O82  1  0.922074  0.549978  0.441314  1
  O  O83  1  0.922117  0.550058  0.333697  1
  O  O84  1  0.922087  0.904409  0.392804  1
  O  O85  1  0.909833  0.430082  0.440848  1
  O  O86  1  0.909852  0.787217  0.393236  1
  O  O87  1  0.909698  0.786916  0.333730  1
  O  O88  1  0.832867  0.445731  0.333711  1
  O  O89  1  0.832804  0.112811  0.444910  1
  O  O90  1  0.832789  0.445695  0.389203  1
  O  O91  1  0.832247  0.207055  0.436524  1
  O  O92  1  0.831999  0.207125  0.333722  1
  O  O93  1  0.832242  0.590142  0.397556  1
  O  O94  1  0.791379  0.353654  0.451240  1
  O  O95  1  0.791627  0.001445  0.441671  1
  O  O96  1  0.791203  0.648365  0.441375  1
  O  O97  1  0.791484  0.648674  0.382889  1
  O  O98  1  0.791688  0.353836  0.392482  1
  O  O99  1  0.791234  0.002375  0.392733  1
  O  O100  1  0.751126  0.794743  0.397097  1
  O  O101  1  0.751420  0.794448  0.333741  1
  O  O102  1  0.751146  0.414749  0.437090  1
  O  O103  1  0.958572  0.335511  0.392800  1
  O  O104  1  0.958287  0.688081  0.392553  1
  O  O105  1  0.958098  0.981214  0.382557  1
  O  O106  1  0.958505  0.981178  0.441362  1
  O  O107  1  0.958206  0.334886  0.441505  1
  O  O108  1  0.958050  0.688303  0.451570  1
  O  O109  1  0.506577  0.120402  0.333850  1
  O  O110  1  0.506217  0.763067  0.440978  1
  O  O111  1  0.506192  0.120528  0.393469  1
  O  O112  1  0.623870  0.352094  0.391655  1
  O  O113  1  0.623682  0.646551  0.382959  1
  O  O114  1  0.623393  0.005994  0.393702  1
  O  O115  1  0.623809  0.005172  0.442656  1
  O  O116  1  0.623586  0.351611  0.451354  1
  O  O117  1  0.623342  0.646596  0.440572  1
  O  O118  1  0.578102  0.550909  0.441939  1
  O  O119  1  0.577981  0.550604  0.333850  1
  O  O120  1  0.578077  0.902251  0.392376  1
  O  O121  1  0.590455  0.428505  0.440669  1
  O  O122  1  0.590406  0.787579  0.393684  1
  O  O123  1  0.590261  0.788074  0.333824  1
  O  O124  1  0.667296  0.445889  0.333799  1
  O  O125  1  0.667171  0.111945  0.444750  1
  O  O126  1  0.667108  0.446172  0.389495  1
  O  O127  1  0.668696  0.207147  0.436728  1
  O  O128  1  0.668425  0.207418  0.333788  1
  O  O129  1  0.668635  0.589562  0.397533  1
  O  O130  1  0.707312  0.354794  0.451058  1
  O  O131  1  0.707540  0.998822  0.441159  1
  O  O132  1  0.707104  0.651460  0.442758  1
  O  O133  1  0.707416  0.650997  0.383167  1
  O  O134  1  0.707596  0.354433  0.393016  1
  O  O135  1  0.707139  0.997555  0.391446  1
  O  O136  1  0.749815  0.556847  0.444835  1
  O  O137  1  0.749679  0.557006  0.333757  1
  O  O138  1  0.541203  0.336606  0.393296  1
  O  O139  1  0.540948  0.687276  0.392314  1
  O  O140  1  0.540616  0.979913  0.382667  1
  O  O141  1  0.541129  0.979936  0.441043  1
  O  O142  1  0.540872  0.336701  0.442095  1
  O  O143  1  0.540569  0.687023  0.451721  1
  O  O144  1  0.749755  0.890258  0.389313  1
  O  O145  1  0.493483  0.883156  0.333894  1
  O  O146  1  0.493785  0.237866  0.392979  1
  O  O147  1  0.493813  0.883104  0.441388  1
  O  O148  1  0.375033  0.648377  0.441767  1
  O  O149  1  0.375375  0.355496  0.451396  1
  O  O150  1  0.375856  0.998861  0.441173  1
  O  O151  1  0.375086  0.001051  0.392688  1
  O  O152  1  0.375412  0.650483  0.383087  1
  O  O153  1  0.375936  0.355545  0.393420  1
  O  O154  1  0.422165  0.452559  0.392775  1
  O  O155  1  0.422005  0.453385  0.333875  1
  O  O156  1  0.422139  0.099554  0.441766  1
  O  O157  1  0.409712  0.572383  0.393186  1
  O  O158  1  0.409659  0.216581  0.441242  1
  O  O159  1  0.409775  0.215571  0.333938  1
  O  O160  1  0.332784  0.557783  0.333937  1
  O  O161  1  0.332600  0.890712  0.389637  1
  O  O162  1  0.332556  0.556436  0.444844  1
  O  O163  1  0.331576  0.796726  0.398002  1
  O  O164  1  0.333745  0.795599  0.333908  1
  O  O165  1  0.331483  0.412636  0.436596  1
  O  O166  1  0.291487  0.648961  0.382970  1
  O  O167  1  0.291133  0.998808  0.391879  1
  O  O168  1  0.292135  0.351524  0.391659  1
  O  O169  1  0.291467  0.354701  0.451535  1
  O  O170  1  0.291071  0.651143  0.442625  1
  O  O171  1  0.292058  0.004842  0.442774  1
  O  O172  1  0.251630  0.207864  0.437124  1
  O  O173  1  0.457938  0.668041  0.441590  1
  O  O174  1  0.458217  0.314893  0.441678  1
  O  O175  1  0.458611  0.022077  0.451755  1
  O  O176  1  0.457975  0.021914  0.392904  1
  O  O177  1  0.458286  0.667964  0.392726  1
  O  O178  1  0.458685  0.314928  0.382696  1
  O  O179  1  0.251576  0.588554  0.397343  1
  O  O180  1  0.006342  0.882033  0.333730  1
  O  O181  1  0.006275  0.239424  0.393238  1
  O  O182  1  0.006237  0.882511  0.440921  1
  O  O183  1  0.123350  0.651178  0.442784  1
  O  O184  1  0.123624  0.355824  0.451302  1
  O  O185  1  0.124042  0.997284  0.440647  1
  O  O186  1  0.123428  0.997508  0.391537  1
  O  O187  1  0.123650  0.650874  0.382976  1
  O  O188  1  0.124114  0.356040  0.393564  1
  O  O189  1  0.078128  0.451671  0.392364  1
  O  O190  1  0.077813  0.452249  0.333792  1
  O  O191  1  0.078072  0.100148  0.441846  1
  O  O192  1  0.090154  0.574022  0.393601  1
  O  O193  1  0.090075  0.215162  0.440640  1
  O  O194  1  0.090609  0.214729  0.333767  1
  O  O195  1  0.167303  0.556251  0.333814  1
  O  O196  1  0.167035  0.890133  0.389204  1
  O  O197  1  0.166949  0.557881  0.445141  1
  O  O198  1  0.168481  0.794599  0.397207  1
  O  O199  1  0.168394  0.796378  0.333837  1
  O  O200  1  0.168424  0.414119  0.437072  1
  O  O201  1  0.207430  0.648190  0.383331  1
  O  O202  1  0.207136  0.005208  0.393356  1
  O  O203  1  0.208029  0.354516  0.392706  1
  O  O204  1  0.207418  0.351267  0.451049  1
  O  O205  1  0.207059  0.648116  0.441011  1
  O  O206  1  0.207954  0.001614  0.441728  1
  O  O207  1  0.249912  0.112186  0.444790  1
  O  O208  1  0.249968  0.446814  0.389663  1
  O  O209  1  0.040626  0.665308  0.440798  1
  O  O210  1  0.040839  0.315449  0.441960  1
  O  O211  1  0.041233  0.022376  0.451599  1
  O  O212  1  0.040683  0.022891  0.393325  1
  O  O213  1  0.040897  0.666383  0.392269  1
  O  O214  1  0.041298  0.315300  0.382593  1
  O  O215  1  0.248187  0.209103  0.333889  1
  O  O216  1  0.249718  0.445739  0.333894  1
  H  H217  1  0.993791  0.120003  0.321543  1
  H  H218  1  0.922117  0.550058  0.321487  1
  H  H219  1  0.909698  0.786916  0.321520  1
  H  H220  1  0.832867  0.445731  0.321501  1
  H  H221  1  0.831999  0.207125  0.321512  1
  H  H222  1  0.751420  0.794448  0.321532  1
  H  H223  1  0.506577  0.120402  0.321641  1
  H  H224  1  0.577981  0.550604  0.321640  1
  H  H225  1  0.590261  0.788074  0.321615  1
  H  H226  1  0.667296  0.445889  0.321589  1
  H  H227  1  0.668425  0.207418  0.321578  1
  H  H228  1  0.749679  0.557006  0.321547  1
  H  H229  1  0.493483  0.883156  0.321684  1
  H  H230  1  0.422005  0.453385  0.321666  1
  H  H231  1  0.409775  0.215571  0.321728  1
  H  H232  1  0.332784  0.557783  0.321727  1
  H  H233  1  0.333745  0.795599  0.321698  1
  H  H234  1  0.006342  0.882033  0.321520  1
  H  H235  1  0.077813  0.452249  0.321582  1
  H  H236  1  0.090609  0.214729  0.321558  1
  H  H237  1  0.167303  0.556251  0.321605  1
  H  H238  1  0.168394  0.796378  0.321628  1
  H  H239  1  0.248187  0.209103  0.321680  1
  H  H240  1  0.249718  0.445739  0.321684  1
  Si  Si241  1  0.999687  0.749939  0.625157  1
  Si  Si242  1  0.916722  0.416395  0.583151  1
  Si  Si243  1  0.916608  0.668251  0.542323  1
  Si  Si244  1  0.916451  0.919549  0.542283  1
  Si  Si245  1  0.916695  0.919762  0.584288  1
  Si  Si246  1  0.916553  0.416519  0.625076  1
  Si  Si247  1  0.916416  0.668254  0.625175  1
  Si  Si248  1  0.833267  0.335846  0.625373  1
  Si  Si249  1  0.833339  0.082550  0.624849  1
  Si  Si250  1  0.833138  0.585796  0.584244  1
  Si  Si251  1  0.833322  0.585866  0.542048  1
  Si  Si252  1  0.833360  0.335795  0.542593  1
  Si  Si253  1  0.833162  0.082638  0.583195  1
  Si  Si254  1  0.999743  0.252665  0.584163  1
  Si  Si255  1  0.999747  0.750185  0.583321  1
  Si  Si256  1  0.999725  0.001360  0.542307  1
  Si  Si257  1  0.999942  0.001532  0.625185  1
  Si  Si258  1  0.999995  0.252907  0.542318  1
  Si  Si259  1  0.583254  0.416595  0.583401  1
  Si  Si260  1  0.583053  0.668046  0.542471  1
  Si  Si261  1  0.582895  0.919587  0.542393  1
  Si  Si262  1  0.583184  0.919225  0.584263  1
  Si  Si263  1  0.583026  0.416304  0.625226  1
  Si  Si264  1  0.582876  0.668149  0.625257  1
  Si  Si265  1  0.666407  0.335654  0.625427  1
  Si  Si266  1  0.666413  0.082420  0.624891  1
  Si  Si267  1  0.666193  0.586157  0.584457  1
  Si  Si268  1  0.666439  0.585889  0.542170  1
  Si  Si269  1  0.666414  0.335794  0.542684  1
  Si  Si270  1  0.666262  0.082167  0.583122  1
  Si  Si271  1  0.749870  0.920467  0.584380  1
  Si  Si272  1  0.749733  0.416794  0.625390  1
  Si  Si273  1  0.749748  0.666926  0.624834  1
  Si  Si274  1  0.500074  0.252729  0.542420  1
  Si  Si275  1  0.500043  0.001338  0.625285  1
  Si  Si276  1  0.749740  0.920348  0.542647  1
  Si  Si277  1  0.749929  0.416677  0.583114  1
  Si  Si278  1  0.749780  0.666973  0.542123  1
  Si  Si279  1  0.499827  0.750013  0.583420  1
  Si  Si280  1  0.416403  0.585970  0.584205  1
  Si  Si281  1  0.416457  0.335036  0.625257  1
  Si  Si282  1  0.416793  0.083420  0.625378  1
  Si  Si283  1  0.416421  0.084173  0.583615  1
  Si  Si284  1  0.416504  0.586729  0.542500  1
  Si  Si285  1  0.416829  0.334753  0.542493  1
  Si  Si286  1  0.333175  0.667534  0.542278  1
  Si  Si287  1  0.333333  0.920098  0.542794  1
  Si  Si288  1  0.333286  0.416196  0.583046  1
  Si  Si289  1  0.333139  0.417522  0.625587  1
  Si  Si290  1  0.333293  0.666879  0.625022  1
  Si  Si291  1  0.333276  0.921429  0.584808  1
  Si  Si292  1  0.499553  0.750003  0.625327  1
  Si  Si293  1  0.499552  0.001384  0.542459  1
  Si  Si294  1  0.499768  0.252740  0.584319  1
  Si  Si295  1  0.249884  0.335805  0.625522  1
  Si  Si296  1  0.249732  0.336291  0.542806  1
  Si  Si297  1  0.082855  0.585999  0.584210  1
  Si  Si298  1  0.082891  0.334676  0.625165  1
  Si  Si299  1  0.083347  0.083052  0.625204  1
  Si  Si300  1  0.082844  0.083430  0.583341  1
  Si  Si301  1  0.082946  0.586411  0.542415  1
  Si  Si302  1  0.083402  0.334420  0.542336  1
  Si  Si303  1  0.166420  0.666776  0.542189  1
  Si  Si304  1  0.166184  0.920819  0.542714  1
  Si  Si305  1  0.166485  0.417992  0.583595  1
  Si  Si306  1  0.166400  0.416494  0.625447  1
  Si  Si307  1  0.166104  0.667510  0.624964  1
  Si  Si308  1  0.166501  0.919417  0.584060  1
  Si  Si309  1  0.249674  0.082771  0.624970  1
  Si  Si310  1  0.249837  0.081864  0.583033  1
  Si  Si311  1  0.249808  0.587019  0.584747  1
  Si  Si312  1  0.249883  0.586048  0.542262  1
  O  O313  1  0.993791  0.120003  0.500420  1
  O  O314  1  0.993635  0.765000  0.607973  1
  O  O315  1  0.993682  0.119538  0.559499  1
  O  O316  1  0.875663  0.352698  0.558516  1
  O  O317  1  0.875445  0.647904  0.549490  1
  O  O318  1  0.875221  0.002959  0.559551  1
  O  O319  1  0.875601  0.003744  0.608885  1
  O  O320  1  0.875348  0.353285  0.617920  1
  O  O321  1  0.875180  0.648057  0.607911  1
  O  O322  1  0.922074  0.549978  0.607980  1
  O  O323  1  0.922117  0.550058  0.500363  1
  O  O324  1  0.922087  0.904409  0.559470  1
  O  O325  1  0.909833  0.430082  0.607514  1
  O  O326  1  0.909852  0.787217  0.559902  1
  O  O327  1  0.909698  0.786916  0.500397  1
  O  O328  1  0.832867  0.445731  0.500378  1
  O  O329  1  0.832804  0.112811  0.611576  1
  O  O330  1  0.832789  0.445695  0.555870  1
  O  O331  1  0.832247  0.207055  0.603191  1
  O  O332  1  0.831999  0.207125  0.500388  1
  O  O333  1  0.832242  0.590142  0.564222  1
  O  O334  1  0.791379  0.353654  0.617908  1
  O  O335  1  0.791627  0.001445  0.608339  1
  O  O336  1  0.791203  0.648365  0.608042  1
  O  O337  1  0.791484  0.648674  0.549556  1
  O  O338  1  0.791688  0.353836  0.559149  1
  O  O339  1  0.791234  0.002375  0.559400  1
  O  O340  1  0.751126  0.794743  0.563764  1
  O  O341  1  0.751420  0.794448  0.500408  1
  O  O342  1  0.751146  0.414749  0.603757  1
  O  O343  1  0.958572  0.335511  0.559466  1
  O  O344  1  0.958287  0.688081  0.559220  1
  O  O345  1  0.958098  0.981214  0.549223  1
  O  O346  1  0.958505  0.981178  0.608028  1
  O  O347  1  0.958206  0.334886  0.608172  1
  O  O348  1  0.958050  0.688303  0.618236  1
  O  O349  1  0.506577  0.120402  0.500517  1
  O  O350  1  0.506217  0.763067  0.607645  1
  O  O351  1  0.506192  0.120528  0.560136  1
  O  O352  1  0.623870  0.352094  0.558321  1
  O  O353  1  0.623682  0.646551  0.549626  1
  O  O354  1  0.623393  0.005994  0.560369  1
  O  O355  1  0.623809  0.005172  0.609322  1
  O  O356  1  0.623586  0.351611  0.618020  1
  O  O357  1  0.623342  0.646596  0.607239  1
  O  O358  1  0.578102  0.550909  0.608606  1
  O  O359  1  0.577981  0.550604  0.500517  1
  O  O360  1  0.578077  0.902251  0.559042  1
  O  O361  1  0.590455  0.428505  0.607335  1
  O  O362  1  0.590406  0.787579  0.560350  1
  O  O363  1  0.590261  0.788074  0.500491  1
  O  O364  1  0.667296  0.445889  0.500466  1
  O  O365  1  0.667171  0.111945  0.611417  1
  O  O366  1  0.667108  0.446172  0.556161  1
  O  O367  1  0.668696  0.207147  0.603395  1
  O  O368  1  0.668425  0.207418  0.500455  1
  O  O369  1  0.668635  0.589562  0.564200  1
  O  O370  1  0.707312  0.354794  0.617725  1
  O  O371  1  0.707540  0.998822  0.607827  1
  O  O372  1  0.707104  0.651460  0.609424  1
  O  O373  1  0.707416  0.650997  0.549834  1
  O  O374  1  0.707596  0.354433  0.559683  1
  O  O375  1  0.707139  0.997555  0.558113  1
  O  O376  1  0.749815  0.556847  0.611502  1
  O  O377  1  0.749679  0.557006  0.500424  1
  O  O378  1  0.541203  0.336606  0.559963  1
  O  O379  1  0.540948  0.687276  0.558981  1
  O  O380  1  0.540616  0.979913  0.549334  1
  O  O381  1  0.541129  0.979936  0.607709  1
  O  O382  1  0.540872  0.336701  0.608761  1
  O  O383  1  0.540569  0.687023  0.618387  1
  O  O384  1  0.749755  0.890258  0.555979  1
  O  O385  1  0.493483  0.883156  0.500560  1
  O  O386  1  0.493785  0.237866  0.559646  1
  O  O387  1  0.493813  0.883104  0.608054  1
  O  O388  1  0.375033  0.648377  0.608433  1
  O  O389  1  0.375375  0.355496  0.618063  1
  O  O390  1  0.375856  0.998861  0.607839  1
  O  O391  1  0.375086  0.001051  0.559354  1
  O  O392  1  0.375412  0.650483  0.549754  1
  O  O393  1  0.375936  0.355545  0.560087  1
  O  O394  1  0.422165  0.452559  0.559441  1
  O  O395  1  0.422005  0.453385  0.500542  1
  O  O396  1  0.422139  0.099554  0.608433  1
  O  O397  1  0.409712  0.572383  0.559853  1
  O  O398  1  0.409659  0.216581  0.607909  1
  O  O399  1  0.409775  0.215571  0.500605  1
  O  O400  1  0.332784  0.557783  0.500603  1
  O  O401  1  0.332600  0.890712  0.556304  1
  O  O402  1  0.332556  0.556436  0.611511  1
  O  O403  1  0.331576  0.796726  0.564669  1
  O  O404  1  0.333745  0.795599  0.500575  1
  O  O405  1  0.331483  0.412636  0.603262  1
  O  O406  1  0.291487  0.648961  0.549637  1
  O  O407  1  0.291133  0.998808  0.558545  1
  O  O408  1  0.292135  0.351524  0.558326  1
  O  O409  1  0.291467  0.354701  0.618201  1
  O  O410  1  0.291071  0.651143  0.609292  1
  O  O411  1  0.292058  0.004842  0.609441  1
  O  O412  1  0.251630  0.207864  0.603791  1
  O  O413  1  0.457938  0.668041  0.608257  1
  O  O414  1  0.458217  0.314893  0.608345  1
  O  O415  1  0.458611  0.022077  0.618421  1
  O  O416  1  0.457975  0.021914  0.559571  1
  O  O417  1  0.458286  0.667964  0.559392  1
  O  O418  1  0.458685  0.314928  0.549362  1
  O  O419  1  0.251576  0.588554  0.564010  1
  O  O420  1  0.006342  0.882033  0.500397  1
  O  O421  1  0.006275  0.239424  0.559905  1
  O  O422  1  0.006237  0.882511  0.607587  1
  O  O423  1  0.123350  0.651178  0.609451  1
  O  O424  1  0.123624  0.355824  0.617969  1
  O  O425  1  0.124042  0.997284  0.607314  1
  O  O426  1  0.123428  0.997508  0.558203  1
  O  O427  1  0.123650  0.650874  0.549643  1
  O  O428  1  0.124114  0.356040  0.560230  1
  O  O429  1  0.078128  0.451671  0.559030  1
  O  O430  1  0.077813  0.452249  0.500458  1
  O  O431  1  0.078072  0.100148  0.608513  1
  O  O432  1  0.090154  0.574022  0.560267  1
  O  O433  1  0.090075  0.215162  0.607306  1
  O  O434  1  0.090609  0.214729  0.500435  1
  O  O435  1  0.167303  0.556251  0.500480  1
  O  O436  1  0.167035  0.890133  0.555871  1
  O  O437  1  0.166949  0.557881  0.611808  1
  O  O438  1  0.168481  0.794599  0.563874  1
  O  O439  1  0.168394  0.796378  0.500504  1
  O  O440  1  0.168424  0.414119  0.603738  1
  O  O441  1  0.207430  0.648190  0.549998  1
  O  O442  1  0.207136  0.005208  0.560022  1
  O  O443  1  0.208029  0.354516  0.559373  1
  O  O444  1  0.207418  0.351267  0.617717  1
  O  O445  1  0.207059  0.648116  0.607677  1
  O  O446  1  0.207954  0.001614  0.608394  1
  O  O447  1  0.249912  0.112186  0.611457  1
  O  O448  1  0.249968  0.446814  0.556330  1
  O  O449  1  0.040626  0.665308  0.607464  1
  O  O450  1  0.040839  0.315449  0.608626  1
  O  O451  1  0.041233  0.022376  0.618266  1
  O  O452  1  0.040683  0.022891  0.559993  1
  O  O453  1  0.040897  0.666383  0.558936  1
  O  O454  1  0.041298  0.315300  0.549260  1
  O  O455  1  0.248187  0.209103  0.500556  1
  O  O456  1  0.249718  0.445739  0.500560  1
  O  O457  1  0.993791  0.120003  0.667086  1
  O  O458  1  0.922117  0.550058  0.667030  1
  O  O459  1  0.909698  0.786916  0.667063  1
  O  O460  1  0.832867  0.445731  0.667044  1
  O  O461  1  0.831999  0.207125  0.667054  1
  O  O462  1  0.751420  0.794448  0.667075  1
  O  O463  1  0.506577  0.120402  0.667184  1
  O  O464  1  0.577981  0.550604  0.667183  1
  O  O465  1  0.590261  0.788074  0.667157  1
  O  O466  1  0.667296  0.445889  0.667133  1
  O  O467  1  0.668425  0.207418  0.667121  1
  O  O468  1  0.749679  0.557006  0.667091  1
  O  O469  1  0.493483  0.883156  0.667227  1
  O  O470  1  0.422005  0.453385  0.667208  1
  O  O471  1  0.409775  0.215571  0.667271  1
  O  O472  1  0.332784  0.557783  0.667270  1
  O  O473  1  0.333745  0.795599  0.667241  1
  O  O474  1  0.006342  0.882033  0.667064  1
  O  O475  1  0.077813  0.452249  0.667125  1
  O  O476  1  0.090609  0.214729  0.667101  1
  O  O477  1  0.167303  0.556251  0.667148  1
  O  O478  1  0.168394  0.796378  0.667170  1
  O  O479  1  0.248187  0.209103  0.667222  1
  O  O480  1  0.249718  0.445739  0.667227  1
  H  H481  1  0.993791  0.120003  0.679296  1
  H  H482  1  0.922117  0.550058  0.679239  1
  H  H483  1  0.909698  0.786916  0.679272  1
  H  H484  1  0.832867  0.445731  0.679253  1
  H  H485  1  0.831999  0.207125  0.679264  1
  H  H486  1  0.751420  0.794448  0.679284  1
  H  H487  1  0.506577  0.120402  0.679393  1
  H  H488  1  0.577981  0.550604  0.679393  1
  H  H489  1  0.590261  0.788074  0.679367  1
  H  H490  1  0.667296  0.445889  0.679342  1
  H  H491  1  0.668425  0.207418  0.679331  1
  H  H492  1  0.749679  0.557006  0.679300  1
  H  H493  1  0.493483  0.883156  0.679436  1
  H  H494  1  0.422005  0.453385  0.679418  1
  H  H495  1  0.409775  0.215571  0.679480  1
  H  H496  1  0.332784  0.557783  0.679480  1
  H  H497  1  0.333745  0.795599  0.679450  1
  H  H498  1  0.006342  0.882033  0.679273  1
  H  H499  1  0.077813  0.452249  0.679334  1
  H  H500  1  0.090609  0.214729  0.679311  1
  H  H501  1  0.167303  0.556251  0.679357  1
  H  H502  1  0.168394  0.796378  0.679380  1
  H  H503  1  0.248187  0.209103  0.679431  1
  H  H504  1  0.249718  0.445739  0.679436  1
