# generated using pymatgen
data_Si6H2O13
_symmetry_space_group_name_H-M   'P 1'
_cell_length_a   20.16320754
_cell_length_b   13.29161272
_cell_length_c   31.73231347
_cell_angle_alpha   90.00000000
_cell_angle_beta   90.00000000
_cell_angle_gamma   90.00000000
_symmetry_Int_Tables_number   1
_chemical_formula_structural   Si6H2O13
_chemical_formula_sum   'Si48 H16 O104'
_cell_volume   8504.30906209
_cell_formula_units_Z   8
loop_
 _symmetry_equiv_pos_site_id
 _symmetry_equiv_pos_as_xyz
  1  'x, y, z'
loop_
 _atom_site_type_symbol
 _atom_site_label
 _atom_site_symmetry_multiplicity
 _atom_site_fract_x
 _atom_site_fract_y
 _atom_site_fract_z
 _atom_site_occupancy
  O  O1  1  0.000000  0.198662  0.372981  1
  O  O2  1  0.690908  0.056493  0.375026  1
  O  O3  1  0.810650  0.669713  0.374551  1
  O  O4  1  0.747024  0.228000  0.375387  1
  O  O5  1  0.705984  0.893121  0.421508  1
  O  O6  1  0.801099  0.962873  0.377235  1
  O  O7  1  0.899704  0.903248  0.422440  1
  O  O8  1  0.908186  0.066606  0.377296  1
  O  O9  1  0.873177  0.250516  0.375895  1
  O  O10  1  0.796357  0.366588  0.421461  1
  O  O11  1  0.879482  0.722574  0.438987  1
  O  O12  1  0.921692  0.835202  0.498931  1
  O  O13  1  0.808580  0.555934  0.438447  1
  O  O14  1  0.752511  0.724494  0.440680  1
  O  O15  1  0.781819  0.434208  0.498932  1
  O  O16  1  0.696397  0.470151  0.442618  1
  O  O17  1  0.697469  0.822980  0.498932  1
  O  O18  1  0.797212  0.381975  0.342501  1
  O  O19  1  0.904252  0.896479  0.342692  1
  O  O20  1  0.878679  0.727275  0.311786  1
  O  O21  1  0.908651  0.879340  0.264119  1
  O  O22  1  0.809030  0.556494  0.309840  1
  O  O23  1  0.689290  0.169711  0.310314  1
  O  O24  1  0.752914  0.728000  0.309478  1
  O  O25  1  0.793953  0.393123  0.263357  1
  O  O26  1  0.698838  0.462873  0.307630  1
  O  O27  1  0.000000  0.203976  0.248015  1
  O  O28  1  0.922216  0.169720  0.311175  1
  O  O29  1  0.703583  0.866588  0.263403  1
  O  O30  1  0.691361  0.055935  0.246417  1
  O  O31  1  0.747428  0.224495  0.244182  1
  O  O32  1  0.718124  0.934209  0.185932  1
  O  O33  1  0.803543  0.970151  0.242247  1
  O  O34  1  0.890612  0.943028  0.185933  1
  O  O35  1  0.911918  0.066932  0.245660  1
  O  O36  1  0.872607  0.247145  0.245259  1
  O  O37  1  0.802470  0.322975  0.185933  1
  O  O38  1  0.702726  0.881976  0.342362  1
  O  O39  1  0.499829  0.301236  0.372983  1
  O  O40  1  0.621259  0.227275  0.373079  1
  O  O41  1  0.591290  0.379337  0.420747  1
  O  O42  1  0.399705  0.596651  0.422445  1
  O  O43  1  0.408184  0.433287  0.377302  1
  O  O44  1  0.373178  0.249376  0.375888  1
  O  O45  1  0.577725  0.669720  0.373690  1
  O  O46  1  0.500282  0.703974  0.436848  1
  O  O47  1  0.379481  0.777327  0.438986  1
  O  O48  1  0.421692  0.664719  0.498933  1
  O  O49  1  0.609330  0.443028  0.498933  1
  O  O50  1  0.588021  0.566930  0.439204  1
  O  O51  1  0.627334  0.747142  0.439608  1
  O  O52  1  0.404254  0.603412  0.342697  1
  O  O53  1  0.500108  0.698661  0.311885  1
  O  O54  1  0.378678  0.772616  0.311788  1
  O  O55  1  0.408651  0.620552  0.264123  1
  O  O56  1  0.600235  0.403246  0.262426  1
  O  O57  1  0.591753  0.566606  0.307570  1
  O  O58  1  0.626761  0.750516  0.308969  1
  O  O59  1  0.422221  0.330197  0.311175  1
  O  O60  1  0.499658  0.295927  0.248016  1
  O  O61  1  0.620458  0.222573  0.245878  1
  O  O62  1  0.578251  0.335202  0.185934  1
  O  O63  1  0.390612  0.556892  0.185935  1
  O  O64  1  0.411914  0.432964  0.245655  1
  O  O65  1  0.372606  0.252752  0.245263  1
  O  O66  1  0.595685  0.396480  0.342174  1
  O  O67  1  0.121260  0.272619  0.373074  1
  O  O68  1  0.091290  0.120557  0.420742  1
  O  O69  1  0.297213  0.117912  0.342495  1
  O  O70  1  0.190911  0.443396  0.375033  1
  O  O71  1  0.310649  0.830201  0.374551  1
  O  O72  1  0.247026  0.271888  0.375381  1
  O  O73  1  0.205985  0.606773  0.421513  1
  O  O74  1  0.301100  0.537024  0.377240  1
  O  O75  1  -0.000000  0.795928  0.436848  1
  O  O76  1  0.077721  0.830194  0.373690  1
  O  O77  1  0.296360  0.133306  0.421456  1
  O  O78  1  0.308579  0.943965  0.438451  1
  O  O79  1  0.252511  0.775406  0.440680  1
  O  O80  1  0.281819  0.065712  0.498929  1
  O  O81  1  0.196398  0.029752  0.442618  1
  O  O82  1  0.109330  0.056892  0.498930  1
  O  O83  1  0.088023  0.932969  0.439208  1
  O  O84  1  0.127332  0.752756  0.439604  1
  O  O85  1  0.197473  0.676945  0.498933  1
  O  O86  1  0.000000  0.801233  0.311883  1
  O  O87  1  0.309027  0.943395  0.309831  1
  O  O88  1  0.189290  0.330206  0.310313  1
  O  O89  1  0.252913  0.771887  0.309483  1
  O  O90  1  0.293951  0.106772  0.263350  1
  O  O91  1  0.198837  0.037021  0.307625  1
  O  O92  1  0.100233  0.096651  0.262421  1
  O  O93  1  0.091753  0.933287  0.307564  1
  O  O94  1  0.126760  0.749375  0.308975  1
  O  O95  1  0.203579  0.633305  0.263408  1
  O  O96  1  0.120457  0.277329  0.245880  1
  O  O97  1  0.078250  0.164719  0.185931  1
  O  O98  1  0.191361  0.443966  0.246412  1
  O  O99  1  0.247429  0.275406  0.244187  1
  O  O100  1  0.218123  0.565712  0.185934  1
  O  O101  1  0.303542  0.529753  0.242246  1
  O  O102  1  0.302473  0.176940  0.185930  1
  O  O103  1  0.095684  0.103414  0.342168  1
  O  O104  1  0.202724  0.617912  0.342368  1
  Si  Si105  1  0.772768  0.454931  0.450583  1
  Si  Si106  1  0.694764  0.799158  0.450565  1
  Si  Si107  1  0.685171  0.168258  0.359361  1
  Si  Si108  1  0.724271  0.950319  0.379901  1
  Si  Si109  1  0.878152  0.958555  0.380892  1
  Si  Si110  1  0.926470  0.173538  0.360216  1
  Si  Si111  1  0.804794  0.305644  0.379537  1
  Si  Si112  1  0.926023  0.813759  0.450287  1
  Si  Si113  1  0.814797  0.667961  0.423542  1
  Si  Si114  1  0.805176  0.299159  0.234300  1
  Si  Si115  1  0.923965  0.822763  0.306479  1
  Si  Si116  1  0.814767  0.668259  0.325503  1
  Si  Si117  1  0.775666  0.450321  0.304964  1
  Si  Si118  1  0.695144  0.805645  0.305327  1
  Si  Si119  1  0.685144  0.167961  0.261323  1
  Si  Si120  1  0.727172  0.954932  0.234282  1
  Si  Si121  1  0.880295  0.963162  0.234381  1
  Si  Si122  1  0.927481  0.174836  0.262250  1
  Si  Si123  1  0.572459  0.674835  0.422616  1
  Si  Si124  1  0.575973  0.322763  0.378387  1
  Si  Si125  1  0.378154  0.541340  0.380898  1
  Si  Si126  1  0.426471  0.326361  0.360216  1
  Si  Si127  1  0.426024  0.686147  0.450288  1
  Si  Si128  1  0.619645  0.463161  0.450484  1
  Si  Si129  1  0.427481  0.325065  0.262249  1
  Si  Si130  1  0.423965  0.677128  0.306483  1
  Si  Si131  1  0.621785  0.458555  0.303973  1
  Si  Si132  1  0.573468  0.673539  0.324649  1
  Si  Si133  1  0.573917  0.313757  0.234578  1
  Si  Si134  1  0.380294  0.536740  0.234382  1
  Si  Si135  1  0.075974  0.177130  0.378382  1
  Si  Si136  1  0.185173  0.331636  0.359361  1
  Si  Si137  1  0.224272  0.549571  0.379907  1
  Si  Si138  1  0.304796  0.194245  0.379530  1
  Si  Si139  1  0.314796  0.831941  0.423542  1
  Si  Si140  1  0.272769  0.044972  0.450582  1
  Si  Si141  1  0.119646  0.036743  0.450483  1
  Si  Si142  1  0.072458  0.825069  0.422615  1
  Si  Si143  1  0.194763  0.700746  0.450565  1
  Si  Si144  1  0.227172  0.544973  0.234282  1
  Si  Si145  1  0.305176  0.200744  0.234299  1
  Si  Si146  1  0.314766  0.831635  0.325503  1
  Si  Si147  1  0.275665  0.049570  0.304957  1
  Si  Si148  1  0.121784  0.041339  0.303967  1
  Si  Si149  1  0.073468  0.826360  0.324648  1
  Si  Si150  1  0.195142  0.694245  0.305333  1
  Si  Si151  1  0.073916  0.186147  0.234577  1
  Si  Si152  1  0.185143  0.331943  0.261322  1
  H  H153  1  0.921692  0.835202  0.527293  1
  H  H154  1  0.781819  0.434208  0.527294  1
  H  H155  1  0.697469  0.822980  0.527294  1
  H  H156  1  0.718124  0.934209  0.157570  1
  H  H157  1  0.890612  0.943028  0.157571  1
  H  H158  1  0.802470  0.322975  0.157571  1
  H  H159  1  0.421692  0.664719  0.527296  1
  H  H160  1  0.609330  0.443028  0.527295  1
  H  H161  1  0.578251  0.335202  0.157572  1
  H  H162  1  0.390612  0.556892  0.157572  1
  H  H163  1  0.281819  0.065712  0.527291  1
  H  H164  1  0.109330  0.056892  0.527293  1
  H  H165  1  0.197473  0.676945  0.527296  1
  H  H166  1  0.078250  0.164719  0.157569  1
  H  H167  1  0.218123  0.565712  0.157572  1
  H  H168  1  0.302473  0.176940  0.157568  1
