# generated using pymatgen
data_Si8H2O17
_symmetry_space_group_name_H-M   'P 1'
_cell_length_a   7.06595653
_cell_length_b   7.06598947
_cell_length_c   38.96381417
_cell_angle_alpha   90.00000000
_cell_angle_beta   90.00000000
_cell_angle_gamma   90.00000000
_symmetry_Int_Tables_number   1
_chemical_formula_structural   Si8H2O17
_chemical_formula_sum   'Si16 H4 O34'
_cell_volume   1945.38431762
_cell_formula_units_Z   2
loop_
 _symmetry_equiv_pos_site_id
 _symmetry_equiv_pos_as_xyz
  1  'x, y, z'
loop_
 _atom_site_type_symbol
 _atom_site_label
 _atom_site_symmetry_multiplicity
 _atom_site_fract_x
 _atom_site_fract_y
 _atom_site_fract_z
 _atom_site_occupancy
  O  O1  1  0.018143  0.499834  0.151426  1
  O  O2  1  0.981787  0.000000  0.151423  1
  O  O3  1  -0.000000  0.249835  0.198881  1
  O  O4  1  0.500154  0.749752  0.419132  1
  O  O5  1  0.500184  0.249820  0.529259  1
  O  O6  1  -0.000000  0.749773  0.309007  1
  O  O7  1  -0.000000  0.749834  0.544471  1
  O  O8  1  0.499772  0.249751  0.324219  1
  O  O9  1  0.499742  0.749820  0.214093  1
  O  O10  1  -0.000000  0.249774  0.434345  1
  O  O11  1  0.821389  0.572274  0.204730  1
  O  O12  1  0.321793  0.072180  0.425026  1
  O  O13  1  0.178536  0.072274  0.538622  1
  O  O14  1  0.678133  0.572180  0.318325  1
  O  O15  1  0.678533  0.427313  0.424977  1
  O  O16  1  0.178129  0.927407  0.204769  1
  O  O17  1  0.321393  0.927313  0.318376  1
  O  O18  1  0.821796  0.427407  0.538583  1
  O  O19  1  0.177313  0.571460  0.208244  1
  O  O20  1  0.677739  0.071389  0.428465  1
  O  O21  1  0.822612  0.071460  0.535109  1
  O  O22  1  0.322186  0.571389  0.314888  1
  O  O23  1  0.322606  0.428130  0.428488  1
  O  O24  1  0.822179  0.928201  0.208206  1
  O  O25  1  0.677319  0.928130  0.314863  1
  O  O26  1  0.177746  0.428201  0.535146  1
  O  O27  1  0.018143  0.499834  0.591929  1
  O  O28  1  0.518143  -0.000000  0.371680  1
  O  O29  1  0.250094  0.231647  0.481819  1
  O  O30  1  0.749834  0.731646  0.261533  1
  O  O31  1  0.481787  0.499784  0.371672  1
  O  O32  1  0.981787  -0.000000  0.591926  1
  O  O33  1  0.249834  0.767999  0.261568  1
  O  O34  1  0.750094  0.267999  0.481785  1
  Si  Si35  1  0.003717  0.467735  0.190991  1
  Si  Si36  1  0.504033  0.967659  0.411248  1
  Si  Si37  1  0.282265  0.245918  0.521384  1
  Si  Si38  1  0.781858  0.745862  0.301102  1
  Si  Si39  1  0.496208  0.531856  0.411238  1
  Si  Si40  1  0.995892  0.031932  0.190991  1
  Si  Si41  1  0.217664  0.753686  0.301132  1
  Si  Si42  1  0.718071  0.253742  0.521354  1
  Si  Si43  1  0.004035  0.531933  0.552361  1
  Si  Si44  1  0.503719  0.031856  0.332114  1
  Si  Si45  1  0.717660  0.745918  0.221967  1
  Si  Si46  1  0.218068  0.245863  0.442250  1
  Si  Si47  1  0.495894  0.467659  0.332104  1
  Si  Si48  1  0.996211  0.967735  0.552361  1
  Si  Si49  1  0.782261  0.253687  0.442220  1
  Si  Si50  1  0.281853  0.753742  0.221998  1
  H  H51  1  0.018143  0.499834  0.128327  1
  H  H52  1  0.981787  0.000000  0.128324  1
  H  H53  1  0.018143  0.499834  0.615027  1
  H  H54  1  0.981787  0.000000  0.615024  1
