# generated using pymatgen
data_Si17H6O37
_symmetry_space_group_name_H-M   'P 1'
_cell_length_a   27.13270649
_cell_length_b   27.13690969
_cell_length_c   56.29646535
_cell_angle_alpha   90.00000000
_cell_angle_beta   45.02703986
_cell_angle_gamma   59.97390214
_symmetry_Int_Tables_number   1
_chemical_formula_structural   Si17H6O37
_chemical_formula_sum   'Si136 H48 O296'
_cell_volume   20728.6884309
_cell_formula_units_Z   8
loop_
 _symmetry_equiv_pos_site_id
 _symmetry_equiv_pos_as_xyz
  1  'x, y, z'
loop_
 _atom_site_type_symbol
 _atom_site_label
 _atom_site_symmetry_multiplicity
 _atom_site_fract_x
 _atom_site_fract_y
 _atom_site_fract_z
 _atom_site_occupancy
  O  O1  1  0.352792  0.145204  0.172640  1
  O  O2  1  0.512461  0.332627  0.171652  1
  O  O3  1  0.163343  0.497130  0.173716  1
  O  O4  1  0.352804  0.650192  0.171295  1
  O  O5  1  0.013426  0.333933  0.172337  1
  O  O6  1  0.163405  0.000000  0.173308  1
  O  O7  1  0.852937  0.144869  0.171908  1
  O  O8  1  0.658918  -0.000000  0.174483  1
  O  O9  1  0.662593  0.497239  0.174099  1
  O  O10  1  0.849814  0.653497  0.172821  1
  O  O11  1  0.517490  0.843074  0.171255  1
  O  O12  1  0.017872  0.836695  0.169756  1
  O  O13  1  0.647924  0.294469  0.312140  1
  O  O14  1  0.666129  0.042939  0.312174  1
  O  O15  1  0.909668  0.050903  0.307833  1
  O  O16  1  0.518938  0.041712  0.439966  1
  O  O17  1  0.008345  0.289331  0.277204  1
  O  O18  1  0.234705  0.305733  0.451648  1
  O  O19  1  0.647535  0.047658  0.453113  1
  O  O20  1  0.662945  0.293122  0.440991  1
  O  O21  1  0.893790  0.312631  0.283803  1
  O  O22  1  0.515401  0.293313  0.412804  1
  O  O23  1  0.001134  0.043716  0.241176  1
  O  O24  1  0.231159  0.053848  0.251963  1
  O  O25  1  0.850298  0.201063  0.384273  1
  O  O26  1  0.493673  0.209928  0.415657  1
  O  O27  1  0.266747  0.191457  0.241511  1
  O  O28  1  0.835887  0.210039  0.252155  1
  O  O29  1  0.612977  0.185303  0.406148  1
  O  O30  1  0.976691  0.211466  0.284769  1
  O  O31  1  0.515738  0.087903  0.341738  1
  O  O32  1  0.910632  0.090046  0.347818  1
  O  O33  1  0.433132  0.161753  0.455174  1
  O  O34  1  0.166297  0.247691  0.238207  1
  O  O35  1  0.333008  0.003058  0.180053  1
  O  O36  1  0.592518  0.249103  0.449327  1
  O  O37  1  0.490419  0.166800  0.179042  1
  O  O38  1  0.144570  0.103425  0.242252  1
  O  O39  1  0.599945  0.152171  0.450818  1
  O  O40  1  0.913181  0.249482  0.240997  1
  O  O41  1  0.352792  0.145204  0.513277  1
  O  O42  1  0.335679  0.251593  0.454798  1
  O  O43  1  0.057646  0.093724  0.241400  1
  O  O44  1  0.499771  0.126581  0.390003  1
  O  O45  1  0.756188  0.121867  0.386381  1
  O  O46  1  0.501577  0.123371  0.474281  1
  O  O47  1  0.001060  0.122890  0.217381  1
  O  O48  1  0.245799  0.125901  0.223008  1
  O  O49  1  0.993857  0.128040  0.306041  1
  O  O50  1  0.649541  0.173900  0.349909  1
  O  O51  1  0.755285  0.167927  0.284321  1
  O  O52  1  0.766815  0.069424  0.282727  1
  O  O53  1  0.834244  0.088506  0.293148  1
  O  O54  1  0.761716  0.321142  0.401500  1
  O  O55  1  0.512461  0.332627  0.512289  1
  O  O56  1  0.666369  0.537859  0.307454  1
  O  O57  1  0.892424  0.560198  0.313212  1
  O  O58  1  0.519390  0.539812  0.440150  1
  O  O59  1  0.652457  0.548115  0.450544  1
  O  O60  1  0.005485  0.541090  0.242856  1
  O  O61  1  0.234736  0.562871  0.253125  1
  O  O62  1  0.839083  0.451178  0.380136  1
  O  O63  1  0.599724  0.439243  0.383349  1
  O  O64  1  0.983019  0.457865  0.253225  1
  O  O65  1  0.854731  0.453530  0.239017  1
  O  O66  1  0.493834  0.459598  0.453919  1
  O  O67  1  0.263735  0.448200  0.442695  1
  O  O68  1  0.988849  0.409303  0.350045  1
  O  O69  1  0.587953  0.502158  0.352486  1
  O  O70  1  0.895514  0.599284  0.352167  1
  O  O71  1  0.442818  0.655728  0.450154  1
  O  O72  1  0.148257  0.354212  0.179742  1
  O  O73  1  0.900125  0.349179  0.241299  1
  O  O74  1  0.432196  0.412398  0.456041  1
  O  O75  1  0.163343  0.497130  0.514353  1
  O  O76  1  0.146454  0.603139  0.243949  1
  O  O77  1  0.593164  0.405818  0.344509  1
  O  O78  1  0.906670  0.500063  0.344923  1
  O  O79  1  0.585748  0.662393  0.459032  1
  O  O80  1  0.843796  0.335990  0.343649  1
  O  O81  1  0.352804  0.650192  0.511932  1
  O  O82  1  0.069361  0.337179  0.237387  1
  O  O83  1  0.350562  0.399417  0.452467  1
  O  O84  1  0.333592  0.503932  0.182070  1
  O  O85  1  0.065912  0.591191  0.238973  1
  O  O86  1  0.502338  0.374374  0.389847  1
  O  O87  1  0.507252  0.627507  0.385588  1
  O  O88  1  0.743849  0.625379  0.390905  1
  O  O89  1  0.508711  0.620521  0.470254  1
  O  O90  1  0.002426  0.373083  0.302451  1
  O  O91  1  0.253971  0.373577  0.469902  1
  O  O92  1  0.497345  0.378025  0.476283  1
  O  O93  1  0.748219  0.374599  0.305320  1
  O  O94  1  0.001103  0.620596  0.218242  1
  O  O95  1  0.248490  0.628778  0.220063  1
  O  O96  1  0.995645  0.624919  0.305261  1
  O  O97  1  0.997701  0.377402  0.219808  1
  O  O98  1  0.734076  0.427278  0.412837  1
  O  O99  1  0.659154  0.414643  0.404974  1
  O  O100  1  0.751144  0.573315  0.290304  1
  O  O101  1  0.846923  0.580792  0.285493  1
  O  O102  1  0.007890  0.586654  0.343716  1
  O  O103  1  0.013426  0.333933  0.512974  1
  O  O104  1  0.488090  0.408523  0.351077  1
  O  O105  1  0.507060  0.585951  0.344936  1
  O  O106  1  0.485988  0.657838  0.180797  1
  O  O107  1  0.662139  0.664832  0.352780  1
  O  O108  1  0.648441  0.794488  0.310338  1
  O  O109  1  0.005162  0.789831  0.278653  1
  O  O110  1  0.231860  0.807558  0.453706  1
  O  O111  1  0.665032  0.799986  0.438980  1
  O  O112  1  0.913302  0.798239  0.274177  1
  O  O113  1  0.519159  0.792565  0.409166  1
  O  O114  1  0.851378  0.704813  0.383414  1
  O  O115  1  0.837304  0.958131  0.386740  1
  O  O116  1  0.606555  0.939197  0.381148  1
  O  O117  1  0.980533  0.960658  0.250367  1
  O  O118  1  0.494449  0.711244  0.415181  1
  O  O119  1  0.262906  0.699147  0.240890  1
  O  O120  1  0.852738  0.950296  0.239752  1
  O  O121  1  0.835688  0.700826  0.253347  1
  O  O122  1  0.588136  0.702734  0.418568  1
  O  O123  1  0.980143  0.708598  0.284394  1
  O  O124  1  0.491053  0.961530  0.452457  1
  O  O125  1  0.259937  0.940381  0.443168  1
  O  O126  1  0.163405  0.000000  0.513945  1
  O  O127  1  0.163288  0.751666  0.237340  1
  O  O128  1  0.149428  0.845827  0.181230  1
  O  O129  1  0.593189  0.753005  0.453452  1
  O  O130  1  0.911603  0.838808  0.234489  1
  O  O131  1  0.433769  0.910381  0.454058  1
  O  O132  1  0.605417  0.899206  0.341517  1
  O  O133  1  0.906723  0.747357  0.240459  1
  O  O134  1  0.338235  0.749094  0.453862  1
  O  O135  1  0.047010  0.851973  0.247405  1
  O  O136  1  0.351015  0.897834  0.450943  1
  O  O137  1  0.500575  0.876452  0.388670  1
  O  O138  1  0.996308  0.869630  0.308364  1
  O  O139  1  0.244663  0.875609  0.476794  1
  O  O140  1  0.497864  0.879495  0.475050  1
  O  O141  1  0.755463  0.874971  0.303346  1
  O  O142  1  0.995491  0.875000  0.220896  1
  O  O143  1  0.590865  -0.000000  0.350004  1
  O  O144  1  0.748118  0.927808  0.403062  1
  O  O145  1  0.652568  0.918415  0.408610  1
  O  O146  1  0.734732  0.674059  0.292701  1
  O  O147  1  0.837072  0.836435  0.340506  1
  O  O148  1  0.769074  0.824599  0.399531  1
  O  O149  1  0.913920  0.994768  0.342413  1
  O  O150  1  0.147426  0.292830  0.311192  1
  O  O151  1  0.162229  0.046324  0.313095  1
  O  O152  1  0.401170  0.060228  0.310763  1
  O  O153  1  0.019744  0.041673  0.439062  1
  O  O154  1  0.505490  0.291102  0.278301  1
  O  O155  1  0.733769  0.305098  0.452435  1
  O  O156  1  0.146989  0.046134  0.453680  1
  O  O157  1  0.166307  0.288626  0.440358  1
  O  O158  1  0.392592  0.312592  0.284449  1
  O  O159  1  0.019349  0.290527  0.410224  1
  O  O160  1  0.495412  0.048587  0.243157  1
  O  O161  1  0.731053  0.057089  0.253651  1
  O  O162  1  0.354097  0.203438  0.382394  1
  O  O163  1  0.995633  0.208699  0.414275  1
  O  O164  1  0.762313  0.200825  0.241397  1
  O  O165  1  0.335295  0.212483  0.251147  1
  O  O166  1  0.108512  0.187291  0.408419  1
  O  O167  1  0.478424  0.210833  0.284525  1
  O  O168  1  0.989097  0.165544  0.179817  1
  O  O169  1  0.407543  0.093548  0.349583  1
  O  O170  1  0.934295  0.162214  0.454867  1
  O  O171  1  0.665783  0.248297  0.236287  1
  O  O172  1  0.086643  0.250574  0.452537  1
  O  O173  1  0.646758  0.103159  0.242302  1
  O  O174  1  0.014512  0.086988  0.342037  1
  O  O175  1  0.099378  0.150936  0.451621  1
  O  O176  1  0.412647  0.250832  0.240925  1
  O  O177  1  0.852937  0.144869  0.512545  1
  O  O178  1  0.835124  0.252522  0.455326  1
  O  O179  1  0.560094  0.093949  0.240261  1
  O  O180  1  0.997226  0.126778  0.390678  1
  O  O181  1  0.251648  0.125718  0.388649  1
  O  O182  1  0.001694  0.122003  0.474468  1
  O  O183  1  0.499196  0.125059  0.217726  1
  O  O184  1  0.743781  0.129225  0.224864  1
  O  O185  1  0.497502  0.125868  0.304572  1
  O  O186  1  0.155923  0.167960  0.349145  1
  O  O187  1  0.259800  0.169069  0.286704  1
  O  O188  1  0.260948  0.075539  0.281719  1
  O  O189  1  0.341912  0.074424  0.289729  1
  O  O190  1  0.252057  0.325847  0.403712  1
  O  O191  1  0.834289  0.005409  0.181585  1
  O  O192  1  0.658918  -0.000000  0.515120  1
  O  O193  1  0.166949  0.536693  0.307403  1
  O  O194  1  0.399159  0.556356  0.311825  1
  O  O195  1  0.012022  0.542452  0.441648  1
  O  O196  1  0.152904  0.549324  0.450528  1
  O  O197  1  0.501233  0.542447  0.242757  1
  O  O198  1  0.737167  0.560409  0.251552  1
  O  O199  1  0.339372  0.450800  0.379968  1
  O  O200  1  0.096314  0.440821  0.383644  1
  O  O201  1  0.477796  0.460497  0.253700  1
  O  O202  1  0.355116  0.453022  0.238298  1
  O  O203  1  0.996262  0.457294  0.453031  1
  O  O204  1  0.764220  0.448451  0.442813  1
  O  O205  1  0.984317  0.659077  0.180821  1
  O  O206  1  0.086312  0.500949  0.351443  1
  O  O207  1  0.395160  0.599581  0.352881  1
  O  O208  1  0.941856  0.657182  0.450781  1
  O  O209  1  0.647563  0.355322  0.180589  1
  O  O210  1  0.400421  0.349789  0.241626  1
  O  O211  1  0.938591  0.407678  0.453572  1
  O  O212  1  0.662593  0.497239  0.514736  1
  O  O213  1  0.648082  0.600936  0.242727  1
  O  O214  1  0.096590  0.402185  0.342899  1
  O  O215  1  0.408803  0.498941  0.345165  1
  O  O216  1  0.083806  0.663105  0.458125  1
  O  O217  1  0.849814  0.653497  0.513458  1
  O  O218  1  0.561953  0.341131  0.239280  1
  O  O219  1  0.850955  0.398488  0.452677  1
  O  O220  1  0.835811  0.500202  0.180477  1
  O  O221  1  0.564078  0.588633  0.240387  1
  O  O222  1  0.001315  0.373842  0.389128  1
  O  O223  1  0.008229  0.624674  0.385337  1
  O  O224  1  0.246279  0.623210  0.390184  1
  O  O225  1  0.010683  0.617201  0.469601  1
  O  O226  1  0.504003  0.372394  0.302320  1
  O  O227  1  0.753009  0.374176  0.470031  1
  O  O228  1  -0.000000  0.376580  0.475667  1
  O  O229  1  0.247803  0.375469  0.305445  1
  O  O230  1  0.500978  0.622534  0.219051  1
  O  O231  1  0.753044  0.624288  0.217330  1
  O  O232  1  0.497974  0.623560  0.305526  1
  O  O233  1  0.500496  0.377151  0.217267  1
  O  O234  1  0.231956  0.428916  0.413230  1
  O  O235  1  0.158576  0.418516  0.403736  1
  O  O236  1  0.252152  0.571747  0.290919  1
  O  O237  1  0.336445  0.586800  0.291583  1
  O  O238  1  0.251245  0.664544  0.284526  1
  O  O239  1  0.343227  0.335303  0.344206  1
  O  O240  1  0.148337  0.791644  0.312426  1
  O  O241  1  0.502802  0.788912  0.280943  1
  O  O242  1  0.734303  0.809120  0.452177  1
  O  O243  1  0.166529  0.795846  0.438701  1
  O  O244  1  0.412206  0.799185  0.275437  1
  O  O245  1  0.006170  0.798140  0.415822  1
  O  O246  1  0.352391  0.704700  0.383601  1
  O  O247  1  0.335664  0.960276  0.386168  1
  O  O248  1  0.112001  0.937131  0.379464  1
  O  O249  1  0.496365  0.954727  0.250184  1
  O  O250  1  0.994977  0.710090  0.413986  1
  O  O251  1  0.764330  0.691760  0.241559  1
  O  O252  1  0.348208  0.953242  0.241784  1
  O  O253  1  0.335625  0.704297  0.253599  1
  O  O254  1  0.100328  0.692827  0.411879  1
  O  O255  1  0.480246  0.706602  0.284245  1
  O  O256  1  0.990537  0.962449  0.451738  1
  O  O257  1  0.753806  0.941725  0.444908  1
  O  O258  1  0.660953  0.750567  0.239984  1
  O  O259  1  0.652685  0.842832  0.179515  1
  O  O260  1  0.091839  0.753080  0.450218  1
  O  O261  1  0.416689  0.839642  0.234323  1
  O  O262  1  0.925532  0.915134  0.458000  1
  O  O263  1  0.109331  0.896514  0.340738  1
  O  O264  1  0.517490  0.843074  0.511892  1
  O  O265  1  0.411395  0.747977  0.238808  1
  O  O266  1  0.017872  0.836695  0.510393  1
  O  O267  1  0.839986  0.747076  0.452428  1
  O  O268  1  0.555089  0.841957  0.243604  1
  O  O269  1  0.846124  0.904380  0.451817  1
  O  O270  1  0.495156  0.912848  0.348148  1
  O  O271  1  0.003586  0.875415  0.389971  1
  O  O272  1  0.493330  0.872897  0.307807  1
  O  O273  1  0.747650  0.874239  0.476680  1
  O  O274  1  -0.000000  0.880854  0.474591  1
  O  O275  1  0.258491  0.875003  0.301775  1
  O  O276  1  0.487874  0.886403  0.224330  1
  O  O277  1  0.150522  0.678086  0.352131  1
  O  O278  1  0.250358  0.925642  0.402881  1
  O  O279  1  0.150465  0.919796  0.410073  1
  O  O280  1  0.996326  0.910301  0.349447  1
  O  O281  1  0.335413  0.833744  0.341877  1
  O  O282  1  0.263950  0.826005  0.402271  1
  O  O283  1  0.092381  0.998955  0.349416  1
  O  O284  1  0.411022  0.998144  0.342195  1
  O  O285  1  0.333008  0.003058  0.520690  1
  O  O286  1  0.490419  0.166800  0.519679  1
  O  O287  1  0.148257  0.354212  0.520379  1
  O  O288  1  0.333592  0.503932  0.522707  1
  O  O289  1  0.485988  0.657838  0.521434  1
  O  O290  1  0.149428  0.845827  0.521867  1
  O  O291  1  0.989097  0.165544  0.520454  1
  O  O292  1  0.834289  0.005409  0.522222  1
  O  O293  1  0.984317  0.659077  0.521458  1
  O  O294  1  0.647563  0.355322  0.521227  1
  O  O295  1  0.835811  0.500202  0.521114  1
  O  O296  1  0.652685  0.842832  0.520152  1
  Si  Si297  1  0.751156  0.125088  0.302653  1
  Si  Si298  1  0.751706  0.279028  0.420315  1
  Si  Si299  1  0.566471  0.065024  0.349260  1
  Si  Si300  1  0.871168  0.064936  0.346844  1
  Si  Si301  1  0.451377  0.118934  0.470929  1
  Si  Si302  1  0.061988  0.312199  0.263822  1
  Si  Si303  1  0.243459  0.321637  0.474419  1
  Si  Si304  1  0.558607  0.123369  0.474585  1
  Si  Si305  1  0.565381  0.313277  0.469823  1
  Si  Si306  1  0.862612  0.322150  0.267999  1
  Si  Si307  1  0.056621  0.065259  0.217944  1
  Si  Si308  1  0.238872  0.072078  0.223857  1
  Si  Si309  1  0.944075  0.125782  0.344277  1
  Si  Si310  1  0.440410  0.186888  0.428802  1
  Si  Si311  1  0.258020  0.176925  0.218495  1
  Si  Si312  1  0.935953  0.186590  0.222366  1
  Si  Si313  1  0.641724  0.176561  0.423019  1
  Si  Si314  1  0.042942  0.133534  0.268879  1
  Si  Si315  1  0.565642  0.216643  0.397312  1
  Si  Si316  1  0.750200  0.219848  0.272260  1
  Si  Si317  1  0.933130  0.285937  0.296141  1
  Si  Si318  1  0.754141  0.028649  0.271662  1
  Si  Si319  1  0.933913  0.034554  0.272678  1
  Si  Si320  1  0.749464  0.374885  0.390815  1
  Si  Si321  1  0.748588  0.623396  0.305378  1
  Si  Si322  1  0.556301  0.371739  0.350006  1
  Si  Si323  1  0.566015  0.563936  0.348324  1
  Si  Si324  1  0.858499  0.571633  0.351010  1
  Si  Si325  1  0.455445  0.617377  0.468507  1
  Si  Si326  1  0.556504  0.623121  0.475689  1
  Si  Si327  1  0.450114  0.370639  0.427671  1
  Si  Si328  1  0.058687  0.563432  0.218351  1
  Si  Si329  1  0.240506  0.575551  0.224590  1
  Si  Si330  1  0.938804  0.628120  0.345435  1
  Si  Si331  1  0.935571  0.433073  0.343744  1
  Si  Si332  1  0.633384  0.429932  0.345684  1
  Si  Si333  1  0.049640  0.381019  0.222299  1
  Si  Si334  1  0.943046  0.377624  0.217845  1
  Si  Si335  1  0.047853  0.630708  0.268156  1
  Si  Si336  1  0.438492  0.438169  0.477718  1
  Si  Si337  1  0.257602  0.429098  0.470236  1
  Si  Si338  1  0.747795  0.469791  0.421785  1
  Si  Si339  1  0.565685  0.464679  0.421029  1
  Si  Si340  1  0.752311  0.530179  0.271519  1
  Si  Si341  1  0.934490  0.533642  0.273335  1
  Si  Si342  1  0.751947  0.876626  0.387867  1
  Si  Si343  1  0.754854  0.783498  0.418971  1
  Si  Si344  1  0.936698  0.781884  0.293137  1
  Si  Si345  1  0.561284  0.871521  0.347889  1
  Si  Si346  1  0.053388  0.816418  0.267931  1
  Si  Si347  1  0.240955  0.820040  0.476944  1
  Si  Si348  1  0.566844  0.819625  0.470086  1
  Si  Si349  1  0.870327  0.815295  0.263282  1
  Si  Si350  1  0.450319  0.870526  0.425712  1
  Si  Si351  1  0.937321  0.932484  0.346061  1
  Si  Si352  1  0.640874  0.927815  0.343246  1
  Si  Si353  1  0.043738  0.882114  0.224605  1
  Si  Si354  1  0.445285  0.685428  0.426118  1
  Si  Si355  1  0.257272  0.681724  0.216970  1
  Si  Si356  1  0.946157  0.874501  0.215773  1
  Si  Si357  1  0.933608  0.681133  0.222867  1
  Si  Si358  1  0.629029  0.685591  0.430376  1
  Si  Si359  1  0.438954  0.937841  0.475784  1
  Si  Si360  1  0.255000  0.927568  0.471434  1
  Si  Si361  1  0.563418  0.719065  0.400137  1
  Si  Si362  1  0.746615  0.970093  0.422513  1
  Si  Si363  1  0.564652  0.966592  0.420958  1
  Si  Si364  1  0.745959  0.716378  0.274039  1
  Si  Si365  1  0.254670  0.121837  0.301811  1
  Si  Si366  1  0.436271  0.033375  0.272879  1
  Si  Si367  1  0.251689  0.279720  0.419913  1
  Si  Si368  1  0.250223  0.031129  0.271988  1
  Si  Si369  1  0.065089  0.065119  0.349599  1
  Si  Si370  1  0.366549  0.070046  0.348680  1
  Si  Si371  1  0.951957  0.118658  0.470462  1
  Si  Si372  1  0.559243  0.314096  0.264194  1
  Si  Si373  1  0.742595  0.322216  0.474978  1
  Si  Si374  1  0.058059  0.122004  0.475212  1
  Si  Si375  1  0.065566  0.312823  0.470610  1
  Si  Si376  1  0.362110  0.323048  0.268318  1
  Si  Si377  1  0.553775  0.067723  0.218726  1
  Si  Si378  1  0.738613  0.074414  0.225394  1
  Si  Si379  1  0.445558  0.126749  0.343833  1
  Si  Si380  1  0.940328  0.187029  0.428652  1
  Si  Si381  1  0.756416  0.179907  0.218285  1
  Si  Si382  1  0.435637  0.188184  0.221915  1
  Si  Si383  1  0.137483  0.178057  0.425177  1
  Si  Si384  1  0.546151  0.132550  0.267844  1
  Si  Si385  1  0.067762  0.214688  0.396677  1
  Si  Si386  1  0.251887  0.217822  0.272379  1
  Si  Si387  1  0.432107  0.286002  0.296718  1
  Si  Si388  1  0.431267  0.535195  0.274524  1
  Si  Si389  1  0.246142  0.377352  0.391429  1
  Si  Si390  1  0.247699  0.625054  0.304783  1
  Si  Si391  1  0.057006  0.370303  0.348932  1
  Si  Si392  1  0.065836  0.562993  0.347701  1
  Si  Si393  1  0.360961  0.570048  0.350737  1
  Si  Si394  1  0.953043  0.618458  0.469313  1
  Si  Si395  1  0.056058  0.623457  0.475437  1
  Si  Si396  1  0.952413  0.368436  0.426310  1
  Si  Si397  1  0.557375  0.563275  0.218805  1
  Si  Si398  1  0.743142  0.572137  0.222845  1
  Si  Si399  1  0.439273  0.627685  0.346021  1
  Si  Si400  1  0.436630  0.432052  0.343924  1
  Si  Si401  1  0.133070  0.429138  0.345123  1
  Si  Si402  1  0.547022  0.382884  0.222533  1
  Si  Si403  1  0.443770  0.376882  0.216849  1
  Si  Si404  1  0.548219  0.628910  0.268285  1
  Si  Si405  1  0.942139  0.434827  0.476179  1
  Si  Si406  1  0.757465  0.429225  0.470494  1
  Si  Si407  1  0.247129  0.470436  0.421840  1
  Si  Si408  1  0.063327  0.466051  0.421011  1
  Si  Si409  1  0.252276  0.529958  0.271906  1
  Si  Si410  1  0.063144  0.869420  0.348910  1
  Si  Si411  1  0.553455  0.814278  0.268120  1
  Si  Si412  1  0.743195  0.819128  0.475833  1
  Si  Si413  1  0.067751  0.817013  0.468592  1
  Si  Si414  1  0.373486  0.816017  0.262660  1
  Si  Si415  1  0.944745  0.874232  0.428720  1
  Si  Si416  1  0.434948  0.935386  0.345383  1
  Si  Si417  1  0.144175  0.926408  0.342091  1
  Si  Si418  1  0.548284  0.880587  0.224205  1
  Si  Si419  1  0.946177  0.683787  0.425472  1
  Si  Si420  1  0.757308  0.679500  0.217455  1
  Si  Si421  1  0.444471  0.879427  0.217467  1
  Si  Si422  1  0.435064  0.682508  0.222877  1
  Si  Si423  1  0.131509  0.682787  0.427732  1
  Si  Si424  1  0.937408  0.940408  0.476996  1
  Si  Si425  1  0.752021  0.929264  0.472364  1
  Si  Si426  1  0.060798  0.720814  0.399718  1
  Si  Si427  1  0.248238  0.969226  0.422020  1
  Si  Si428  1  0.065902  0.966305  0.420324  1
  Si  Si429  1  0.249306  0.716400  0.272504  1
  Si  Si430  1  0.435177  0.780781  0.294442  1
  Si  Si431  1  0.253271  0.782509  0.420124  1
  Si  Si432  1  0.250210  0.876175  0.389260  1
  H  H433  1  0.352792  0.145204  0.156654  1
  H  H434  1  0.512461  0.332627  0.155665  1
  H  H435  1  0.163343  0.497130  0.157729  1
  H  H436  1  0.352804  0.650192  0.155308  1
  H  H437  1  0.013426  0.333933  0.156350  1
  H  H438  1  0.163405  -0.000000  0.157321  1
  H  H439  1  0.852937  0.144869  0.155922  1
  H  H440  1  0.658918  -0.000000  0.158496  1
  H  H441  1  0.662593  0.497239  0.158113  1
  H  H442  1  0.849814  0.653497  0.156834  1
  H  H443  1  0.517490  0.843074  0.155268  1
  H  H444  1  0.017872  0.836695  0.153769  1
  H  H445  1  0.333008  0.003058  0.164066  1
  H  H446  1  0.490419  0.166800  0.163056  1
  H  H447  1  0.352792  0.145204  0.529264  1
  H  H448  1  0.512461  0.332627  0.528276  1
  H  H449  1  0.148257  0.354212  0.163755  1
  H  H450  1  0.163343  0.497130  0.530340  1
  H  H451  1  0.352804  0.650192  0.527918  1
  H  H452  1  0.333592  0.503932  0.166083  1
  H  H453  1  0.013426  0.333933  0.528960  1
  H  H454  1  0.485988  0.657838  0.164810  1
  H  H455  1  0.163405  0.000000  0.529932  1
  H  H456  1  0.149428  0.845827  0.165243  1
  H  H457  1  0.989097  0.165544  0.163830  1
  H  H458  1  0.852937  0.144869  0.528532  1
  H  H459  1  0.834289  0.005409  0.165598  1
  H  H460  1  0.658918  0.000000  0.531107  1
  H  H461  1  0.984317  0.659077  0.164834  1
  H  H462  1  0.647563  0.355322  0.164603  1
  H  H463  1  0.662593  0.497239  0.530723  1
  H  H464  1  0.849814  0.653497  0.529444  1
  H  H465  1  0.835811  0.500202  0.164490  1
  H  H466  1  0.652685  0.842832  0.163528  1
  H  H467  1  0.517490  0.843074  0.527879  1
  H  H468  1  0.017872  0.836695  0.526379  1
  H  H469  1  0.333008  0.003058  0.536677  1
  H  H470  1  0.490419  0.166800  0.535666  1
  H  H471  1  0.148257  0.354212  0.536366  1
  H  H472  1  0.333592  0.503932  0.538694  1
  H  H473  1  0.485988  0.657838  0.537420  1
  H  H474  1  0.149428  0.845827  0.537853  1
  H  H475  1  0.989097  0.165544  0.536441  1
  H  H476  1  0.834289  0.005409  0.538209  1
  H  H477  1  0.984317  0.659077  0.537445  1
  H  H478  1  0.647563  0.355322  0.537213  1
  H  H479  1  0.835811  0.500202  0.537101  1
  H  H480  1  0.652685  0.842832  0.536139  1
