# generated using pymatgen
data_Si9H2O19
_symmetry_space_group_name_H-M   'P 1'
_cell_length_a   30.61891400
_cell_length_b   21.27945387
_cell_length_c   85.99918775
_cell_angle_alpha   149.99973029
_cell_angle_beta   90.00000000
_cell_angle_gamma   90.00000000
_symmetry_Int_Tables_number   1
_chemical_formula_structural   Si9H2O19
_chemical_formula_sum   'Si216 H48 O456'
_cell_volume   28016.7758401
_cell_formula_units_Z   24
loop_
 _symmetry_equiv_pos_site_id
 _symmetry_equiv_pos_as_xyz
  1  'x, y, z'
loop_
 _atom_site_type_symbol
 _atom_site_label
 _atom_site_symmetry_multiplicity
 _atom_site_fract_x
 _atom_site_fract_y
 _atom_site_fract_z
 _atom_site_occupancy
  Si  Si1  1  0.999687  0.749939  0.392992  1
  Si  Si2  1  0.916722  0.416395  0.356986  1
  Si  Si3  1  0.916608  0.668251  0.321990  1
  Si  Si4  1  0.916451  0.919549  0.321956  1
  Si  Si5  1  0.916695  0.919762  0.357962  1
  Si  Si6  1  0.916553  0.416519  0.392922  1
  Si  Si7  1  0.916416  0.668254  0.393007  1
  Si  Si8  1  0.833267  0.335846  0.393177  1
  Si  Si9  1  0.833339  0.082550  0.392727  1
  Si  Si10  1  0.833138  0.585796  0.357923  1
  Si  Si11  1  0.833322  0.585866  0.321755  1
  Si  Si12  1  0.833360  0.335795  0.322223  1
  Si  Si13  1  0.833162  0.082638  0.357025  1
  Si  Si14  1  0.999743  0.252665  0.357853  1
  Si  Si15  1  0.999747  0.750185  0.357132  1
  Si  Si16  1  0.999725  0.001360  0.321977  1
  Si  Si17  1  0.999942  0.001532  0.393015  1
  Si  Si18  1  0.999995  0.252907  0.321987  1
  Si  Si19  1  0.583254  0.416595  0.357201  1
  Si  Si20  1  0.583053  0.668046  0.322118  1
  Si  Si21  1  0.582895  0.919587  0.322051  1
  Si  Si22  1  0.583184  0.919225  0.357939  1
  Si  Si23  1  0.583026  0.416304  0.393051  1
  Si  Si24  1  0.582876  0.668149  0.393078  1
  Si  Si25  1  0.666407  0.335654  0.393223  1
  Si  Si26  1  0.666413  0.082420  0.392764  1
  Si  Si27  1  0.666193  0.586157  0.358107  1
  Si  Si28  1  0.666439  0.585889  0.321860  1
  Si  Si29  1  0.666414  0.335794  0.322301  1
  Si  Si30  1  0.666262  0.082167  0.356962  1
  Si  Si31  1  0.749870  0.920467  0.358040  1
  Si  Si32  1  0.749733  0.416794  0.393191  1
  Si  Si33  1  0.749748  0.666926  0.392715  1
  Si  Si34  1  0.500074  0.252729  0.322075  1
  Si  Si35  1  0.500043  0.001338  0.393102  1
  Si  Si36  1  0.749740  0.920348  0.322269  1
  Si  Si37  1  0.749929  0.416677  0.356955  1
  Si  Si38  1  0.749780  0.666973  0.321819  1
  Si  Si39  1  0.499827  0.750013  0.357217  1
  Si  Si40  1  0.416403  0.585970  0.357890  1
  Si  Si41  1  0.416457  0.335036  0.393077  1
  Si  Si42  1  0.416793  0.083420  0.393181  1
  Si  Si43  1  0.416421  0.084173  0.357384  1
  Si  Si44  1  0.416504  0.586729  0.322143  1
  Si  Si45  1  0.416829  0.334753  0.322137  1
  Si  Si46  1  0.333175  0.667534  0.321953  1
  Si  Si47  1  0.333333  0.920098  0.322395  1
  Si  Si48  1  0.333286  0.416196  0.356897  1
  Si  Si49  1  0.333139  0.417522  0.393360  1
  Si  Si50  1  0.333293  0.666879  0.392876  1
  Si  Si51  1  0.333276  0.921429  0.358407  1
  Si  Si52  1  0.499553  0.750003  0.393137  1
  Si  Si53  1  0.499552  0.001384  0.322108  1
  Si  Si54  1  0.499768  0.252740  0.357988  1
  Si  Si55  1  0.249884  0.335805  0.393304  1
  Si  Si56  1  0.249732  0.336291  0.322405  1
  Si  Si57  1  0.082855  0.585999  0.357895  1
  Si  Si58  1  0.082891  0.334676  0.392999  1
  Si  Si59  1  0.083347  0.083052  0.393032  1
  Si  Si60  1  0.082844  0.083430  0.357150  1
  Si  Si61  1  0.082946  0.586411  0.322070  1
  Si  Si62  1  0.083402  0.334420  0.322003  1
  Si  Si63  1  0.166420  0.666776  0.321876  1
  Si  Si64  1  0.166184  0.920819  0.322326  1
  Si  Si65  1  0.166485  0.417992  0.357367  1
  Si  Si66  1  0.166400  0.416494  0.393240  1
  Si  Si67  1  0.166104  0.667510  0.392826  1
  Si  Si68  1  0.166501  0.919417  0.357765  1
  Si  Si69  1  0.249674  0.082771  0.392832  1
  Si  Si70  1  0.249837  0.081864  0.356886  1
  Si  Si71  1  0.249808  0.587019  0.358354  1
  Si  Si72  1  0.249883  0.586048  0.321939  1
  O  O73  1  0.993791  0.120003  0.286074  1
  O  O74  1  0.993635  0.765000  0.378263  1
  O  O75  1  0.993682  0.119538  0.336713  1
  O  O76  1  0.875663  0.352698  0.335871  1
  O  O77  1  0.875445  0.647904  0.328134  1
  O  O78  1  0.875221  0.002959  0.336758  1
  O  O79  1  0.875601  0.003744  0.379045  1
  O  O80  1  0.875348  0.353285  0.386789  1
  O  O81  1  0.875180  0.648057  0.378209  1
  O  O82  1  0.922074  0.549978  0.378269  1
  O  O83  1  0.922117  0.550058  0.286026  1
  O  O84  1  0.922087  0.904409  0.336689  1
  O  O85  1  0.909833  0.430082  0.377869  1
  O  O86  1  0.909852  0.787217  0.337059  1
  O  O87  1  0.909698  0.786916  0.286054  1
  O  O88  1  0.832867  0.445731  0.286038  1
  O  O89  1  0.832804  0.112811  0.381351  1
  O  O90  1  0.832789  0.445695  0.333603  1
  O  O91  1  0.832247  0.207055  0.374163  1
  O  O92  1  0.831999  0.207125  0.286047  1
  O  O93  1  0.832242  0.590142  0.340762  1
  O  O94  1  0.791379  0.353654  0.386778  1
  O  O95  1  0.791627  0.001445  0.378576  1
  O  O96  1  0.791203  0.648365  0.378321  1
  O  O97  1  0.791484  0.648674  0.328191  1
  O  O98  1  0.791688  0.353836  0.336413  1
  O  O99  1  0.791234  0.002375  0.336628  1
  O  O100  1  0.751126  0.794743  0.340369  1
  O  O101  1  0.751420  0.794448  0.286064  1
  O  O102  1  0.751146  0.414749  0.374649  1
  O  O103  1  0.958572  0.335511  0.336685  1
  O  O104  1  0.958287  0.688081  0.336474  1
  O  O105  1  0.958098  0.981214  0.327906  1
  O  O106  1  0.958505  0.981178  0.378310  1
  O  O107  1  0.958206  0.334886  0.378433  1
  O  O108  1  0.958050  0.688303  0.387060  1
  O  O109  1  0.506577  0.120402  0.286158  1
  O  O110  1  0.506217  0.763067  0.377981  1
  O  O111  1  0.506192  0.120528  0.337259  1
  O  O112  1  0.623870  0.352094  0.335704  1
  O  O113  1  0.623682  0.646551  0.328251  1
  O  O114  1  0.623393  0.005994  0.337459  1
  O  O115  1  0.623809  0.005172  0.379419  1
  O  O116  1  0.623586  0.351611  0.386874  1
  O  O117  1  0.623342  0.646596  0.377633  1
  O  O118  1  0.578102  0.550909  0.378805  1
  O  O119  1  0.577981  0.550604  0.286157  1
  O  O120  1  0.578077  0.902251  0.336322  1
  O  O121  1  0.590455  0.428505  0.377716  1
  O  O122  1  0.590406  0.787579  0.337443  1
  O  O123  1  0.590261  0.788074  0.286135  1
  O  O124  1  0.667296  0.445889  0.286113  1
  O  O125  1  0.667171  0.111945  0.381214  1
  O  O126  1  0.667108  0.446172  0.333852  1
  O  O127  1  0.668696  0.207147  0.374338  1
  O  O128  1  0.668425  0.207418  0.286104  1
  O  O129  1  0.668635  0.589562  0.340743  1
  O  O130  1  0.707312  0.354794  0.386622  1
  O  O131  1  0.707540  0.998822  0.378137  1
  O  O132  1  0.707104  0.651460  0.379506  1
  O  O133  1  0.707416  0.650997  0.328429  1
  O  O134  1  0.707596  0.354433  0.336871  1
  O  O135  1  0.707139  0.997555  0.335525  1
  O  O136  1  0.749815  0.556847  0.381288  1
  O  O137  1  0.749679  0.557006  0.286077  1
  O  O138  1  0.541203  0.336606  0.337110  1
  O  O139  1  0.540948  0.687276  0.336269  1
  O  O140  1  0.540616  0.979913  0.328000  1
  O  O141  1  0.541129  0.979936  0.378036  1
  O  O142  1  0.540872  0.336701  0.378939  1
  O  O143  1  0.540569  0.687023  0.387189  1
  O  O144  1  0.749755  0.890258  0.333696  1
  O  O145  1  0.493483  0.883156  0.286194  1
  O  O146  1  0.493785  0.237866  0.336839  1
  O  O147  1  0.493813  0.883104  0.378333  1
  O  O148  1  0.375033  0.648377  0.378657  1
  O  O149  1  0.375375  0.355496  0.386911  1
  O  O150  1  0.375856  0.998861  0.378148  1
  O  O151  1  0.375086  0.001051  0.336589  1
  O  O152  1  0.375412  0.650483  0.328360  1
  O  O153  1  0.375936  0.355545  0.337217  1
  O  O154  1  0.422165  0.452559  0.336664  1
  O  O155  1  0.422005  0.453385  0.286179  1
  O  O156  1  0.422139  0.099554  0.378657  1
  O  O157  1  0.409712  0.572383  0.337017  1
  O  O158  1  0.409659  0.216581  0.378208  1
  O  O159  1  0.409775  0.215571  0.286233  1
  O  O160  1  0.332784  0.557783  0.286232  1
  O  O161  1  0.332600  0.890712  0.333975  1
  O  O162  1  0.332556  0.556436  0.381295  1
  O  O163  1  0.331576  0.796726  0.341145  1
  O  O164  1  0.333745  0.795599  0.286207  1
  O  O165  1  0.331483  0.412636  0.374225  1
  O  O166  1  0.291487  0.648961  0.328260  1
  O  O167  1  0.291133  0.998808  0.335896  1
  O  O168  1  0.292135  0.351524  0.335708  1
  O  O169  1  0.291467  0.354701  0.387030  1
  O  O170  1  0.291071  0.651143  0.379393  1
  O  O171  1  0.292058  0.004842  0.379521  1
  O  O172  1  0.251630  0.207864  0.374678  1
  O  O173  1  0.457938  0.668041  0.378506  1
  O  O174  1  0.458217  0.314893  0.378582  1
  O  O175  1  0.458611  0.022077  0.387218  1
  O  O176  1  0.457975  0.021914  0.336775  1
  O  O177  1  0.458286  0.667964  0.336622  1
  O  O178  1  0.458685  0.314928  0.328025  1
  O  O179  1  0.251576  0.588554  0.340580  1
  O  O180  1  0.006342  0.882033  0.286054  1
  O  O181  1  0.006275  0.239424  0.337061  1
  O  O182  1  0.006237  0.882511  0.377932  1
  O  O183  1  0.123350  0.651178  0.379529  1
  O  O184  1  0.123624  0.355824  0.386830  1
  O  O185  1  0.124042  0.997284  0.377697  1
  O  O186  1  0.123428  0.997508  0.335603  1
  O  O187  1  0.123650  0.650874  0.328265  1
  O  O188  1  0.124114  0.356040  0.337341  1
  O  O189  1  0.078128  0.451671  0.336312  1
  O  O190  1  0.077813  0.452249  0.286107  1
  O  O191  1  0.078072  0.100148  0.378725  1
  O  O192  1  0.090154  0.574022  0.337372  1
  O  O193  1  0.090075  0.215162  0.377691  1
  O  O194  1  0.090609  0.214729  0.286086  1
  O  O195  1  0.167303  0.556251  0.286126  1
  O  O196  1  0.167035  0.890133  0.333603  1
  O  O197  1  0.166949  0.557881  0.381549  1
  O  O198  1  0.168481  0.794599  0.340463  1
  O  O199  1  0.168394  0.796378  0.286146  1
  O  O200  1  0.168424  0.414119  0.374633  1
  O  O201  1  0.207430  0.648190  0.328569  1
  O  O202  1  0.207136  0.005208  0.337162  1
  O  O203  1  0.208029  0.354516  0.336605  1
  O  O204  1  0.207418  0.351267  0.386614  1
  O  O205  1  0.207059  0.648116  0.378009  1
  O  O206  1  0.207954  0.001614  0.378624  1
  O  O207  1  0.249912  0.112186  0.381248  1
  O  O208  1  0.249968  0.446814  0.333997  1
  O  O209  1  0.040626  0.665308  0.377827  1
  O  O210  1  0.040839  0.315449  0.378822  1
  O  O211  1  0.041233  0.022376  0.387084  1
  O  O212  1  0.040683  0.022891  0.337136  1
  O  O213  1  0.040897  0.666383  0.336231  1
  O  O214  1  0.041298  0.315300  0.327937  1
  O  O215  1  0.248187  0.209103  0.286191  1
  O  O216  1  0.249718  0.445739  0.286195  1
  H  H217  1  0.993791  0.120003  0.275608  1
  H  H218  1  0.922117  0.550058  0.275560  1
  H  H219  1  0.909698  0.786916  0.275589  1
  H  H220  1  0.832867  0.445731  0.275572  1
  H  H221  1  0.831999  0.207125  0.275582  1
  H  H222  1  0.751420  0.794448  0.275598  1
  H  H223  1  0.506577  0.120402  0.275692  1
  H  H224  1  0.577981  0.550604  0.275691  1
  H  H225  1  0.590261  0.788074  0.275670  1
  H  H226  1  0.667296  0.445889  0.275648  1
  H  H227  1  0.668425  0.207418  0.275638  1
  H  H228  1  0.749679  0.557006  0.275612  1
  H  H229  1  0.493483  0.883156  0.275729  1
  H  H230  1  0.422005  0.453385  0.275714  1
  H  H231  1  0.409775  0.215571  0.275767  1
  H  H232  1  0.332784  0.557783  0.275766  1
  H  H233  1  0.333745  0.795599  0.275742  1
  H  H234  1  0.006342  0.882033  0.275589  1
  H  H235  1  0.077813  0.452249  0.275642  1
  H  H236  1  0.090609  0.214729  0.275621  1
  H  H237  1  0.167303  0.556251  0.275661  1
  H  H238  1  0.168394  0.796378  0.275681  1
  H  H239  1  0.248187  0.209103  0.275725  1
  H  H240  1  0.249718  0.445739  0.275730  1
  O  O241  1  0.993791  0.120003  0.428931  1
  O  O242  1  0.993635  0.765000  0.521120  1
  O  O243  1  0.993682  0.119538  0.479570  1
  O  O244  1  0.875663  0.352698  0.478728  1
  O  O245  1  0.875445  0.647904  0.470992  1
  O  O246  1  0.875221  0.002959  0.479615  1
  O  O247  1  0.875601  0.003744  0.521902  1
  O  O248  1  0.875348  0.353285  0.529646  1
  O  O249  1  0.875180  0.648057  0.521066  1
  O  O250  1  0.922074  0.549978  0.521126  1
  O  O251  1  0.922117  0.550058  0.428883  1
  O  O252  1  0.922087  0.904409  0.479546  1
  O  O253  1  0.909833  0.430082  0.520726  1
  O  O254  1  0.909852  0.787217  0.479916  1
  O  O255  1  0.909698  0.786916  0.428911  1
  O  O256  1  0.832867  0.445731  0.428895  1
  O  O257  1  0.832804  0.112811  0.524209  1
  O  O258  1  0.832789  0.445695  0.476460  1
  O  O259  1  0.832247  0.207055  0.517021  1
  O  O260  1  0.831999  0.207125  0.428904  1
  O  O261  1  0.832242  0.590142  0.483619  1
  O  O262  1  0.791379  0.353654  0.529635  1
  O  O263  1  0.791627  0.001445  0.521433  1
  O  O264  1  0.791203  0.648365  0.521179  1
  O  O265  1  0.791484  0.648674  0.471048  1
  O  O266  1  0.791688  0.353836  0.479270  1
  O  O267  1  0.791234  0.002375  0.479485  1
  Si  Si268  1  0.999687  0.749939  0.535849  1
  O  O269  1  0.751126  0.794743  0.483226  1
  O  O270  1  0.751420  0.794448  0.428921  1
  O  O271  1  0.751146  0.414749  0.517506  1
  O  O272  1  0.958572  0.335511  0.479543  1
  O  O273  1  0.958287  0.688081  0.479331  1
  O  O274  1  0.958098  0.981214  0.470763  1
  O  O275  1  0.958505  0.981178  0.521167  1
  O  O276  1  0.958206  0.334886  0.521290  1
  O  O277  1  0.958050  0.688303  0.529917  1
  Si  Si278  1  0.916722  0.416395  0.499843  1
  Si  Si279  1  0.916608  0.668251  0.464848  1
  Si  Si280  1  0.916451  0.919549  0.464813  1
  Si  Si281  1  0.916695  0.919762  0.500819  1
  Si  Si282  1  0.916553  0.416519  0.535779  1
  Si  Si283  1  0.916416  0.668254  0.535865  1
  Si  Si284  1  0.833267  0.335846  0.536034  1
  Si  Si285  1  0.833339  0.082550  0.535584  1
  Si  Si286  1  0.833138  0.585796  0.500780  1
  Si  Si287  1  0.833322  0.585866  0.464612  1
  Si  Si288  1  0.833360  0.335795  0.465080  1
  Si  Si289  1  0.833162  0.082638  0.499882  1
  Si  Si290  1  0.999743  0.252665  0.500711  1
  Si  Si291  1  0.999747  0.750185  0.499990  1
  Si  Si292  1  0.999725  0.001360  0.464834  1
  Si  Si293  1  0.999942  0.001532  0.535872  1
  Si  Si294  1  0.999995  0.252907  0.464844  1
  O  O295  1  0.506577  0.120402  0.429015  1
  O  O296  1  0.506217  0.763067  0.520838  1
  O  O297  1  0.506192  0.120528  0.480116  1
  O  O298  1  0.623870  0.352094  0.478561  1
  O  O299  1  0.623682  0.646551  0.471108  1
  O  O300  1  0.623393  0.005994  0.480316  1
  O  O301  1  0.623809  0.005172  0.522276  1
  O  O302  1  0.623586  0.351611  0.529732  1
  O  O303  1  0.623342  0.646596  0.520490  1
  O  O304  1  0.578102  0.550909  0.521662  1
  O  O305  1  0.577981  0.550604  0.429014  1
  O  O306  1  0.578077  0.902251  0.479179  1
  O  O307  1  0.590455  0.428505  0.520573  1
  O  O308  1  0.590406  0.787579  0.480301  1
  O  O309  1  0.590261  0.788074  0.428992  1
  O  O310  1  0.667296  0.445889  0.428971  1
  O  O311  1  0.667171  0.111945  0.524071  1
  O  O312  1  0.667108  0.446172  0.476709  1
  O  O313  1  0.668696  0.207147  0.517196  1
  O  O314  1  0.668425  0.207418  0.428961  1
  O  O315  1  0.668635  0.589562  0.483600  1
  O  O316  1  0.707312  0.354794  0.529479  1
  O  O317  1  0.707540  0.998822  0.520994  1
  O  O318  1  0.707104  0.651460  0.522364  1
  O  O319  1  0.707416  0.650997  0.471286  1
  O  O320  1  0.707596  0.354433  0.479728  1
  O  O321  1  0.707139  0.997555  0.478382  1
  O  O322  1  0.749815  0.556847  0.524145  1
  O  O323  1  0.749679  0.557006  0.428935  1
  O  O324  1  0.541203  0.336606  0.479968  1
  O  O325  1  0.540948  0.687276  0.479126  1
  O  O326  1  0.540616  0.979913  0.470857  1
  O  O327  1  0.541129  0.979936  0.520894  1
  O  O328  1  0.540872  0.336701  0.521796  1
  O  O329  1  0.540569  0.687023  0.530047  1
  Si  Si330  1  0.583254  0.416595  0.500058  1
  Si  Si331  1  0.583053  0.668046  0.464975  1
  Si  Si332  1  0.582895  0.919587  0.464909  1
  Si  Si333  1  0.583184  0.919225  0.500797  1
  Si  Si334  1  0.583026  0.416304  0.535908  1
  Si  Si335  1  0.582876  0.668149  0.535935  1
  Si  Si336  1  0.666407  0.335654  0.536080  1
  Si  Si337  1  0.666413  0.082420  0.535621  1
  Si  Si338  1  0.666193  0.586157  0.500964  1
  Si  Si339  1  0.666439  0.585889  0.464717  1
  Si  Si340  1  0.666414  0.335794  0.465158  1
  Si  Si341  1  0.666262  0.082167  0.499819  1
  Si  Si342  1  0.749870  0.920467  0.500897  1
  Si  Si343  1  0.749733  0.416794  0.536048  1
  Si  Si344  1  0.749748  0.666926  0.535573  1
  O  O345  1  0.749755  0.890258  0.476554  1
  Si  Si346  1  0.500074  0.252729  0.464932  1
  Si  Si347  1  0.500043  0.001338  0.535959  1
  Si  Si348  1  0.749740  0.920348  0.465126  1
  Si  Si349  1  0.749929  0.416677  0.499812  1
  Si  Si350  1  0.749780  0.666973  0.464677  1
  O  O351  1  0.493483  0.883156  0.429052  1
  O  O352  1  0.493785  0.237866  0.479696  1
  O  O353  1  0.493813  0.883104  0.521190  1
  O  O354  1  0.375033  0.648377  0.521514  1
  O  O355  1  0.375375  0.355496  0.529769  1
  O  O356  1  0.375856  0.998861  0.521005  1
  O  O357  1  0.375086  0.001051  0.479447  1
  O  O358  1  0.375412  0.650483  0.471217  1
  O  O359  1  0.375936  0.355545  0.480074  1
  O  O360  1  0.422165  0.452559  0.479521  1
  O  O361  1  0.422005  0.453385  0.429036  1
  O  O362  1  0.422139  0.099554  0.521514  1
  O  O363  1  0.409712  0.572383  0.479874  1
  O  O364  1  0.409659  0.216581  0.521065  1
  O  O365  1  0.409775  0.215571  0.429090  1
  O  O366  1  0.332784  0.557783  0.429089  1
  O  O367  1  0.332600  0.890712  0.476832  1
  O  O368  1  0.332556  0.556436  0.524152  1
  O  O369  1  0.331576  0.796726  0.484002  1
  O  O370  1  0.333745  0.795599  0.429064  1
  O  O371  1  0.331483  0.412636  0.517082  1
  O  O372  1  0.291487  0.648961  0.471118  1
  O  O373  1  0.291133  0.998808  0.478753  1
  O  O374  1  0.292135  0.351524  0.478565  1
  O  O375  1  0.291467  0.354701  0.529887  1
  O  O376  1  0.291071  0.651143  0.522250  1
  O  O377  1  0.292058  0.004842  0.522378  1
  O  O378  1  0.251630  0.207864  0.517535  1
  Si  Si379  1  0.499827  0.750013  0.500074  1
  O  O380  1  0.457938  0.668041  0.521363  1
  O  O381  1  0.458217  0.314893  0.521439  1
  O  O382  1  0.458611  0.022077  0.530075  1
  O  O383  1  0.457975  0.021914  0.479632  1
  O  O384  1  0.458286  0.667964  0.479479  1
  O  O385  1  0.458685  0.314928  0.470882  1
  Si  Si386  1  0.416403  0.585970  0.500747  1
  Si  Si387  1  0.416457  0.335036  0.535934  1
  Si  Si388  1  0.416793  0.083420  0.536038  1
  Si  Si389  1  0.416421  0.084173  0.500242  1
  Si  Si390  1  0.416504  0.586729  0.465000  1
  Si  Si391  1  0.416829  0.334753  0.464995  1
  Si  Si392  1  0.333175  0.667534  0.464810  1
  Si  Si393  1  0.333333  0.920098  0.465252  1
  Si  Si394  1  0.333286  0.416196  0.499754  1
  Si  Si395  1  0.333139  0.417522  0.536217  1
  Si  Si396  1  0.333293  0.666879  0.535733  1
  Si  Si397  1  0.333276  0.921429  0.501264  1
  Si  Si398  1  0.499553  0.750003  0.535994  1
  O  O399  1  0.251576  0.588554  0.483437  1
  Si  Si400  1  0.499552  0.001384  0.464965  1
  Si  Si401  1  0.499768  0.252740  0.500845  1
  O  O402  1  0.006342  0.882033  0.428911  1
  O  O403  1  0.006275  0.239424  0.479918  1
  O  O404  1  0.006237  0.882511  0.520789  1
  O  O405  1  0.123350  0.651178  0.522386  1
  O  O406  1  0.123624  0.355824  0.529688  1
  O  O407  1  0.124042  0.997284  0.520555  1
  O  O408  1  0.123428  0.997508  0.478460  1
  O  O409  1  0.123650  0.650874  0.471122  1
  O  O410  1  0.124114  0.356040  0.480198  1
  O  O411  1  0.078128  0.451671  0.479169  1
  O  O412  1  0.077813  0.452249  0.428964  1
  O  O413  1  0.078072  0.100148  0.521582  1
  O  O414  1  0.090154  0.574022  0.480229  1
  O  O415  1  0.090075  0.215162  0.520548  1
  O  O416  1  0.090609  0.214729  0.428944  1
  O  O417  1  0.167303  0.556251  0.428983  1
  O  O418  1  0.167035  0.890133  0.476460  1
  O  O419  1  0.166949  0.557881  0.524407  1
  O  O420  1  0.168481  0.794599  0.483320  1
  O  O421  1  0.168394  0.796378  0.429003  1
  O  O422  1  0.168424  0.414119  0.517490  1
  O  O423  1  0.207430  0.648190  0.471426  1
  O  O424  1  0.207136  0.005208  0.480019  1
  O  O425  1  0.208029  0.354516  0.479462  1
  O  O426  1  0.207418  0.351267  0.529471  1
  O  O427  1  0.207059  0.648116  0.520866  1
  O  O428  1  0.207954  0.001614  0.521481  1
  O  O429  1  0.249912  0.112186  0.524105  1
  O  O430  1  0.249968  0.446814  0.476854  1
  Si  Si431  1  0.249884  0.335805  0.536161  1
  Si  Si432  1  0.249732  0.336291  0.465262  1
  O  O433  1  0.040626  0.665308  0.520684  1
  O  O434  1  0.040839  0.315449  0.521680  1
  O  O435  1  0.041233  0.022376  0.529942  1
  O  O436  1  0.040683  0.022891  0.479993  1
  O  O437  1  0.040897  0.666383  0.479088  1
  O  O438  1  0.041298  0.315300  0.470794  1
  Si  Si439  1  0.082855  0.585999  0.500752  1
  Si  Si440  1  0.082891  0.334676  0.535856  1
  Si  Si441  1  0.083347  0.083052  0.535889  1
  Si  Si442  1  0.082844  0.083430  0.500007  1
  Si  Si443  1  0.082946  0.586411  0.464927  1
  Si  Si444  1  0.083402  0.334420  0.464860  1
  Si  Si445  1  0.166420  0.666776  0.464734  1
  Si  Si446  1  0.166184  0.920819  0.465184  1
  Si  Si447  1  0.166485  0.417992  0.500224  1
  Si  Si448  1  0.166400  0.416494  0.536097  1
  Si  Si449  1  0.166104  0.667510  0.535684  1
  Si  Si450  1  0.166501  0.919417  0.500623  1
  O  O451  1  0.248187  0.209103  0.429048  1
  Si  Si452  1  0.249674  0.082771  0.535689  1
  Si  Si453  1  0.249837  0.081864  0.499743  1
  Si  Si454  1  0.249808  0.587019  0.501211  1
  Si  Si455  1  0.249883  0.586048  0.464796  1
  O  O456  1  0.249718  0.445739  0.429052  1
  Si  Si457  1  0.999687  0.749939  0.678706  1
  Si  Si458  1  0.916722  0.416395  0.642700  1
  Si  Si459  1  0.916608  0.668251  0.607705  1
  Si  Si460  1  0.916451  0.919549  0.607671  1
  Si  Si461  1  0.916695  0.919762  0.643676  1
  Si  Si462  1  0.916553  0.416519  0.678636  1
  Si  Si463  1  0.916416  0.668254  0.678722  1
  Si  Si464  1  0.833267  0.335846  0.678891  1
  Si  Si465  1  0.833339  0.082550  0.678442  1
  Si  Si466  1  0.833138  0.585796  0.643637  1
  Si  Si467  1  0.833322  0.585866  0.607469  1
  Si  Si468  1  0.833360  0.335795  0.607937  1
  Si  Si469  1  0.833162  0.082638  0.642739  1
  Si  Si470  1  0.999743  0.252665  0.643568  1
  Si  Si471  1  0.999747  0.750185  0.642847  1
  Si  Si472  1  0.999725  0.001360  0.607691  1
  Si  Si473  1  0.999942  0.001532  0.678730  1
  Si  Si474  1  0.999995  0.252907  0.607701  1
  Si  Si475  1  0.583254  0.416595  0.642915  1
  Si  Si476  1  0.583053  0.668046  0.607833  1
  Si  Si477  1  0.582895  0.919587  0.607766  1
  Si  Si478  1  0.583184  0.919225  0.643654  1
  Si  Si479  1  0.583026  0.416304  0.678765  1
  Si  Si480  1  0.582876  0.668149  0.678792  1
  Si  Si481  1  0.666407  0.335654  0.678937  1
  Si  Si482  1  0.666413  0.082420  0.678478  1
  Si  Si483  1  0.666193  0.586157  0.643821  1
  Si  Si484  1  0.666439  0.585889  0.607574  1
  Si  Si485  1  0.666414  0.335794  0.608015  1
  Si  Si486  1  0.666262  0.082167  0.642676  1
  Si  Si487  1  0.749870  0.920467  0.643754  1
  Si  Si488  1  0.749733  0.416794  0.678906  1
  Si  Si489  1  0.749748  0.666926  0.678430  1
  Si  Si490  1  0.500074  0.252729  0.607789  1
  Si  Si491  1  0.500043  0.001338  0.678816  1
  Si  Si492  1  0.749740  0.920348  0.607984  1
  Si  Si493  1  0.749929  0.416677  0.642670  1
  Si  Si494  1  0.749780  0.666973  0.607534  1
  Si  Si495  1  0.499827  0.750013  0.642931  1
  Si  Si496  1  0.416403  0.585970  0.643604  1
  Si  Si497  1  0.416457  0.335036  0.678792  1
  Si  Si498  1  0.416793  0.083420  0.678895  1
  Si  Si499  1  0.416421  0.084173  0.643099  1
  Si  Si500  1  0.416504  0.586729  0.607857  1
  Si  Si501  1  0.416829  0.334753  0.607852  1
  Si  Si502  1  0.333175  0.667534  0.607667  1
  Si  Si503  1  0.333333  0.920098  0.608109  1
  Si  Si504  1  0.333286  0.416196  0.642611  1
  Si  Si505  1  0.333139  0.417522  0.679074  1
  Si  Si506  1  0.333293  0.666879  0.678590  1
  Si  Si507  1  0.333276  0.921429  0.644121  1
  Si  Si508  1  0.499553  0.750003  0.678851  1
  Si  Si509  1  0.499552  0.001384  0.607822  1
  Si  Si510  1  0.499768  0.252740  0.643702  1
  Si  Si511  1  0.249884  0.335805  0.679018  1
  Si  Si512  1  0.249732  0.336291  0.608119  1
  Si  Si513  1  0.082855  0.585999  0.643609  1
  Si  Si514  1  0.082891  0.334676  0.678713  1
  Si  Si515  1  0.083347  0.083052  0.678746  1
  Si  Si516  1  0.082844  0.083430  0.642864  1
  Si  Si517  1  0.082946  0.586411  0.607784  1
  Si  Si518  1  0.083402  0.334420  0.607717  1
  Si  Si519  1  0.166420  0.666776  0.607591  1
  Si  Si520  1  0.166184  0.920819  0.608041  1
  Si  Si521  1  0.166485  0.417992  0.643081  1
  Si  Si522  1  0.166400  0.416494  0.678954  1
  Si  Si523  1  0.166104  0.667510  0.678541  1
  Si  Si524  1  0.166501  0.919417  0.643480  1
  Si  Si525  1  0.249674  0.082771  0.678546  1
  Si  Si526  1  0.249837  0.081864  0.642600  1
  Si  Si527  1  0.249808  0.587019  0.644068  1
  Si  Si528  1  0.249883  0.586048  0.607653  1
  O  O529  1  0.993791  0.120003  0.571788  1
  O  O530  1  0.993635  0.765000  0.663977  1
  O  O531  1  0.993682  0.119538  0.622427  1
  O  O532  1  0.875663  0.352698  0.621585  1
  O  O533  1  0.875445  0.647904  0.613849  1
  O  O534  1  0.875221  0.002959  0.622472  1
  O  O535  1  0.875601  0.003744  0.664759  1
  O  O536  1  0.875348  0.353285  0.672503  1
  O  O537  1  0.875180  0.648057  0.663924  1
  O  O538  1  0.922074  0.549978  0.663983  1
  O  O539  1  0.922117  0.550058  0.571740  1
  O  O540  1  0.922087  0.904409  0.622403  1
  O  O541  1  0.909833  0.430082  0.663583  1
  O  O542  1  0.909852  0.787217  0.622774  1
  O  O543  1  0.909698  0.786916  0.571768  1
  O  O544  1  0.832867  0.445731  0.571752  1
  O  O545  1  0.832804  0.112811  0.667066  1
  O  O546  1  0.832789  0.445695  0.619317  1
  O  O547  1  0.832247  0.207055  0.659878  1
  O  O548  1  0.831999  0.207125  0.571761  1
  O  O549  1  0.832242  0.590142  0.626476  1
  O  O550  1  0.791379  0.353654  0.672492  1
  O  O551  1  0.791627  0.001445  0.664290  1
  O  O552  1  0.791203  0.648365  0.664036  1
  O  O553  1  0.791484  0.648674  0.613905  1
  O  O554  1  0.791688  0.353836  0.622127  1
  O  O555  1  0.791234  0.002375  0.622342  1
  O  O556  1  0.751126  0.794743  0.626083  1
  O  O557  1  0.751420  0.794448  0.571778  1
  O  O558  1  0.751146  0.414749  0.660363  1
  O  O559  1  0.958572  0.335511  0.622400  1
  O  O560  1  0.958287  0.688081  0.622189  1
  O  O561  1  0.958098  0.981214  0.613620  1
  O  O562  1  0.958505  0.981178  0.664024  1
  O  O563  1  0.958206  0.334886  0.664147  1
  O  O564  1  0.958050  0.688303  0.672774  1
  O  O565  1  0.506577  0.120402  0.571872  1
  O  O566  1  0.506217  0.763067  0.663695  1
  O  O567  1  0.506192  0.120528  0.622973  1
  O  O568  1  0.623870  0.352094  0.621418  1
  O  O569  1  0.623682  0.646551  0.613965  1
  O  O570  1  0.623393  0.005994  0.623173  1
  O  O571  1  0.623809  0.005172  0.665134  1
  O  O572  1  0.623586  0.351611  0.672589  1
  O  O573  1  0.623342  0.646596  0.663348  1
  O  O574  1  0.578102  0.550909  0.664519  1
  O  O575  1  0.577981  0.550604  0.571871  1
  O  O576  1  0.578077  0.902251  0.622036  1
  O  O577  1  0.590455  0.428505  0.663430  1
  O  O578  1  0.590406  0.787579  0.623158  1
  O  O579  1  0.590261  0.788074  0.571849  1
  O  O580  1  0.667296  0.445889  0.571828  1
  O  O581  1  0.667171  0.111945  0.666928  1
  O  O582  1  0.667108  0.446172  0.619567  1
  O  O583  1  0.668696  0.207147  0.660053  1
  O  O584  1  0.668425  0.207418  0.571818  1
  O  O585  1  0.668635  0.589562  0.626458  1
  O  O586  1  0.707312  0.354794  0.672336  1
  O  O587  1  0.707540  0.998822  0.663851  1
  O  O588  1  0.707104  0.651460  0.665221  1
  O  O589  1  0.707416  0.650997  0.614143  1
  O  O590  1  0.707596  0.354433  0.622585  1
  O  O591  1  0.707139  0.997555  0.621239  1
  O  O592  1  0.749815  0.556847  0.667002  1
  O  O593  1  0.749679  0.557006  0.571792  1
  O  O594  1  0.541203  0.336606  0.622825  1
  O  O595  1  0.540948  0.687276  0.621984  1
  O  O596  1  0.540616  0.979913  0.613714  1
  O  O597  1  0.541129  0.979936  0.663751  1
  O  O598  1  0.540872  0.336701  0.664653  1
  O  O599  1  0.540569  0.687023  0.672904  1
  O  O600  1  0.749755  0.890258  0.619411  1
  O  O601  1  0.493483  0.883156  0.571909  1
  O  O602  1  0.493785  0.237866  0.622553  1
  O  O603  1  0.493813  0.883104  0.664047  1
  O  O604  1  0.375033  0.648377  0.664372  1
  O  O605  1  0.375375  0.355496  0.672626  1
  O  O606  1  0.375856  0.998861  0.663862  1
  O  O607  1  0.375086  0.001051  0.622304  1
  O  O608  1  0.375412  0.650483  0.614074  1
  O  O609  1  0.375936  0.355545  0.622931  1
  O  O610  1  0.422165  0.452559  0.622378  1
  O  O611  1  0.422005  0.453385  0.571893  1
  O  O612  1  0.422139  0.099554  0.664371  1
  O  O613  1  0.409712  0.572383  0.622731  1
  O  O614  1  0.409659  0.216581  0.663922  1
  O  O615  1  0.409775  0.215571  0.571947  1
  O  O616  1  0.332784  0.557783  0.571946  1
  O  O617  1  0.332600  0.890712  0.619689  1
  O  O618  1  0.332556  0.556436  0.667009  1
  O  O619  1  0.331576  0.796726  0.626859  1
  O  O620  1  0.333745  0.795599  0.571921  1
  O  O621  1  0.331483  0.412636  0.659939  1
  O  O622  1  0.291487  0.648961  0.613975  1
  O  O623  1  0.291133  0.998808  0.621610  1
  O  O624  1  0.292135  0.351524  0.621422  1
  O  O625  1  0.291467  0.354701  0.672744  1
  O  O626  1  0.291071  0.651143  0.665107  1
  O  O627  1  0.292058  0.004842  0.665235  1
  O  O628  1  0.251630  0.207864  0.660392  1
  O  O629  1  0.457938  0.668041  0.664220  1
  O  O630  1  0.458217  0.314893  0.664296  1
  O  O631  1  0.458611  0.022077  0.672933  1
  O  O632  1  0.457975  0.021914  0.622489  1
  O  O633  1  0.458286  0.667964  0.622336  1
  O  O634  1  0.458685  0.314928  0.613739  1
  O  O635  1  0.251576  0.588554  0.626294  1
  O  O636  1  0.006342  0.882033  0.571768  1
  O  O637  1  0.006275  0.239424  0.622775  1
  O  O638  1  0.006237  0.882511  0.663646  1
  O  O639  1  0.123350  0.651178  0.665243  1
  O  O640  1  0.123624  0.355824  0.672545  1
  O  O641  1  0.124042  0.997284  0.663412  1
  O  O642  1  0.123428  0.997508  0.621317  1
  O  O643  1  0.123650  0.650874  0.613979  1
  O  O644  1  0.124114  0.356040  0.623055  1
  O  O645  1  0.078128  0.451671  0.622026  1
  O  O646  1  0.077813  0.452249  0.571821  1
  O  O647  1  0.078072  0.100148  0.664439  1
  O  O648  1  0.090154  0.574022  0.623086  1
  O  O649  1  0.090075  0.215162  0.663406  1
  O  O650  1  0.090609  0.214729  0.571801  1
  O  O651  1  0.167303  0.556251  0.571840  1
  O  O652  1  0.167035  0.890133  0.619318  1
  O  O653  1  0.166949  0.557881  0.667264  1
  O  O654  1  0.168481  0.794599  0.626178  1
  O  O655  1  0.168394  0.796378  0.571861  1
  O  O656  1  0.168424  0.414119  0.660347  1
  O  O657  1  0.207430  0.648190  0.614284  1
  O  O658  1  0.207136  0.005208  0.622876  1
  O  O659  1  0.208029  0.354516  0.622320  1
  O  O660  1  0.207418  0.351267  0.672328  1
  O  O661  1  0.207059  0.648116  0.663723  1
  O  O662  1  0.207954  0.001614  0.664338  1
  O  O663  1  0.249912  0.112186  0.666963  1
  O  O664  1  0.249968  0.446814  0.619711  1
  O  O665  1  0.040626  0.665308  0.663541  1
  O  O666  1  0.040839  0.315449  0.664537  1
  O  O667  1  0.041233  0.022376  0.672799  1
  O  O668  1  0.040683  0.022891  0.622851  1
  O  O669  1  0.040897  0.666383  0.621945  1
  O  O670  1  0.041298  0.315300  0.613651  1
  O  O671  1  0.248187  0.209103  0.571905  1
  O  O672  1  0.249718  0.445739  0.571909  1
  O  O673  1  0.993791  0.120003  0.714645  1
  O  O674  1  0.922117  0.550058  0.714597  1
  O  O675  1  0.909698  0.786916  0.714625  1
  O  O676  1  0.832867  0.445731  0.714609  1
  O  O677  1  0.831999  0.207125  0.714618  1
  O  O678  1  0.751420  0.794448  0.714635  1
  O  O679  1  0.506577  0.120402  0.714729  1
  O  O680  1  0.577981  0.550604  0.714728  1
  O  O681  1  0.590261  0.788074  0.714706  1
  O  O682  1  0.667296  0.445889  0.714685  1
  O  O683  1  0.668425  0.207418  0.714675  1
  O  O684  1  0.749679  0.557006  0.714649  1
  O  O685  1  0.493483  0.883156  0.714766  1
  O  O686  1  0.422005  0.453385  0.714750  1
  O  O687  1  0.409775  0.215571  0.714804  1
  O  O688  1  0.332784  0.557783  0.714803  1
  O  O689  1  0.333745  0.795599  0.714778  1
  O  O690  1  0.006342  0.882033  0.714626  1
  O  O691  1  0.077813  0.452249  0.714679  1
  O  O692  1  0.090609  0.214729  0.714658  1
  O  O693  1  0.167303  0.556251  0.714698  1
  O  O694  1  0.168394  0.796378  0.714718  1
  O  O695  1  0.248187  0.209103  0.714762  1
  O  O696  1  0.249718  0.445739  0.714766  1
  H  H697  1  0.993791  0.120003  0.725110  1
  H  H698  1  0.922117  0.550058  0.725062  1
  H  H699  1  0.909698  0.786916  0.725091  1
  H  H700  1  0.832867  0.445731  0.725074  1
  H  H701  1  0.831999  0.207125  0.725083  1
  H  H702  1  0.751420  0.794448  0.725101  1
  H  H703  1  0.506577  0.120402  0.725194  1
  H  H704  1  0.577981  0.550604  0.725194  1
  H  H705  1  0.590261  0.788074  0.725172  1
  H  H706  1  0.667296  0.445889  0.725150  1
  H  H707  1  0.668425  0.207418  0.725140  1
  H  H708  1  0.749679  0.557006  0.725114  1
  H  H709  1  0.493483  0.883156  0.725231  1
  H  H710  1  0.422005  0.453385  0.725215  1
  H  H711  1  0.409775  0.215571  0.725269  1
  H  H712  1  0.332784  0.557783  0.725268  1
  H  H713  1  0.333745  0.795599  0.725243  1
  H  H714  1  0.006342  0.882033  0.725091  1
  H  H715  1  0.077813  0.452249  0.725144  1
  H  H716  1  0.090609  0.214729  0.725123  1
  H  H717  1  0.167303  0.556251  0.725163  1
  H  H718  1  0.168394  0.796378  0.725183  1
  H  H719  1  0.248187  0.209103  0.725227  1
  H  H720  1  0.249718  0.445739  0.725231  1
