# generated using pymatgen
data_Si18H2O37
_symmetry_space_group_name_H-M   'P 1'
_cell_length_a   20.16320754
_cell_length_b   13.29161272
_cell_length_c   51.59662258
_cell_angle_alpha   90.00000000
_cell_angle_beta   90.00000000
_cell_angle_gamma   90.00000000
_symmetry_Int_Tables_number   1
_chemical_formula_structural   Si18H2O37
_chemical_formula_sum   'Si144 H16 O296'
_cell_volume   13827.9746101
_cell_formula_units_Z   8
loop_
 _symmetry_equiv_pos_site_id
 _symmetry_equiv_pos_as_xyz
  1  'x, y, z'
loop_
 _atom_site_type_symbol
 _atom_site_label
 _atom_site_symmetry_multiplicity
 _atom_site_fract_x
 _atom_site_fract_y
 _atom_site_fract_z
 _atom_site_occupancy
  O  O1  1  0.000000  0.198662  0.229386  1
  O  O2  1  -0.000000  0.198687  0.384305  1
  O  O3  1  0.690910  0.056505  0.383048  1
  O  O4  1  0.690908  0.056493  0.230644  1
  O  O5  1  0.810650  0.669713  0.230351  1
  O  O6  1  0.810656  0.669712  0.383342  1
  O  O7  1  0.747023  0.228012  0.382829  1
  O  O8  1  0.747024  0.228000  0.230866  1
  O  O9  1  0.705993  0.893134  0.354462  1
  O  O10  1  0.705984  0.893121  0.259230  1
  O  O11  1  0.801105  0.962891  0.381690  1
  O  O12  1  0.801099  0.962873  0.232002  1
  O  O13  1  0.899707  0.903258  0.353889  1
  O  O14  1  0.899704  0.903248  0.259804  1
  O  O15  1  0.908193  0.066620  0.381652  1
  O  O16  1  0.908186  0.066606  0.232040  1
  O  O17  1  0.873176  0.250525  0.382515  1
  O  O18  1  0.873177  0.250516  0.231178  1
  O  O19  1  0.796358  0.366599  0.354493  1
  O  O20  1  0.796357  0.366588  0.259202  1
  O  O21  1  0.879482  0.722574  0.269981  1
  O  O22  1  0.879489  0.722580  0.343714  1
  O  O23  1  0.921692  0.835202  0.306846  1
  O  O24  1  0.808580  0.555934  0.269648  1
  O  O25  1  0.808585  0.555943  0.344044  1
  O  O26  1  0.752511  0.724494  0.271022  1
  O  O27  1  0.752518  0.724504  0.342671  1
  O  O28  1  0.781819  0.434208  0.306847  1
  O  O29  1  0.696397  0.470151  0.272214  1
  O  O30  1  0.696400  0.470164  0.341480  1
  O  O31  1  0.697469  0.822980  0.306847  1
  O  O32  1  0.797212  0.381975  0.210641  1
  O  O33  1  0.904257  0.896493  0.402934  1
  O  O34  1  0.904252  0.896479  0.210758  1
  O  O35  1  0.797213  0.381986  0.403053  1
  O  O36  1  0.878679  0.727275  0.191751  1
  O  O37  1  0.908651  0.879340  0.162435  1
  O  O38  1  0.809030  0.556494  0.190554  1
  O  O39  1  0.689290  0.169711  0.190845  1
  O  O40  1  0.752914  0.728000  0.190331  1
  O  O41  1  0.793953  0.393123  0.161966  1
  O  O42  1  0.698838  0.462873  0.189195  1
  O  O43  1  0.000000  0.203976  0.152531  1
  O  O44  1  0.922216  0.169720  0.191375  1
  O  O45  1  0.703583  0.866588  0.161995  1
  O  O46  1  0.691361  0.055935  0.151548  1
  O  O47  1  0.747428  0.224495  0.150174  1
  O  O48  1  0.718124  0.934209  0.114350  1
  O  O49  1  0.803543  0.970151  0.148984  1
  O  O50  1  0.890612  0.943028  0.114350  1
  O  O51  1  0.911918  0.066932  0.151083  1
  O  O52  1  0.872607  0.247145  0.150836  1
  O  O53  1  0.802470  0.322975  0.114350  1
  O  O54  1  0.702726  0.881976  0.210555  1
  O  O55  1  0.499831  0.301258  0.384306  1
  O  O56  1  0.499829  0.301236  0.229387  1
  O  O57  1  0.621258  0.227285  0.384248  1
  O  O58  1  0.621259  0.227275  0.229446  1
  O  O59  1  0.591294  0.379353  0.354933  1
  O  O60  1  0.591290  0.379337  0.258763  1
  O  O61  1  0.399705  0.596651  0.259807  1
  O  O62  1  0.399706  0.596685  0.353892  1
  O  O63  1  0.408184  0.433287  0.232044  1
  O  O64  1  0.408195  0.433328  0.381656  1
  O  O65  1  0.373178  0.249376  0.231174  1
  O  O66  1  0.373176  0.249425  0.382511  1
  O  O67  1  0.577725  0.669720  0.229822  1
  O  O68  1  0.577724  0.669726  0.383872  1
  O  O69  1  0.500287  0.703993  0.345028  1
  O  O70  1  0.500282  0.703974  0.268665  1
  O  O71  1  0.379488  0.777358  0.343713  1
  O  O72  1  0.379481  0.777327  0.269979  1
  O  O73  1  0.421692  0.664719  0.306848  1
  O  O74  1  0.609330  0.443028  0.306847  1
  O  O75  1  0.588021  0.566930  0.270114  1
  O  O76  1  0.588024  0.566942  0.343579  1
  O  O77  1  0.627334  0.747142  0.270362  1
  O  O78  1  0.627339  0.747152  0.343334  1
  O  O79  1  0.404256  0.603455  0.402937  1
  O  O80  1  0.404254  0.603412  0.210761  1
  O  O81  1  0.500108  0.698661  0.191812  1
  O  O82  1  0.378678  0.772616  0.191752  1
  O  O83  1  0.408651  0.620552  0.162438  1
  O  O84  1  0.600235  0.403246  0.161394  1
  O  O85  1  0.591753  0.566606  0.189158  1
  O  O86  1  0.626761  0.750516  0.190018  1
  O  O87  1  0.422221  0.330197  0.191375  1
  O  O88  1  0.499658  0.295927  0.152532  1
  O  O89  1  0.620458  0.222573  0.151217  1
  O  O90  1  0.578251  0.335202  0.114351  1
  O  O91  1  0.390612  0.556892  0.114351  1
  O  O92  1  0.411914  0.432964  0.151080  1
  O  O93  1  0.372606  0.252752  0.150839  1
  O  O94  1  0.595685  0.396480  0.210440  1
  O  O95  1  0.121260  0.272619  0.229443  1
  O  O96  1  0.121257  0.272663  0.384246  1
  O  O97  1  0.091290  0.120557  0.258760  1
  O  O98  1  0.091294  0.120594  0.354930  1
  O  O99  1  0.297213  0.117912  0.210637  1
  O  O100  1  0.297212  0.117968  0.403050  1
  O  O101  1  0.190911  0.443396  0.230648  1
  O  O102  1  0.190907  0.443447  0.383052  1
  O  O103  1  0.310656  0.830214  0.383342  1
  O  O104  1  0.310649  0.830201  0.230351  1
  O  O105  1  0.247026  0.271888  0.230862  1
  O  O106  1  0.247022  0.271940  0.382825  1
  O  O107  1  0.205985  0.606773  0.259234  1
  O  O108  1  0.205991  0.606811  0.354465  1
  O  O109  1  0.301100  0.537024  0.232006  1
  O  O110  1  0.301104  0.537053  0.381693  1
  O  O111  1  0.000000  0.795945  0.345028  1
  O  O112  1  0.000000  0.795928  0.268665  1
  O  O113  1  0.077728  0.830201  0.383872  1
  O  O114  1  0.077721  0.830194  0.229822  1
  O  O115  1  0.296360  0.133306  0.259199  1
  O  O116  1  0.296355  0.133348  0.354489  1
  O  O117  1  0.308584  0.943997  0.344046  1
  O  O118  1  0.308579  0.943965  0.269651  1
  O  O119  1  0.252519  0.775435  0.342668  1
  O  O120  1  0.252511  0.775406  0.271022  1
  O  O121  1  0.281819  0.065712  0.306845  1
  O  O122  1  0.196399  0.029773  0.341479  1
  O  O123  1  0.196398  0.029752  0.272213  1
  O  O124  1  0.109330  0.056892  0.306846  1
  O  O125  1  0.088022  0.932999  0.343581  1
  O  O126  1  0.088023  0.932969  0.270116  1
  O  O127  1  0.127339  0.752789  0.343332  1
  O  O128  1  0.127332  0.752756  0.270360  1
  O  O129  1  0.197473  0.676945  0.306848  1
  O  O130  1  0.000000  0.801233  0.191811  1
  O  O131  1  0.309027  0.943395  0.190549  1
  O  O132  1  0.189290  0.330206  0.190845  1
  O  O133  1  0.252913  0.771887  0.190335  1
  O  O134  1  0.293951  0.106772  0.161963  1
  O  O135  1  0.198837  0.037021  0.189192  1
  O  O136  1  0.100233  0.096651  0.161391  1
  O  O137  1  0.091753  0.933287  0.189154  1
  O  O138  1  0.126760  0.749375  0.190022  1
  O  O139  1  0.203579  0.633305  0.161998  1
  O  O140  1  0.120457  0.277329  0.151218  1
  O  O141  1  0.078250  0.164719  0.114349  1
  O  O142  1  0.191361  0.443966  0.151545  1
  O  O143  1  0.247429  0.275406  0.150177  1
  O  O144  1  0.218123  0.565712  0.114351  1
  O  O145  1  0.303542  0.529753  0.148983  1
  O  O146  1  0.302473  0.176940  0.114349  1
  O  O147  1  0.095684  0.103414  0.210436  1
  O  O148  1  0.202724  0.617912  0.210559  1
  O  O149  1  0.000000  0.198662  0.614378  1
  O  O150  1  0.690908  0.056493  0.615636  1
  O  O151  1  0.810650  0.669713  0.615344  1
  O  O152  1  0.747024  0.228000  0.615858  1
  O  O153  1  0.705984  0.893121  0.644223  1
  O  O154  1  0.801099  0.962873  0.616995  1
  O  O155  1  0.899704  0.903248  0.644796  1
  O  O156  1  0.908186  0.066606  0.617032  1
  O  O157  1  0.873177  0.250516  0.616171  1
  O  O158  1  0.796357  0.366588  0.644194  1
  O  O159  1  0.879482  0.722574  0.654973  1
  O  O160  1  0.921692  0.835202  0.691839  1
  O  O161  1  0.808580  0.555934  0.654641  1
  O  O162  1  0.752511  0.724494  0.656014  1
  O  O163  1  0.781819  0.434208  0.691839  1
  O  O164  1  0.696397  0.470151  0.657206  1
  O  O165  1  0.697469  0.822980  0.691840  1
  O  O166  1  0.797212  0.381975  0.595633  1
  O  O167  1  0.904252  0.896479  0.595750  1
  O  O168  1  0.878679  0.727275  0.576743  1
  O  O169  1  0.878689  0.727284  0.421941  1
  O  O170  1  0.908651  0.879340  0.547427  1
  O  O171  1  0.908650  0.879350  0.451257  1
  O  O172  1  0.702734  0.881985  0.403136  1
  O  O173  1  0.809030  0.556494  0.575546  1
  O  O174  1  0.809037  0.556505  0.423141  1
  O  O175  1  0.689290  0.169713  0.422848  1
  O  O176  1  0.689290  0.169711  0.575838  1
  O  O177  1  0.752914  0.728000  0.575324  1
  O  O178  1  0.752924  0.728013  0.423361  1
  O  O179  1  0.793953  0.393123  0.546959  1
  O  O180  1  0.793956  0.393133  0.451728  1
  O  O181  1  0.698838  0.462873  0.574187  1
  O  O182  1  0.698842  0.462890  0.424500  1
  O  O183  1  -0.000000  0.203991  0.461161  1
  O  O184  1  -0.000000  0.203976  0.537524  1
  O  O185  1  0.922220  0.169727  0.422317  1
  O  O186  1  0.922216  0.169720  0.576368  1
  O  O187  1  0.703583  0.866588  0.546987  1
  O  O188  1  0.703587  0.866599  0.451697  1
  O  O189  1  0.691360  0.055944  0.462146  1
  O  O190  1  0.691361  0.055935  0.536541  1
  O  O191  1  0.747427  0.224504  0.463519  1
  O  O192  1  0.747428  0.224495  0.535166  1
  O  O193  1  0.718124  0.934209  0.499342  1
  O  O194  1  0.803545  0.970165  0.464709  1
  O  O195  1  0.803543  0.970151  0.533976  1
  O  O196  1  0.890612  0.943028  0.499343  1
  O  O197  1  0.911922  0.066940  0.462610  1
  O  O198  1  0.911918  0.066932  0.536075  1
  O  O199  1  0.872607  0.247150  0.462856  1
  O  O200  1  0.872607  0.247145  0.535829  1
  O  O201  1  0.802470  0.322975  0.499343  1
  O  O202  1  0.702726  0.881976  0.595548  1
  O  O203  1  0.499829  0.301236  0.614380  1
  O  O204  1  0.621259  0.227275  0.614439  1
  O  O205  1  0.591290  0.379337  0.643755  1
  O  O206  1  0.399705  0.596651  0.644799  1
  O  O207  1  0.408184  0.433287  0.617036  1
  O  O208  1  0.373178  0.249376  0.616167  1
  O  O209  1  0.577725  0.669720  0.614815  1
  O  O210  1  0.500282  0.703974  0.653657  1
  O  O211  1  0.379481  0.777327  0.654972  1
  O  O212  1  0.421692  0.664719  0.691840  1
  O  O213  1  0.609330  0.443028  0.691840  1
  O  O214  1  0.588021  0.566930  0.655106  1
  O  O215  1  0.627334  0.747142  0.655355  1
  O  O216  1  0.404254  0.603412  0.595753  1
  O  O217  1  0.500117  0.698687  0.421885  1
  O  O218  1  0.500108  0.698661  0.576804  1
  O  O219  1  0.378691  0.772666  0.421943  1
  O  O220  1  0.378678  0.772616  0.576744  1
  O  O221  1  0.408650  0.620599  0.451260  1
  O  O222  1  0.408651  0.620552  0.547430  1
  O  O223  1  0.600235  0.403246  0.546386  1
  O  O224  1  0.600239  0.403258  0.452301  1
  O  O225  1  0.591753  0.566606  0.574150  1
  O  O226  1  0.591754  0.566619  0.424538  1
  O  O227  1  0.626761  0.750516  0.575010  1
  O  O228  1  0.626770  0.750525  0.423673  1
  O  O229  1  0.422221  0.330197  0.576367  1
  O  O230  1  0.422215  0.330196  0.422318  1
  O  O231  1  0.499658  0.295946  0.461161  1
  O  O232  1  0.499658  0.295927  0.537524  1
  O  O233  1  0.620457  0.222582  0.462476  1
  O  O234  1  0.620458  0.222573  0.536209  1
  O  O235  1  0.578251  0.335202  0.499343  1
  O  O236  1  0.390612  0.556892  0.499344  1
  O  O237  1  0.411914  0.432964  0.536072  1
  O  O238  1  0.411925  0.433004  0.462607  1
  O  O239  1  0.372606  0.252752  0.535831  1
  O  O240  1  0.372607  0.252794  0.462859  1
  O  O241  1  0.595690  0.396493  0.403256  1
  O  O242  1  0.595685  0.396480  0.595432  1
  O  O243  1  0.121260  0.272619  0.614436  1
  O  O244  1  0.091290  0.120557  0.643752  1
  O  O245  1  0.297213  0.117912  0.595630  1
  O  O246  1  0.190911  0.443396  0.615640  1
  O  O247  1  0.310649  0.830201  0.615344  1
  O  O248  1  0.247026  0.271888  0.615855  1
  O  O249  1  0.205985  0.606773  0.644226  1
  O  O250  1  0.301100  0.537024  0.616998  1
  O  O251  1  0.000000  0.795928  0.653657  1
  O  O252  1  0.077721  0.830194  0.614814  1
  O  O253  1  0.296360  0.133306  0.644191  1
  O  O254  1  0.308579  0.943965  0.654643  1
  O  O255  1  0.252511  0.775406  0.656014  1
  O  O256  1  0.281819  0.065712  0.691838  1
  O  O257  1  0.196398  0.029752  0.657206  1
  O  O258  1  0.109330  0.056892  0.691838  1
  O  O259  1  0.088023  0.932969  0.655109  1
  O  O260  1  0.127332  0.752756  0.655352  1
  O  O261  1  0.197473  0.676945  0.691840  1
  O  O262  1  0.000000  0.801233  0.576803  1
  O  O263  1  0.000000  0.801259  0.421884  1
  O  O264  1  0.309041  0.943448  0.423137  1
  O  O265  1  0.309027  0.943395  0.575541  1
  O  O266  1  0.189290  0.330206  0.575837  1
  O  O267  1  0.189289  0.330211  0.422847  1
  O  O268  1  0.252926  0.771941  0.423364  1
  O  O269  1  0.252913  0.771887  0.575327  1
  O  O270  1  0.293958  0.106814  0.451724  1
  O  O271  1  0.293951  0.106772  0.546955  1
  O  O272  1  0.198843  0.037056  0.424497  1
  O  O273  1  0.198837  0.037021  0.574184  1
  O  O274  1  0.100241  0.096684  0.452298  1
  O  O275  1  0.100233  0.096651  0.546383  1
  O  O276  1  0.091754  0.933328  0.424534  1
  O  O277  1  0.091753  0.933287  0.574147  1
  O  O278  1  0.126771  0.749424  0.423677  1
  O  O279  1  0.126760  0.749375  0.575014  1
  O  O280  1  0.203591  0.633348  0.451700  1
  O  O281  1  0.203579  0.633305  0.546990  1
  O  O282  1  0.120457  0.277329  0.536210  1
  O  O283  1  0.120457  0.277358  0.462477  1
  O  O284  1  0.078250  0.164719  0.499341  1
  O  O285  1  0.191361  0.443966  0.536537  1
  O  O286  1  0.191360  0.443998  0.462142  1
  O  O287  1  0.247429  0.275406  0.535169  1
  O  O288  1  0.247427  0.275437  0.463521  1
  O  O289  1  0.218123  0.565712  0.499343  1
  O  O290  1  0.303542  0.529753  0.533976  1
  O  O291  1  0.303546  0.529772  0.464709  1
  O  O292  1  0.302473  0.176940  0.499341  1
  O  O293  1  0.095692  0.103455  0.403253  1
  O  O294  1  0.202736  0.617968  0.403139  1
  O  O295  1  0.095684  0.103414  0.595429  1
  O  O296  1  0.202724  0.617912  0.595551  1
  Si  Si297  1  0.772771  0.454940  0.336582  1
  Si  Si298  1  0.772768  0.454931  0.277112  1
  Si  Si299  1  0.694768  0.799166  0.336594  1
  Si  Si300  1  0.694764  0.799158  0.277101  1
  Si  Si301  1  0.685171  0.168268  0.392683  1
  Si  Si302  1  0.685171  0.168258  0.221010  1
  Si  Si303  1  0.724278  0.950334  0.380050  1
  Si  Si304  1  0.724271  0.950319  0.233642  1
  Si  Si305  1  0.878158  0.958569  0.379440  1
  Si  Si306  1  0.878152  0.958555  0.234252  1
  Si  Si307  1  0.926473  0.173552  0.392157  1
  Si  Si308  1  0.926470  0.173538  0.221536  1
  Si  Si309  1  0.804794  0.305655  0.380276  1
  Si  Si310  1  0.804794  0.305644  0.233418  1
  Si  Si311  1  0.926023  0.813759  0.276930  1
  Si  Si312  1  0.926028  0.813766  0.336763  1
  Si  Si313  1  0.814797  0.667961  0.260481  1
  Si  Si314  1  0.814802  0.667968  0.353212  1
  Si  Si315  1  0.805176  0.299159  0.144097  1
  Si  Si316  1  0.923965  0.822763  0.188487  1
  Si  Si317  1  0.814767  0.668259  0.200187  1
  Si  Si318  1  0.775666  0.450321  0.187555  1
  Si  Si319  1  0.695144  0.805645  0.187779  1
  Si  Si320  1  0.685144  0.167961  0.160716  1
  Si  Si321  1  0.727172  0.954932  0.144085  1
  Si  Si322  1  0.880295  0.963162  0.144146  1
  Si  Si323  1  0.927481  0.174836  0.161286  1
  Si  Si324  1  0.572462  0.674846  0.353783  1
  Si  Si325  1  0.572459  0.674835  0.259912  1
  Si  Si326  1  0.575976  0.322778  0.380985  1
  Si  Si327  1  0.575973  0.322763  0.232711  1
  Si  Si328  1  0.378154  0.541340  0.234255  1
  Si  Si329  1  0.378157  0.541377  0.379444  1
  Si  Si330  1  0.426471  0.326361  0.221536  1
  Si  Si331  1  0.426472  0.326390  0.392157  1
  Si  Si332  1  0.426027  0.686169  0.336764  1
  Si  Si333  1  0.426024  0.686147  0.276930  1
  Si  Si334  1  0.619645  0.463161  0.277051  1
  Si  Si335  1  0.619648  0.463172  0.336643  1
  Si  Si336  1  0.427481  0.325065  0.161285  1
  Si  Si337  1  0.423965  0.677128  0.188489  1
  Si  Si338  1  0.621785  0.458555  0.186946  1
  Si  Si339  1  0.573468  0.673539  0.199661  1
  Si  Si340  1  0.573917  0.313757  0.144267  1
  Si  Si341  1  0.380294  0.536740  0.144147  1
  Si  Si342  1  0.075974  0.177130  0.232708  1
  Si  Si343  1  0.075975  0.177169  0.380982  1
  Si  Si344  1  0.185173  0.331636  0.221010  1
  Si  Si345  1  0.185169  0.331677  0.392683  1
  Si  Si346  1  0.224272  0.549571  0.233645  1
  Si  Si347  1  0.224277  0.549616  0.380054  1
  Si  Si348  1  0.304796  0.194245  0.233414  1
  Si  Si349  1  0.304792  0.194296  0.380272  1
  Si  Si350  1  0.314802  0.831969  0.353211  1
  Si  Si351  1  0.314796  0.831941  0.260481  1
  Si  Si352  1  0.272770  0.044997  0.336581  1
  Si  Si353  1  0.272769  0.044972  0.277111  1
  Si  Si354  1  0.119647  0.036766  0.336642  1
  Si  Si355  1  0.119646  0.036743  0.277050  1
  Si  Si356  1  0.072463  0.825092  0.353782  1
  Si  Si357  1  0.072458  0.825069  0.259912  1
  Si  Si358  1  0.194769  0.700771  0.336594  1
  Si  Si359  1  0.194763  0.700746  0.277101  1
  Si  Si360  1  0.227172  0.544973  0.144085  1
  Si  Si361  1  0.305176  0.200744  0.144096  1
  Si  Si362  1  0.314766  0.831635  0.200187  1
  Si  Si363  1  0.275665  0.049570  0.187551  1
  Si  Si364  1  0.121784  0.041339  0.186942  1
  Si  Si365  1  0.073468  0.826360  0.199661  1
  Si  Si366  1  0.195142  0.694245  0.187782  1
  Si  Si367  1  0.073916  0.186147  0.144266  1
  Si  Si368  1  0.185143  0.331943  0.160715  1
  Si  Si369  1  0.772768  0.454931  0.662104  1
  Si  Si370  1  0.694764  0.799158  0.662093  1
  Si  Si371  1  0.685171  0.168258  0.606002  1
  Si  Si372  1  0.724271  0.950319  0.618634  1
  Si  Si373  1  0.878152  0.958555  0.619244  1
  Si  Si374  1  0.926470  0.173538  0.606528  1
  Si  Si375  1  0.804794  0.305644  0.618410  1
  Si  Si376  1  0.926023  0.813759  0.661922  1
  Si  Si377  1  0.814797  0.667961  0.645474  1
  Si  Si378  1  0.805176  0.299159  0.529089  1
  Si  Si379  1  0.923965  0.822763  0.573479  1
  Si  Si380  1  0.923971  0.822778  0.425205  1
  Si  Si381  1  0.814767  0.668259  0.585179  1
  Si  Si382  1  0.814776  0.668268  0.413506  1
  Si  Si383  1  0.775666  0.450321  0.572548  1
  Si  Si384  1  0.775670  0.450333  0.426139  1
  Si  Si385  1  0.695144  0.805645  0.572771  1
  Si  Si386  1  0.695153  0.805655  0.425913  1
  Si  Si387  1  0.685143  0.167969  0.452978  1
  Si  Si388  1  0.685144  0.167961  0.545708  1
  Si  Si389  1  0.727174  0.954941  0.469608  1
  Si  Si390  1  0.727172  0.954932  0.529077  1
  Si  Si391  1  0.880297  0.963170  0.469547  1
  Si  Si392  1  0.880295  0.963162  0.529139  1
  Si  Si393  1  0.927483  0.174844  0.452407  1
  Si  Si394  1  0.927481  0.174836  0.546278  1
  Si  Si395  1  0.805177  0.299165  0.469596  1
  Si  Si396  1  0.572459  0.674835  0.644904  1
  Si  Si397  1  0.575973  0.322763  0.617703  1
  Si  Si398  1  0.378154  0.541340  0.619248  1
  Si  Si399  1  0.426471  0.326361  0.606528  1
  Si  Si400  1  0.426024  0.686147  0.661923  1
  Si  Si401  1  0.619645  0.463161  0.662043  1
  Si  Si402  1  0.427483  0.325094  0.452407  1
  Si  Si403  1  0.427481  0.325065  0.546278  1
  Si  Si404  1  0.423971  0.677171  0.425208  1
  Si  Si405  1  0.423965  0.677128  0.573482  1
  Si  Si406  1  0.621785  0.458555  0.571938  1
  Si  Si407  1  0.621789  0.458569  0.426750  1
  Si  Si408  1  0.573468  0.673539  0.584654  1
  Si  Si409  1  0.573473  0.673551  0.414033  1
  Si  Si410  1  0.573918  0.313767  0.469426  1
  Si  Si411  1  0.573917  0.313757  0.529260  1
  Si  Si412  1  0.380294  0.536740  0.529139  1
  Si  Si413  1  0.380297  0.536768  0.469547  1
  Si  Si414  1  0.075974  0.177130  0.617700  1
  Si  Si415  1  0.185173  0.331636  0.606002  1
  Si  Si416  1  0.224272  0.549571  0.618638  1
  Si  Si417  1  0.304796  0.194245  0.618406  1
  Si  Si418  1  0.314796  0.831941  0.645474  1
  Si  Si419  1  0.272769  0.044972  0.662103  1
  Si  Si420  1  0.119646  0.036743  0.662043  1
  Si  Si421  1  0.072458  0.825069  0.644904  1
  Si  Si422  1  0.194763  0.700746  0.662093  1
  Si  Si423  1  0.227175  0.544996  0.469608  1
  Si  Si424  1  0.227172  0.544973  0.529078  1
  Si  Si425  1  0.305177  0.200773  0.469596  1
  Si  Si426  1  0.305176  0.200744  0.529088  1
  Si  Si427  1  0.314777  0.831679  0.413506  1
  Si  Si428  1  0.314766  0.831635  0.585179  1
  Si  Si429  1  0.275671  0.049617  0.426135  1
  Si  Si430  1  0.275665  0.049570  0.572543  1
  Si  Si431  1  0.121790  0.041377  0.426746  1
  Si  Si432  1  0.121784  0.041339  0.571934  1
  Si  Si433  1  0.073474  0.826390  0.414033  1
  Si  Si434  1  0.073468  0.826360  0.584653  1
  Si  Si435  1  0.195155  0.694297  0.425916  1
  Si  Si436  1  0.195142  0.694245  0.572775  1
  Si  Si437  1  0.073916  0.186147  0.529259  1
  Si  Si438  1  0.073918  0.186168  0.469425  1
  Si  Si439  1  0.185143  0.331943  0.545708  1
  Si  Si440  1  0.185143  0.331968  0.452978  1
  H  H441  1  0.718124  0.934209  0.096907  1
  H  H442  1  0.890612  0.943028  0.096907  1
  H  H443  1  0.802470  0.322975  0.096907  1
  H  H444  1  0.578251  0.335202  0.096908  1
  H  H445  1  0.390612  0.556892  0.096908  1
  H  H446  1  0.078250  0.164719  0.096906  1
  H  H447  1  0.218123  0.565712  0.096908  1
  H  H448  1  0.302473  0.176940  0.096906  1
  H  H449  1  0.921692  0.835202  0.709282  1
  H  H450  1  0.781819  0.434208  0.709282  1
  H  H451  1  0.697469  0.822980  0.709283  1
  H  H452  1  0.421692  0.664719  0.709283  1
  H  H453  1  0.609330  0.443028  0.709283  1
  H  H454  1  0.281819  0.065712  0.709281  1
  H  H455  1  0.109330  0.056892  0.709281  1
  H  H456  1  0.197473  0.676945  0.709283  1
