# generated using pymatgen
data_Si6H2O13
_symmetry_space_group_name_H-M   'P 1'
_cell_length_a   8.35857008
_cell_length_b   14.33942635
_cell_length_c   31.90766561
_cell_angle_alpha   90.00000000
_cell_angle_beta   90.00000000
_cell_angle_gamma   90.00000000
_symmetry_Int_Tables_number   1
_chemical_formula_structural   Si6H2O13
_chemical_formula_sum   'Si24 H8 O52'
_cell_volume   3824.36026927
_cell_formula_units_Z   4
loop_
 _symmetry_equiv_pos_site_id
 _symmetry_equiv_pos_as_xyz
  1  'x, y, z'
loop_
 _atom_site_type_symbol
 _atom_site_label
 _atom_site_symmetry_multiplicity
 _atom_site_fract_x
 _atom_site_fract_y
 _atom_site_fract_z
 _atom_site_occupancy
  O  O1  1  -0.000000  0.249450  0.340770  1
  O  O2  1  0.000000  0.749408  0.345814  1
  O  O3  1  0.500125  0.255918  0.428866  1
  O  O4  1  0.500131  0.754875  0.257655  1
  O  O5  1  -0.000000  0.444845  0.457969  1
  O  O6  1  0.000000  0.063572  0.453294  1
  O  O7  1  -0.000000  0.944474  0.229018  1
  O  O8  1  -0.000000  0.562586  0.233058  1
  O  O9  1  0.500124  0.427296  0.300376  1
  O  O10  1  0.500119  0.071192  0.300328  1
  O  O11  1  0.500127  0.927351  0.386278  1
  O  O12  1  0.500121  0.571034  0.386373  1
  O  O13  1  0.728388  0.249676  0.376436  1
  O  O14  1  0.271877  0.249670  0.376435  1
  O  O15  1  0.271931  0.749691  0.310147  1
  O  O16  1  0.728325  0.749698  0.310145  1
  O  O17  1  0.763327  0.339332  0.443740  1
  O  O18  1  0.250044  0.160228  0.444237  1
  O  O19  1  0.237711  0.839283  0.242799  1
  O  O20  1  0.751448  0.660214  0.242390  1
  O  O21  1  0.248814  0.660216  0.242393  1
  O  O22  1  0.762542  0.839277  0.242802  1
  O  O23  1  0.750210  0.160229  0.444237  1
  O  O24  1  0.236935  0.339333  0.443744  1
  O  O25  1  0.256290  0.959127  0.185416  1
  O  O26  1  0.743012  0.459133  0.501158  1
  O  O27  1  0.756293  0.540668  0.184909  1
  O  O28  1  0.242977  0.040720  0.501687  1
  O  O29  1  0.757278  0.040724  0.501687  1
  O  O30  1  0.243961  0.540663  0.184910  1
  O  O31  1  0.257248  0.459124  0.501156  1
  O  O32  1  0.743967  0.959132  0.185416  1
  O  O33  1  0.749935  0.508136  0.422637  1
  O  O34  1  0.252173  0.991015  0.423195  1
  O  O35  1  0.250780  0.008006  0.263946  1
  O  O36  1  0.747781  0.491050  0.263406  1
  O  O37  1  0.252475  0.491049  0.263406  1
  O  O38  1  0.749474  0.008005  0.263945  1
  O  O39  1  0.748083  0.991019  0.423194  1
  O  O40  1  0.250320  0.508136  0.422637  1
  O  O41  1  0.719205  0.499917  0.343070  1
  O  O42  1  0.281026  -0.000000  0.343539  1
  O  O43  1  0.281055  0.499918  0.343071  1
  O  O44  1  0.719231  -0.000000  0.343540  1
  O  O45  1  0.764538  0.341345  0.309959  1
  O  O46  1  0.236510  0.158164  0.310008  1
  O  O47  1  0.235728  0.841330  0.376638  1
  O  O48  1  0.763596  0.658208  0.376574  1
  O  O49  1  0.236666  0.658208  0.376572  1
  O  O50  1  0.764528  0.841332  0.376638  1
  O  O51  1  0.763754  0.158163  0.310003  1
  O  O52  1  0.235715  0.341343  0.309959  1
  Si  Si53  1  0.814570  0.439766  0.456577  1
  Si  Si54  1  0.185555  0.061791  0.455909  1
  Si  Si55  1  0.185695  0.939628  0.230075  1
  Si  Si56  1  0.814649  0.561563  0.230619  1
  Si  Si57  1  0.185591  0.561565  0.230620  1
  Si  Si58  1  0.814562  0.939618  0.230076  1
  Si  Si59  1  0.814695  0.061790  0.455909  1
  Si  Si60  1  0.185684  0.439770  0.456577  1
  Si  Si61  1  0.685199  0.439274  0.303163  1
  Si  Si62  1  0.314976  0.059907  0.303443  1
  Si  Si63  1  0.315034  0.939263  0.383453  1
  Si  Si64  1  0.685273  0.559931  0.383168  1
  Si  Si65  1  0.314972  0.559931  0.383168  1
  Si  Si66  1  0.685221  0.939263  0.383455  1
  Si  Si67  1  0.685267  0.059904  0.303443  1
  Si  Si68  1  0.315049  0.439274  0.303164  1
  Si  Si69  1  0.815420  0.249703  0.333205  1
  Si  Si70  1  0.184826  0.249703  0.333205  1
  Si  Si71  1  0.184844  0.749709  0.353373  1
  Si  Si72  1  0.815404  0.749711  0.353372  1
  Si  Si73  1  0.685637  0.251190  0.423866  1
  Si  Si74  1  0.314607  0.251195  0.423864  1
  Si  Si75  1  0.314578  0.750954  0.262708  1
  Si  Si76  1  0.685683  0.750946  0.262708  1
  H  H77  1  0.256290  0.959127  0.157210  1
  H  H78  1  0.743012  0.459133  0.529365  1
  H  H79  1  0.756293  0.540668  0.156702  1
  H  H80  1  0.242977  0.040720  0.529894  1
  H  H81  1  0.757278  0.040724  0.529894  1
  H  H82  1  0.243961  0.540663  0.156703  1
  H  H83  1  0.257248  0.459124  0.529363  1
  H  H84  1  0.743967  0.959132  0.157210  1
