# generated using pymatgen
data_Si11H2O23
_symmetry_space_group_name_H-M   'P 1'
_cell_length_a   5.06243706
_cell_length_b   11.18977051
_cell_length_c   40.99617114
_cell_angle_alpha   90.00000000
_cell_angle_beta   90.00000000
_cell_angle_gamma   90.00000000
_symmetry_Int_Tables_number   1
_chemical_formula_structural   Si11H2O23
_chemical_formula_sum   'Si22 H4 O46'
_cell_volume   2322.33097019
_cell_formula_units_Z   2
loop_
 _symmetry_equiv_pos_site_id
 _symmetry_equiv_pos_as_xyz
  1  'x, y, z'
loop_
 _atom_site_type_symbol
 _atom_site_label
 _atom_site_symmetry_multiplicity
 _atom_site_fract_x
 _atom_site_fract_y
 _atom_site_fract_z
 _atom_site_occupancy
  O  O1  1  0.009485  0.141682  0.547658  1
  O  O2  1  0.009861  0.141667  0.208414  1
  O  O3  1  0.509865  0.858160  0.282392  1
  O  O4  1  0.509433  0.858188  0.473688  1
  O  O5  1  0.290962  0.001774  0.513388  1
  O  O6  1  0.791219  0.998157  0.248123  1
  O  O7  1  0.291222  0.001674  0.242684  1
  O  O8  1  0.790961  0.998094  0.507959  1
  O  O9  1  0.009735  0.911989  0.558734  1
  O  O10  1  0.009806  0.911978  0.197344  1
  O  O11  1  0.509786  0.087851  0.293462  1
  O  O12  1  0.509773  0.087880  0.462612  1
  O  O13  1  0.248564  0.334448  0.568057  1
  O  O14  1  0.748121  0.328719  0.188977  1
  O  O15  1  0.248038  0.671124  0.301818  1
  O  O16  1  0.749228  0.665590  0.453322  1
  O  O17  1  0.249292  0.670783  0.454170  1
  O  O18  1  0.747975  0.665183  0.302823  1
  O  O19  1  0.248056  0.334626  0.187987  1
  O  O20  1  0.748630  0.328925  0.567129  1
  O  O21  1  0.005560  0.328961  0.514343  1
  O  O22  1  0.005473  0.328939  0.241729  1
  O  O23  1  0.505522  0.670891  0.249074  1
  O  O24  1  0.505625  0.670901  0.506998  1
  O  O25  1  0.006394  0.766132  0.610527  1
  O  O26  1  0.006300  0.766147  0.145546  1
  O  O27  1  0.506204  0.233693  0.345258  1
  O  O28  1  0.506372  0.233718  0.410815  1
  O  O29  1  0.216090  0.706960  0.556694  1
  O  O30  1  0.718379  0.728467  0.195329  1
  O  O31  1  0.218301  0.271348  0.295474  1
  O  O32  1  0.716118  0.292930  0.464640  1
  O  O33  1  0.218375  0.271387  0.460594  1
  O  O34  1  0.716046  0.292904  0.291436  1
  O  O35  1  0.216125  0.706932  0.199367  1
  O  O36  1  0.718347  0.728467  0.560753  1
  O  O37  1  0.508796  0.522807  0.554673  1
  O  O38  1  0.508874  0.522789  0.201400  1
  O  O39  1  0.008833  0.477035  0.289404  1
  O  O40  1  0.008932  0.477063  0.466669  1
  O  O41  1  0.509298  0.451902  0.612159  1
  O  O42  1  0.509508  0.451888  0.143916  1
  O  O43  1  0.009534  0.547945  0.346888  1
  O  O44  1  0.009152  0.547952  0.409182  1
  O  O45  1  0.724627  0.399042  0.378017  1
  O  O46  1  0.227189  0.378299  0.378051  1
  Si  Si47  1  0.024980  0.013660  0.532358  1
  Si  Si48  1  0.025231  0.013647  0.223718  1
  Si  Si49  1  0.525230  0.986182  0.267088  1
  Si  Si50  1  0.524979  0.986211  0.488988  1
  Si  Si51  1  0.003426  0.281316  0.550151  1
  Si  Si52  1  0.003254  0.281296  0.205921  1
  Si  Si53  1  0.503223  0.718531  0.284882  1
  Si  Si54  1  0.503752  0.718553  0.471192  1
  Si  Si55  1  0.987889  0.781288  0.572339  1
  Si  Si56  1  0.987903  0.781285  0.183736  1
  Si  Si57  1  0.487835  0.218546  0.307069  1
  Si  Si58  1  0.487915  0.218576  0.449005  1
  Si  Si59  1  0.487400  0.657371  0.544776  1
  Si  Si60  1  0.487414  0.657355  0.211296  1
  Si  Si61  1  0.987347  0.342471  0.279508  1
  Si  Si62  1  0.987428  0.342500  0.476565  1
  Si  Si63  1  0.503695  0.406876  0.576081  1
  Si  Si64  1  0.503530  0.406856  0.179994  1
  Si  Si65  1  0.003491  0.592971  0.310809  1
  Si  Si66  1  0.004024  0.592988  0.445260  1
  Si  Si67  1  0.992228  0.468126  0.378035  1
  Si  Si68  1  0.492415  0.307171  0.378035  1
  H  H69  1  0.006394  0.766132  0.632481  1
  H  H70  1  0.006300  0.766147  0.123593  1
  H  H71  1  0.509298  0.451902  0.634112  1
  H  H72  1  0.509508  0.451888  0.121963  1
