# generated using pymatgen
data_Si8H2O17
_symmetry_space_group_name_H-M   'P 1'
_cell_length_a   14.18479336
_cell_length_b   9.93846944
_cell_length_c   34.41659011
_cell_angle_alpha   119.65059947
_cell_angle_beta   90.00000000
_cell_angle_gamma   90.00000000
_symmetry_Int_Tables_number   1
_chemical_formula_structural   Si8H2O17
_chemical_formula_sum   'Si48 H12 O102'
_cell_volume   4216.56995438
_cell_formula_units_Z   6
loop_
 _symmetry_equiv_pos_site_id
 _symmetry_equiv_pos_as_xyz
  1  'x, y, z'
loop_
 _atom_site_type_symbol
 _atom_site_label
 _atom_site_symmetry_multiplicity
 _atom_site_fract_x
 _atom_site_fract_y
 _atom_site_fract_z
 _atom_site_occupancy
  Si  Si1  1  0.792338  0.330298  0.246676  1
  Si  Si2  1  0.706307  0.828368  0.273696  1
  Si  Si3  1  0.207604  0.329098  0.246509  1
  Si  Si4  1  0.294358  0.827175  0.273522  1
  Si  Si5  1  0.500044  0.102594  0.267477  1
  Si  Si6  1  0.000044  0.397591  0.238191  1
  Si  Si7  1  0.794358  0.673009  0.322926  1
  Si  Si8  1  0.792338  0.330298  0.389533  1
  Si  Si9  1  0.707604  0.171086  0.295364  1
  Si  Si10  1  0.706307  0.828368  0.416553  1
  Si  Si11  1  0.207604  0.329098  0.389366  1
  Si  Si12  1  0.206307  0.671817  0.322761  1
  Si  Si13  1  0.294358  0.827175  0.416379  1
  Si  Si14  1  0.292339  0.169887  0.295189  1
  Si  Si15  1  0.500044  0.102594  0.410334  1
  Si  Si16  1  0.500270  0.884891  0.306201  1
  Si  Si17  1  0.000269  0.615293  0.339116  1
  Si  Si18  1  0.000044  0.397591  0.381048  1
  O  O19  1  0.731432  0.721273  0.222771  1
  O  O20  1  0.730069  0.280139  0.203684  1
  O  O21  1  0.769798  0.221366  0.266718  1
  O  O22  1  0.269799  0.278818  0.203498  1
  O  O23  1  0.269310  0.719946  0.222584  1
  O  O24  1  0.230068  0.220045  0.266528  1
  O  O25  1  0.899363  0.318369  0.230901  1
  O  O26  1  0.600550  0.182429  0.282922  1
  O  O27  1  0.599506  0.811277  0.285040  1
  O  O28  1  0.100550  0.317756  0.230826  1
  O  O29  1  0.401197  0.810678  0.284946  1
  O  O30  1  0.399363  0.181815  0.282822  1
  O  O31  1  0.774472  0.501802  0.284918  1
  O  O32  1  0.725831  0.999696  0.284637  1
  O  O33  1  0.225831  0.500488  0.284751  1
  O  O34  1  0.274472  0.998382  0.284430  1
  O  O35  1  0.500185  0.972297  0.216227  1
  O  O36  1  0.000185  0.527887  0.224168  1
  O  O37  1  0.731432  0.721273  0.365628  1
  O  O38  1  0.730069  0.280139  0.346541  1
  O  O39  1  0.769798  0.221366  0.409576  1
  O  O40  1  0.769310  0.780239  0.302625  1
  O  O41  1  0.269799  0.278818  0.346355  1
  O  O42  1  0.269310  0.719946  0.365441  1
  O  O43  1  0.231432  0.778912  0.302433  1
  O  O44  1  0.230068  0.220045  0.409385  1
  O  O45  1  0.901196  0.689507  0.339064  1
  O  O46  1  0.899363  0.318369  0.373758  1
  O  O47  1  0.600550  0.182429  0.425779  1
  O  O48  1  0.599506  0.811277  0.427897  1
  O  O49  1  0.100550  0.317756  0.373683  1
  O  O50  1  0.099506  0.688907  0.338987  1
  O  O51  1  0.401197  0.810678  0.427803  1
  O  O52  1  0.399363  0.181815  0.425679  1
  O  O53  1  0.774472  0.501802  0.427776  1
  O  O54  1  0.725831  0.999696  0.427494  1
  O  O55  1  0.225831  0.500488  0.427608  1
  O  O56  1  0.274472  0.998382  0.427287  1
  O  O57  1  0.500128  0.016424  0.294679  1
  O  O58  1  0.000127  0.483760  0.290013  1
  O  O59  1  0.500185  0.972297  0.359084  1
  O  O60  1  0.000185  0.527887  0.367025  1
  H  H61  1  0.731432  0.721273  0.196620  1
  H  H62  1  0.730069  0.280139  0.177534  1
  H  H63  1  0.269799  0.278818  0.177348  1
  H  H64  1  0.269310  0.719946  0.196434  1
  H  H65  1  0.500185  0.972297  0.190077  1
  H  H66  1  0.000185  0.527887  0.198018  1
  O  O67  1  0.731432  0.721273  0.508485  1
  O  O68  1  0.730069  0.280139  0.489398  1
  O  O69  1  0.769798  0.221366  0.552433  1
  O  O70  1  0.769310  0.780239  0.445482  1
  O  O71  1  0.269799  0.278818  0.489212  1
  O  O72  1  0.269310  0.719946  0.508298  1
  O  O73  1  0.231432  0.778912  0.445291  1
  O  O74  1  0.230068  0.220045  0.552242  1
  O  O75  1  0.901196  0.689507  0.481921  1
  O  O76  1  0.899363  0.318369  0.516615  1
  O  O77  1  0.600550  0.182429  0.568637  1
  O  O78  1  0.599506  0.811277  0.570754  1
  O  O79  1  0.100550  0.317756  0.516541  1
  O  O80  1  0.099506  0.688907  0.481844  1
  O  O81  1  0.401197  0.810678  0.570660  1
  O  O82  1  0.399363  0.181815  0.568536  1
  O  O83  1  0.774472  0.501802  0.570633  1
  O  O84  1  0.725831  0.999696  0.570351  1
  O  O85  1  0.225831  0.500488  0.570465  1
  O  O86  1  0.274472  0.998382  0.570144  1
  O  O87  1  0.500128  0.016424  0.437536  1
  O  O88  1  0.000127  0.483760  0.432870  1
  O  O89  1  0.500185  0.972297  0.501941  1
  O  O90  1  0.000185  0.527887  0.509882  1
  Si  Si91  1  0.794358  0.673009  0.465784  1
  Si  Si92  1  0.792338  0.330298  0.532390  1
  Si  Si93  1  0.707604  0.171086  0.438221  1
  Si  Si94  1  0.706307  0.828368  0.559411  1
  Si  Si95  1  0.207604  0.329098  0.532223  1
  Si  Si96  1  0.206307  0.671817  0.465618  1
  Si  Si97  1  0.294358  0.827175  0.559236  1
  Si  Si98  1  0.292339  0.169887  0.438046  1
  Si  Si99  1  0.500044  0.102594  0.553191  1
  Si  Si100  1  0.500270  0.884891  0.449058  1
  Si  Si101  1  0.000269  0.615293  0.481973  1
  Si  Si102  1  0.000044  0.397591  0.523905  1
  Si  Si103  1  0.794358  0.673009  0.608641  1
  Si  Si104  1  0.792338  0.330298  0.675247  1
  Si  Si105  1  0.707604  0.171086  0.581079  1
  Si  Si106  1  0.706307  0.828368  0.702268  1
  Si  Si107  1  0.207604  0.329098  0.675081  1
  Si  Si108  1  0.206307  0.671817  0.608475  1
  Si  Si109  1  0.294358  0.827175  0.702093  1
  Si  Si110  1  0.292339  0.169887  0.580903  1
  Si  Si111  1  0.500044  0.102594  0.696048  1
  Si  Si112  1  0.500270  0.884891  0.591915  1
  Si  Si113  1  0.000269  0.615293  0.624830  1
  Si  Si114  1  0.000044  0.397591  0.666762  1
  Si  Si115  1  0.794358  0.673009  0.751498  1
  Si  Si116  1  0.707604  0.171086  0.723936  1
  Si  Si117  1  0.206307  0.671817  0.751332  1
  Si  Si118  1  0.292339  0.169887  0.723760  1
  Si  Si119  1  0.500270  0.884891  0.734773  1
  Si  Si120  1  0.000269  0.615293  0.767687  1
  O  O121  1  0.731432  0.721273  0.651342  1
  O  O122  1  0.730069  0.280139  0.632255  1
  O  O123  1  0.769798  0.221366  0.695290  1
  O  O124  1  0.769310  0.780239  0.588340  1
  O  O125  1  0.269799  0.278818  0.632069  1
  O  O126  1  0.269310  0.719946  0.651155  1
  O  O127  1  0.231432  0.778912  0.588148  1
  O  O128  1  0.230068  0.220045  0.695099  1
  O  O129  1  0.901196  0.689507  0.624778  1
  O  O130  1  0.899363  0.318369  0.659472  1
  O  O131  1  0.600550  0.182429  0.711494  1
  O  O132  1  0.599506  0.811277  0.713611  1
  O  O133  1  0.100550  0.317756  0.659398  1
  O  O134  1  0.099506  0.688907  0.624702  1
  O  O135  1  0.401197  0.810678  0.713517  1
  O  O136  1  0.399363  0.181815  0.711393  1
  O  O137  1  0.774472  0.501802  0.713490  1
  O  O138  1  0.725831  0.999696  0.713209  1
  O  O139  1  0.225831  0.500488  0.713322  1
  O  O140  1  0.274472  0.998382  0.713002  1
  O  O141  1  0.500128  0.016424  0.580393  1
  O  O142  1  0.000127  0.483760  0.575727  1
  O  O143  1  0.500185  0.972297  0.644798  1
  O  O144  1  0.000185  0.527887  0.652740  1
  O  O145  1  0.731432  0.721273  0.794199  1
  O  O146  1  0.730069  0.280139  0.775112  1
  O  O147  1  0.769310  0.780239  0.731197  1
  O  O148  1  0.269799  0.278818  0.774926  1
  O  O149  1  0.269310  0.719946  0.794012  1
  O  O150  1  0.231432  0.778912  0.731005  1
  O  O151  1  0.901196  0.689507  0.767636  1
  O  O152  1  0.099506  0.688907  0.767559  1
  O  O153  1  0.500128  0.016424  0.723250  1
  O  O154  1  0.000127  0.483760  0.718584  1
  O  O155  1  0.500185  0.972297  0.787655  1
  O  O156  1  0.000185  0.527887  0.795597  1
  H  H157  1  0.731432  0.721273  0.820349  1
  H  H158  1  0.730069  0.280139  0.801262  1
  H  H159  1  0.269799  0.278818  0.801076  1
  H  H160  1  0.269310  0.719946  0.820162  1
  H  H161  1  0.500185  0.972297  0.813805  1
  H  H162  1  0.000185  0.527887  0.821747  1
