# generated using pymatgen
data_Si108H2O217
_symmetry_space_group_name_H-M   'P 1'
_cell_length_a   14.29860979
_cell_length_b   14.30928535
_cell_length_c   96.03563533
_cell_angle_alpha   90.00000000
_cell_angle_beta   90.00000000
_cell_angle_gamma   120.00000000
_symmetry_Int_Tables_number   1
_chemical_formula_structural   Si108H2O217
_chemical_formula_sum   'Si216 H4 O434'
_cell_volume   17016.6789106
_cell_formula_units_Z   2
loop_
 _symmetry_equiv_pos_site_id
 _symmetry_equiv_pos_as_xyz
  1  'x, y, z'
loop_
 _atom_site_type_symbol
 _atom_site_label
 _atom_site_symmetry_multiplicity
 _atom_site_fract_x
 _atom_site_fract_y
 _atom_site_fract_z
 _atom_site_occupancy
  O  O1  1  0.662804  0.330763  0.061436  1
  O  O2  1  0.548629  0.274174  0.084286  1
  O  O3  1  0.725474  0.274278  0.084065  1
  O  O4  1  0.725348  0.450693  0.084031  1
  O  O5  1  0.404733  0.107695  0.098863  1
  O  O6  1  0.892391  0.297040  0.098703  1
  O  O7  1  0.297320  0.405078  0.098683  1
  O  O8  1  0.703181  0.107877  0.098693  1
  O  O9  1  0.404815  0.296909  0.098896  1
  O  O10  1  0.108048  0.404931  0.098666  1
  O  O11  1  0.550272  0.274891  0.110220  1
  O  O12  1  0.725172  0.274996  0.110008  1
  O  O13  1  0.725065  0.449613  0.109975  1
  O  O14  1  0.669696  0.334994  0.132912  1
  O  O15  1  0.000000  0.378554  0.121211  1
  O  O16  1  0.378423  0.379386  0.121262  1
  O  O17  1  0.500226  0.499960  0.102434  1
  O  O18  1  0.395921  0.104905  0.142903  1
  O  O19  1  0.895402  0.290601  0.142968  1
  O  O20  1  0.290923  0.395497  0.143098  1
  O  O21  1  0.709821  0.104938  0.142994  1
  O  O22  1  0.395887  0.290477  0.142899  1
  O  O23  1  0.105326  0.395533  0.142991  1
  O  O24  1  0.621831  -0.000000  0.121212  1
  O  O25  1  0.500325  0.499869  0.140278  1
  O  O26  1  0.000000  0.499765  0.102409  1
  O  O27  1  0.000000  0.499912  0.140223  1
  O  O28  1  0.545582  0.272509  0.153604  1
  O  O29  1  0.727738  0.272419  0.153778  1
  O  O30  1  0.727744  0.454730  0.153832  1
  O  O31  1  0.545200  0.272615  0.226953  1
  O  O32  1  0.727457  0.272746  0.226735  1
  O  O33  1  0.727221  0.454958  0.226718  1
  O  O34  1  0.353206  0.176277  0.164751  1
  O  O35  1  0.824257  0.176215  0.164802  1
  O  O36  1  0.175908  0.352129  0.164857  1
  O  O37  1  0.175762  0.351796  0.215724  1
  O  O38  1  0.353097  0.176766  0.215777  1
  O  O39  1  0.824052  0.176457  0.215717  1
  O  O40  1  0.000000  0.177955  0.171485  1
  O  O41  1  0.179733  0.179052  0.171456  1
  O  O42  1  0.179256  0.178551  0.209076  1
  O  O43  1  0.000000  0.177859  0.209074  1
  O  O44  1  0.277272  0.138389  0.190259  1
  O  O45  1  0.861735  0.137757  0.190269  1
  O  O46  1  0.138113  0.275657  0.190286  1
  O  O47  1  0.179620  -0.000000  0.171457  1
  O  O48  1  0.180058  -0.000000  0.209076  1
  O  O49  1  0.548272  0.274006  0.296264  1
  O  O50  1  0.725051  0.274085  0.296458  1
  O  O51  1  0.724937  0.450570  0.296513  1
  O  O52  1  0.297077  0.405184  0.281884  1
  O  O53  1  0.404285  0.107701  0.281659  1
  O  O54  1  0.891957  0.296873  0.281834  1
  O  O55  1  0.107692  0.404821  0.281892  1
  O  O56  1  0.702669  0.107804  0.281776  1
  O  O57  1  0.404556  0.297003  0.281675  1
  O  O58  1  0.549909  0.274977  0.270326  1
  O  O59  1  0.724841  0.275127  0.270519  1
  O  O60  1  0.724707  0.449718  0.270569  1
  O  O61  1  0.669319  0.335009  0.247628  1
  O  O62  1  0.378248  0.379520  0.259311  1
  O  O63  1  -0.000000  0.378417  0.259346  1
  O  O64  1  0.290517  0.395702  0.237507  1
  O  O65  1  0.395137  0.104950  0.237624  1
  O  O66  1  0.894687  0.290345  0.237599  1
  O  O67  1  0.104608  0.395183  0.237546  1
  O  O68  1  0.708933  0.104886  0.237468  1
  O  O69  1  0.395527  0.290744  0.237651  1
  O  O70  1  0.621062  -0.000000  0.259249  1
  O  O71  1  0.000000  0.499641  0.240342  1
  O  O72  1  0.000000  0.499630  0.278160  1
  O  O73  1  0.451574  0.725624  0.084262  1
  O  O74  1  0.274761  0.725531  0.084112  1
  O  O75  1  0.274844  0.549084  0.084008  1
  O  O76  1  0.703141  0.594851  0.098700  1
  O  O77  1  0.595486  0.892113  0.098842  1
  O  O78  1  0.107882  0.702595  0.098738  1
  O  O79  1  0.892253  0.594636  0.098676  1
  O  O80  1  0.297029  0.891899  0.098737  1
  O  O81  1  0.595523  0.702974  0.098863  1
  O  O82  1  0.450058  0.724828  0.110199  1
  O  O83  1  0.275201  0.724785  0.110051  1
  O  O84  1  0.275193  0.550125  0.109954  1
  O  O85  1  0.330891  0.664354  0.132912  1
  O  O86  1  0.378768  -0.000000  0.121232  1
  O  O87  1  0.621908  0.620658  0.121252  1
  O  O88  1  0.336806  0.669661  0.061436  1
  O  O89  1  0.000000  0.620909  0.121217  1
  O  O90  1  0.500145  -0.000000  0.102384  1
  O  O91  1  0.500373  -0.000000  0.140247  1
  O  O92  1  0.709745  0.604270  0.143041  1
  O  O93  1  0.604726  0.894891  0.142881  1
  O  O94  1  0.105282  0.709292  0.142937  1
  O  O95  1  0.895375  0.604222  0.143018  1
  O  O96  1  0.290899  0.894923  0.143005  1
  O  O97  1  0.604666  0.709243  0.142918  1
  O  O98  1  0.454895  0.727319  0.153595  1
  O  O99  1  0.272758  0.727359  0.153763  1
  O  O100  1  0.272726  0.545031  0.153858  1
  O  O101  1  0.454289  0.726988  0.226914  1
  O  O102  1  0.272259  0.727237  0.226802  1
  O  O103  1  0.271964  0.544799  0.226689  1
  O  O104  1  0.824209  0.647547  0.164842  1
  O  O105  1  0.647102  0.823420  0.164752  1
  O  O106  1  0.176152  0.823556  0.164792  1
  O  O107  1  0.646673  0.823139  0.215763  1
  O  O108  1  0.175490  0.822997  0.215733  1
  O  O109  1  0.824384  0.647875  0.215724  1
  O  O110  1  0.820602  0.820729  0.171463  1
  O  O111  1  0.000000  0.821520  0.171464  1
  O  O112  1  0.000000  0.822026  0.209051  1
  O  O113  1  0.820457  0.820844  0.209081  1
  O  O114  1  0.861994  0.723950  0.190278  1
  O  O115  1  0.722799  0.861260  0.190267  1
  O  O116  1  0.138370  0.861902  0.190258  1
  O  O117  1  0.820042  -0.000000  0.209085  1
  O  O118  1  0.820513  -0.000000  0.171472  1
  O  O119  1  0.451332  0.725782  0.296261  1
  O  O120  1  0.274553  0.725667  0.296435  1
  O  O121  1  0.274538  0.549182  0.296538  1
  O  O122  1  0.595057  0.892188  0.281633  1
  O  O123  1  0.107527  0.702510  0.281828  1
  O  O124  1  0.702895  0.594964  0.281862  1
  O  O125  1  0.296576  0.891897  0.281791  1
  O  O126  1  0.595269  0.703147  0.281671  1
  O  O127  1  0.891912  0.594544  0.281896  1
  O  O128  1  0.449620  0.724743  0.270329  1
  O  O129  1  0.274770  0.724746  0.270488  1
  O  O130  1  0.274748  0.550075  0.270596  1
  O  O131  1  0.330498  0.664128  0.247628  1
  O  O132  1  0.499464  0.000000  0.240236  1
  O  O133  1  0.000000  0.620748  0.259355  1
  O  O134  1  0.378062  -0.000000  0.259282  1
  O  O135  1  0.621718  0.620776  0.259303  1
  O  O136  1  0.603904  0.894902  0.237578  1
  O  O137  1  0.104629  0.708985  0.237614  1
  O  O138  1  0.709407  0.604651  0.237486  1
  O  O139  1  0.290010  0.894849  0.237519  1
  O  O140  1  0.604181  0.709453  0.237647  1
  O  O141  1  0.894767  0.604058  0.237575  1
  O  O142  1  0.499615  -0.000000  0.278105  1
  O  O143  1  0.500016  0.500105  0.278135  1
  O  O144  1  0.499988  0.500098  0.240287  1
  O  O145  1  0.662804  0.330763  0.319103  1
  O  O146  1  0.548629  0.274174  0.341953  1
  O  O147  1  0.725474  0.274278  0.341731  1
  O  O148  1  0.725348  0.450693  0.341698  1
  O  O149  1  0.404733  0.107695  0.356530  1
  O  O150  1  0.892391  0.297040  0.356370  1
  O  O151  1  0.297320  0.405078  0.356350  1
  O  O152  1  0.703181  0.107877  0.356360  1
  O  O153  1  0.404815  0.296909  0.356562  1
  O  O154  1  0.108048  0.404931  0.356333  1
  O  O155  1  0.550272  0.274891  0.367887  1
  O  O156  1  0.725172  0.274996  0.367675  1
  O  O157  1  0.725065  0.449613  0.367642  1
  O  O158  1  0.669696  0.334994  0.390578  1
  O  O159  1  -0.000000  0.378554  0.378877  1
  O  O160  1  0.378423  0.379386  0.378929  1
  O  O161  1  0.500226  0.499960  0.360101  1
  O  O162  1  0.395921  0.104905  0.400570  1
  O  O163  1  0.895402  0.290601  0.400634  1
  O  O164  1  0.290923  0.395497  0.400765  1
  O  O165  1  0.709821  0.104938  0.400661  1
  O  O166  1  0.395887  0.290477  0.400566  1
  O  O167  1  0.105326  0.395533  0.400658  1
  O  O168  1  0.621831  -0.000000  0.378879  1
  O  O169  1  0.500325  0.499869  0.397945  1
  O  O170  1  0.000000  0.499765  0.360076  1
  O  O171  1  0.000000  0.499912  0.397889  1
  O  O172  1  0.545582  0.272509  0.411271  1
  O  O173  1  0.727738  0.272419  0.411445  1
  O  O174  1  0.727744  0.454730  0.411499  1
  O  O175  1  0.545200  0.272615  0.484620  1
  O  O176  1  0.727457  0.272746  0.484402  1
  O  O177  1  0.727221  0.454958  0.484384  1
  O  O178  1  0.353206  0.176277  0.422418  1
  O  O179  1  0.824257  0.176215  0.422469  1
  O  O180  1  0.175908  0.352129  0.422523  1
  O  O181  1  0.175762  0.351796  0.473391  1
  O  O182  1  0.353097  0.176766  0.473444  1
  O  O183  1  0.824052  0.176457  0.473384  1
  O  O184  1  -0.000000  0.177955  0.429151  1
  O  O185  1  0.179733  0.179052  0.429122  1
  O  O186  1  0.179256  0.178551  0.466743  1
  O  O187  1  0.000000  0.177859  0.466741  1
  O  O188  1  0.277272  0.138389  0.447926  1
  O  O189  1  0.861735  0.137757  0.447936  1
  O  O190  1  0.138113  0.275657  0.447953  1
  O  O191  1  0.179620  -0.000000  0.429124  1
  O  O192  1  0.180058  -0.000000  0.466743  1
  O  O193  1  0.548272  0.274006  0.553930  1
  O  O194  1  0.725051  0.274085  0.554125  1
  O  O195  1  0.724937  0.450570  0.554180  1
  O  O196  1  0.297077  0.405184  0.539551  1
  O  O197  1  0.404285  0.107701  0.539325  1
  O  O198  1  0.891957  0.296873  0.539501  1
  O  O199  1  0.107692  0.404821  0.539559  1
  O  O200  1  0.702669  0.107804  0.539442  1
  O  O201  1  0.404556  0.297003  0.539342  1
  O  O202  1  0.549909  0.274977  0.527993  1
  O  O203  1  0.724841  0.275127  0.528185  1
  O  O204  1  0.724707  0.449718  0.528236  1
  O  O205  1  0.669319  0.335009  0.505295  1
  O  O206  1  0.378248  0.379520  0.516978  1
  O  O207  1  0.000000  0.378417  0.517013  1
  O  O208  1  0.290517  0.395702  0.495173  1
  O  O209  1  0.395137  0.104950  0.495291  1
  O  O210  1  0.894687  0.290345  0.495266  1
  O  O211  1  0.104608  0.395183  0.495213  1
  O  O212  1  0.708933  0.104886  0.495135  1
  O  O213  1  0.395527  0.290744  0.495318  1
  O  O214  1  0.621062  -0.000000  0.516916  1
  O  O215  1  0.000000  0.499641  0.498008  1
  O  O216  1  -0.000000  0.499630  0.535826  1
  O  O217  1  0.451574  0.725624  0.341928  1
  O  O218  1  0.274761  0.725531  0.341779  1
  O  O219  1  0.274844  0.549084  0.341675  1
  O  O220  1  0.703141  0.594851  0.356367  1
  O  O221  1  0.595486  0.892113  0.356509  1
  O  O222  1  0.107882  0.702595  0.356404  1
  O  O223  1  0.892253  0.594636  0.356342  1
  O  O224  1  0.297029  0.891899  0.356404  1
  O  O225  1  0.595523  0.702974  0.356529  1
  O  O226  1  0.450058  0.724828  0.367866  1
  O  O227  1  0.275201  0.724785  0.367718  1
  O  O228  1  0.275193  0.550125  0.367621  1
  O  O229  1  0.330891  0.664354  0.390579  1
  O  O230  1  0.378768  -0.000000  0.378899  1
  O  O231  1  0.621908  0.620658  0.378919  1
  O  O232  1  0.336806  0.669661  0.319102  1
  O  O233  1  0.000000  0.620909  0.378884  1
  O  O234  1  0.500145  0.000000  0.360051  1
  O  O235  1  0.500373  -0.000000  0.397914  1
  O  O236  1  0.709745  0.604270  0.400707  1
  O  O237  1  0.604726  0.894891  0.400547  1
  O  O238  1  0.105282  0.709292  0.400604  1
  O  O239  1  0.895375  0.604222  0.400684  1
  O  O240  1  0.290899  0.894923  0.400672  1
  O  O241  1  0.604666  0.709243  0.400585  1
  O  O242  1  0.454895  0.727319  0.411261  1
  O  O243  1  0.272758  0.727359  0.411429  1
  O  O244  1  0.272726  0.545031  0.411525  1
  O  O245  1  0.454289  0.726988  0.484581  1
  O  O246  1  0.272259  0.727237  0.484469  1
  O  O247  1  0.271964  0.544799  0.484355  1
  O  O248  1  0.824209  0.647547  0.422509  1
  O  O249  1  0.647102  0.823420  0.422418  1
  O  O250  1  0.176152  0.823556  0.422459  1
  O  O251  1  0.646673  0.823139  0.473430  1
  O  O252  1  0.175490  0.822997  0.473400  1
  O  O253  1  0.824384  0.647875  0.473391  1
  O  O254  1  0.820602  0.820729  0.429129  1
  O  O255  1  -0.000000  0.821520  0.429131  1
  O  O256  1  0.000000  0.822026  0.466717  1
  O  O257  1  0.820457  0.820844  0.466748  1
  O  O258  1  0.861994  0.723950  0.447945  1
  O  O259  1  0.722799  0.861260  0.447934  1
  O  O260  1  0.138370  0.861902  0.447924  1
  O  O261  1  0.820042  -0.000000  0.466752  1
  O  O262  1  0.820513  -0.000000  0.429139  1
  O  O263  1  0.451332  0.725782  0.553928  1
  O  O264  1  0.274553  0.725667  0.554101  1
  O  O265  1  0.274538  0.549182  0.554205  1
  O  O266  1  0.595057  0.892188  0.539300  1
  O  O267  1  0.107527  0.702510  0.539495  1
  O  O268  1  0.702895  0.594964  0.539529  1
  O  O269  1  0.296576  0.891897  0.539458  1
  O  O270  1  0.595269  0.703147  0.539338  1
  O  O271  1  0.891912  0.594544  0.539563  1
  O  O272  1  0.449620  0.724743  0.527995  1
  O  O273  1  0.274770  0.724746  0.528155  1
  O  O274  1  0.274748  0.550075  0.528263  1
  O  O275  1  0.330498  0.664128  0.505295  1
  O  O276  1  0.499464  -0.000000  0.497903  1
  O  O277  1  -0.000000  0.620748  0.517022  1
  O  O278  1  0.378062  -0.000000  0.516949  1
  O  O279  1  0.621718  0.620776  0.516970  1
  O  O280  1  0.603904  0.894902  0.495245  1
  O  O281  1  0.104629  0.708985  0.495281  1
  O  O282  1  0.709407  0.604651  0.495153  1
  O  O283  1  0.290010  0.894849  0.495185  1
  O  O284  1  0.604181  0.709453  0.495314  1
  O  O285  1  0.894767  0.604058  0.495242  1
  O  O286  1  0.499615  -0.000000  0.535772  1
  O  O287  1  0.500016  0.500105  0.535801  1
  O  O288  1  0.499988  0.500098  0.497953  1
  O  O289  1  0.662804  0.330763  0.576770  1
  O  O290  1  0.548629  0.274174  0.599620  1
  O  O291  1  0.725474  0.274278  0.599398  1
  O  O292  1  0.725348  0.450693  0.599365  1
  O  O293  1  0.404733  0.107695  0.614197  1
  O  O294  1  0.892391  0.297040  0.614037  1
  O  O295  1  0.297320  0.405078  0.614016  1
  O  O296  1  0.703181  0.107877  0.614026  1
  O  O297  1  0.404815  0.296909  0.614229  1
  O  O298  1  0.108048  0.404931  0.613999  1
  O  O299  1  0.550272  0.274891  0.625554  1
  O  O300  1  0.725172  0.274996  0.625342  1
  O  O301  1  0.725065  0.449613  0.625308  1
  O  O302  1  0.669696  0.334994  0.648245  1
  O  O303  1  0.000000  0.378554  0.636544  1
  O  O304  1  0.378423  0.379386  0.636596  1
  O  O305  1  0.500226  0.499960  0.617768  1
  O  O306  1  0.395921  0.104905  0.658236  1
  O  O307  1  0.895402  0.290601  0.658301  1
  O  O308  1  0.290923  0.395497  0.658431  1
  O  O309  1  0.709821  0.104938  0.658327  1
  O  O310  1  0.395887  0.290477  0.658232  1
  O  O311  1  0.105326  0.395533  0.658324  1
  O  O312  1  0.621831  -0.000000  0.636546  1
  O  O313  1  0.500325  0.499869  0.655612  1
  O  O314  1  0.000000  0.499765  0.617743  1
  O  O315  1  0.000000  0.499912  0.655556  1
  O  O316  1  0.545582  0.272509  0.668937  1
  O  O317  1  0.727738  0.272419  0.669111  1
  O  O318  1  0.727744  0.454730  0.669166  1
  O  O319  1  0.545200  0.272615  0.742286  1
  O  O320  1  0.727457  0.272746  0.742069  1
  O  O321  1  0.727221  0.454958  0.742051  1
  O  O322  1  0.353206  0.176277  0.680085  1
  O  O323  1  0.824257  0.176215  0.680136  1
  O  O324  1  0.175908  0.352129  0.680190  1
  O  O325  1  0.175762  0.351796  0.731057  1
  O  O326  1  0.353097  0.176766  0.731110  1
  O  O327  1  0.824052  0.176457  0.731051  1
  O  O328  1  0.000000  0.177955  0.686818  1
  O  O329  1  0.179733  0.179052  0.686789  1
  O  O330  1  0.179256  0.178551  0.724409  1
  O  O331  1  0.000000  0.177859  0.724408  1
  O  O332  1  0.277272  0.138389  0.705593  1
  O  O333  1  0.861735  0.137757  0.705603  1
  O  O334  1  0.138113  0.275657  0.705620  1
  O  O335  1  0.179620  -0.000000  0.686790  1
  O  O336  1  0.180058  -0.000000  0.724409  1
  O  O337  1  0.548272  0.274006  0.811597  1
  O  O338  1  0.725051  0.274085  0.811791  1
  O  O339  1  0.724937  0.450570  0.811846  1
  O  O340  1  0.297077  0.405184  0.797218  1
  O  O341  1  0.404285  0.107701  0.796992  1
  O  O342  1  0.891957  0.296873  0.797168  1
  O  O343  1  0.107692  0.404821  0.797226  1
  O  O344  1  0.702669  0.107804  0.797109  1
  O  O345  1  0.404556  0.297003  0.797009  1
  O  O346  1  0.549909  0.274977  0.785659  1
  O  O347  1  0.724841  0.275127  0.785852  1
  O  O348  1  0.724707  0.449718  0.785903  1
  O  O349  1  0.669319  0.335009  0.762961  1
  O  O350  1  0.378248  0.379520  0.774645  1
  O  O351  1  0.000000  0.378417  0.774680  1
  O  O352  1  0.290517  0.395702  0.752840  1
  O  O353  1  0.395137  0.104950  0.752958  1
  O  O354  1  0.894687  0.290345  0.752933  1
  O  O355  1  0.104608  0.395183  0.752880  1
  O  O356  1  0.708933  0.104886  0.752802  1
  O  O357  1  0.395527  0.290744  0.752984  1
  O  O358  1  0.621062  -0.000000  0.774583  1
  O  O359  1  0.000000  0.499641  0.755675  1
  O  O360  1  0.000000  0.499630  0.793493  1
  O  O361  1  0.451574  0.725624  0.599595  1
  O  O362  1  0.274761  0.725531  0.599446  1
  O  O363  1  0.274844  0.549084  0.599341  1
  O  O364  1  0.703141  0.594851  0.614034  1
  O  O365  1  0.595486  0.892113  0.614175  1
  O  O366  1  0.107882  0.702595  0.614071  1
  O  O367  1  0.892253  0.594636  0.614009  1
  O  O368  1  0.297029  0.891899  0.614071  1
  O  O369  1  0.595523  0.702974  0.614196  1
  O  O370  1  0.450058  0.724828  0.625533  1
  O  O371  1  0.275201  0.724785  0.625384  1
  O  O372  1  0.275193  0.550125  0.625288  1
  O  O373  1  0.330891  0.664354  0.648246  1
  O  O374  1  0.378768  -0.000000  0.636566  1
  O  O375  1  0.621908  0.620658  0.636586  1
  O  O376  1  0.336806  0.669661  0.576769  1
  O  O377  1  0.000000  0.620909  0.636550  1
  O  O378  1  0.500145  -0.000000  0.617718  1
  O  O379  1  0.500373  -0.000000  0.655580  1
  O  O380  1  0.709745  0.604270  0.658374  1
  O  O381  1  0.604726  0.894891  0.658214  1
  O  O382  1  0.105282  0.709292  0.658270  1
  O  O383  1  0.895375  0.604222  0.658351  1
  O  O384  1  0.290899  0.894923  0.658338  1
  O  O385  1  0.604666  0.709243  0.658252  1
  O  O386  1  0.454895  0.727319  0.668928  1
  O  O387  1  0.272758  0.727359  0.669096  1
  O  O388  1  0.272726  0.545031  0.669191  1
  O  O389  1  0.454289  0.726988  0.742248  1
  O  O390  1  0.272259  0.727237  0.742135  1
  O  O391  1  0.271964  0.544799  0.742022  1
  O  O392  1  0.824209  0.647547  0.680176  1
  O  O393  1  0.647102  0.823420  0.680085  1
  O  O394  1  0.176152  0.823556  0.680125  1
  O  O395  1  0.646673  0.823139  0.731097  1
  O  O396  1  0.175490  0.822997  0.731067  1
  O  O397  1  0.824384  0.647875  0.731057  1
  O  O398  1  0.820602  0.820729  0.686796  1
  O  O399  1  0.000000  0.821520  0.686798  1
  O  O400  1  0.000000  0.822026  0.724384  1
  O  O401  1  0.820457  0.820844  0.724415  1
  O  O402  1  0.861994  0.723950  0.705612  1
  O  O403  1  0.722799  0.861260  0.705600  1
  O  O404  1  0.138370  0.861902  0.705591  1
  O  O405  1  0.820042  -0.000000  0.724418  1
  O  O406  1  0.820513  -0.000000  0.686805  1
  O  O407  1  0.451332  0.725782  0.811595  1
  O  O408  1  0.274553  0.725667  0.811768  1
  O  O409  1  0.274538  0.549182  0.811871  1
  O  O410  1  0.595057  0.892188  0.796967  1
  O  O411  1  0.107527  0.702510  0.797162  1
  O  O412  1  0.702895  0.594964  0.797196  1
  O  O413  1  0.296576  0.891897  0.797125  1
  O  O414  1  0.595269  0.703147  0.797004  1
  O  O415  1  0.891912  0.594544  0.797229  1
  O  O416  1  0.449620  0.724743  0.785662  1
  O  O417  1  0.274770  0.724746  0.785822  1
  O  O418  1  0.274748  0.550075  0.785930  1
  O  O419  1  0.330498  0.664128  0.762961  1
  O  O420  1  0.499464  -0.000000  0.755569  1
  O  O421  1  0.000000  0.620748  0.774688  1
  O  O422  1  0.378062  -0.000000  0.774616  1
  O  O423  1  0.621718  0.620776  0.774636  1
  O  O424  1  0.603904  0.894902  0.752911  1
  O  O425  1  0.104629  0.708985  0.752947  1
  O  O426  1  0.709407  0.604651  0.752820  1
  O  O427  1  0.290010  0.894849  0.752852  1
  O  O428  1  0.604181  0.709453  0.752981  1
  O  O429  1  0.894767  0.604058  0.752909  1
  O  O430  1  0.499615  -0.000000  0.793439  1
  O  O431  1  0.500016  0.500105  0.793468  1
  O  O432  1  0.499988  0.500098  0.755620  1
  O  O433  1  0.662804  0.330763  0.834436  1
  O  O434  1  0.336806  0.669661  0.834436  1
  Si  Si435  1  0.391448  0.391325  0.137379  1
  Si  Si436  1  0.469864  0.234824  0.097316  1
  Si  Si437  1  0.765214  0.234982  0.097085  1
  Si  Si438  1  0.235216  0.470088  0.097036  1
  Si  Si439  1  -0.000000  0.391577  0.105065  1
  Si  Si440  1  0.667342  0.333469  0.116637  1
  Si  Si441  1  0.391760  0.391908  0.105119  1
  Si  Si442  1  0.665871  0.332649  0.077656  1
  Si  Si443  1  0.000000  0.391222  0.137329  1
  Si  Si444  1  0.609190  -0.000000  0.137330  1
  Si  Si445  1  0.608588  -0.000000  0.105071  1
  Si  Si446  1  0.666918  0.333612  0.231309  1
  Si  Si447  1  0.667283  0.333408  0.149230  1
  Si  Si448  1  0.420819  0.210144  0.150954  1
  Si  Si449  1  0.790247  0.210177  0.151045  1
  Si  Si450  1  0.210324  0.420283  0.151116  1
  Si  Si451  1  0.209770  0.420070  0.229452  1
  Si  Si452  1  0.420442  0.210403  0.229595  1
  Si  Si453  1  0.789705  0.210223  0.229465  1
  Si  Si454  1  0.250062  0.124746  0.174249  1
  Si  Si455  1  0.875368  0.124085  0.174267  1
  Si  Si456  1  0.124703  0.248665  0.174276  1
  Si  Si457  1  0.124458  0.248426  0.206290  1
  Si  Si458  1  0.250024  0.124744  0.206268  1
  Si  Si459  1  0.875120  0.124107  0.206281  1
  Si  Si460  1  0.666959  0.333587  0.263902  1
  Si  Si461  1  0.608317  -0.000000  0.243133  1
  Si  Si462  1  0.665558  0.332513  0.302883  1
  Si  Si463  1  0.234870  0.470097  0.283520  1
  Si  Si464  1  0.469515  0.234808  0.283231  1
  Si  Si465  1  0.764759  0.234863  0.283427  1
  Si  Si466  1  0.391547  0.392041  0.275455  1
  Si  Si467  1  0.000000  0.391444  0.275492  1
  Si  Si468  1  0.391132  0.391553  0.243195  1
  Si  Si469  1  0.000000  0.390953  0.243228  1
  Si  Si470  1  0.608028  0.000000  0.275394  1
  Si  Si471  1  0.333058  0.666196  0.116638  1
  Si  Si472  1  0.334241  0.667210  0.077655  1
  Si  Si473  1  0.765079  0.529672  0.097058  1
  Si  Si474  1  0.530392  0.764993  0.097289  1
  Si  Si475  1  0.235062  0.764793  0.097134  1
  Si  Si476  1  0.391726  -0.000000  0.105088  1
  Si  Si477  1  0.608655  0.608072  0.105109  1
  Si  Si478  1  -0.000000  0.607907  0.105073  1
  Si  Si479  1  0.609111  0.608482  0.137368  1
  Si  Si480  1  0.391535  -0.000000  0.137346  1
  Si  Si481  1  0.000000  0.608518  0.137335  1
  Si  Si482  1  0.332621  0.666113  0.231309  1
  Si  Si483  1  0.333181  0.666320  0.149231  1
  Si  Si484  1  0.790197  0.579465  0.151096  1
  Si  Si485  1  0.579651  0.789627  0.150943  1
  Si  Si486  1  0.210324  0.789674  0.151039  1
  Si  Si487  1  0.579067  0.789542  0.229562  1
  Si  Si488  1  0.209645  0.789369  0.229508  1
  Si  Si489  1  0.789856  0.579684  0.229461  1
  Si  Si490  1  0.875504  0.750972  0.174269  1
  Si  Si491  1  0.750161  0.874905  0.174262  1
  Si  Si492  1  0.124848  0.875552  0.174249  1
  Si  Si493  1  0.749901  0.874901  0.206280  1
  Si  Si494  1  0.124809  0.875543  0.206265  1
  Si  Si495  1  0.875491  0.751208  0.206282  1
  Si  Si496  1  0.390674  -0.000000  0.243166  1
  Si  Si497  1  0.332586  0.666110  0.263902  1
  Si  Si498  1  0.334050  0.667330  0.302882  1
  Si  Si499  1  0.608774  0.608734  0.243187  1
  Si  Si500  1  0.530065  0.765106  0.283226  1
  Si  Si501  1  0.234723  0.764804  0.283411  1
  Si  Si502  1  0.764729  0.529667  0.283499  1
  Si  Si503  1  0.000000  0.607781  0.275499  1
  Si  Si504  1  0.391178  -0.000000  0.275424  1
  Si  Si505  1  0.608435  0.608210  0.275447  1
  Si  Si506  1  0.000000  0.608270  0.243237  1
  Si  Si507  1  0.391448  0.391325  0.395045  1
  Si  Si508  1  0.469864  0.234824  0.354983  1
  Si  Si509  1  0.765214  0.234982  0.354752  1
  Si  Si510  1  0.235216  0.470088  0.354703  1
  Si  Si511  1  0.000000  0.391577  0.362732  1
  Si  Si512  1  0.667342  0.333469  0.374304  1
  Si  Si513  1  0.391760  0.391908  0.362786  1
  Si  Si514  1  0.665871  0.332649  0.335323  1
  Si  Si515  1  0.000000  0.391222  0.394995  1
  Si  Si516  1  0.609190  -0.000000  0.394996  1
  Si  Si517  1  0.608588  -0.000000  0.362737  1
  Si  Si518  1  0.666918  0.333612  0.488976  1
  Si  Si519  1  0.667283  0.333408  0.406897  1
  Si  Si520  1  0.420819  0.210144  0.408621  1
  Si  Si521  1  0.790247  0.210177  0.408712  1
  Si  Si522  1  0.210324  0.420283  0.408783  1
  Si  Si523  1  0.209770  0.420070  0.487119  1
  Si  Si524  1  0.420442  0.210403  0.487262  1
  Si  Si525  1  0.789705  0.210223  0.487131  1
  Si  Si526  1  0.250062  0.124746  0.431916  1
  Si  Si527  1  0.875368  0.124085  0.431933  1
  Si  Si528  1  0.124703  0.248665  0.431943  1
  Si  Si529  1  0.124458  0.248426  0.463957  1
  Si  Si530  1  0.250024  0.124744  0.463935  1
  Si  Si531  1  0.875120  0.124107  0.463948  1
  Si  Si532  1  0.666959  0.333587  0.521569  1
  Si  Si533  1  0.608317  -0.000000  0.500800  1
  Si  Si534  1  0.665558  0.332513  0.560550  1
  Si  Si535  1  0.234870  0.470097  0.541187  1
  Si  Si536  1  0.469515  0.234808  0.540898  1
  Si  Si537  1  0.764759  0.234863  0.541094  1
  Si  Si538  1  0.391547  0.392041  0.533122  1
  Si  Si539  1  0.000000  0.391444  0.533159  1
  Si  Si540  1  0.391132  0.391553  0.500862  1
  Si  Si541  1  0.000000  0.390953  0.500895  1
  Si  Si542  1  0.608028  -0.000000  0.533061  1
  Si  Si543  1  0.333058  0.666196  0.374304  1
  Si  Si544  1  0.334241  0.667210  0.335322  1
  Si  Si545  1  0.765079  0.529672  0.354724  1
  Si  Si546  1  0.530392  0.764993  0.354956  1
  Si  Si547  1  0.235062  0.764793  0.354801  1
  Si  Si548  1  0.391726  0.000000  0.362755  1
  Si  Si549  1  0.608655  0.608072  0.362776  1
  Si  Si550  1  -0.000000  0.607907  0.362740  1
  Si  Si551  1  0.609111  0.608482  0.395035  1
  Si  Si552  1  0.391535  -0.000000  0.395012  1
  Si  Si553  1  0.000000  0.608518  0.395001  1
  Si  Si554  1  0.332621  0.666113  0.488976  1
  Si  Si555  1  0.333181  0.666320  0.406898  1
  Si  Si556  1  0.790197  0.579465  0.408762  1
  Si  Si557  1  0.579651  0.789627  0.408609  1
  Si  Si558  1  0.210324  0.789674  0.408706  1
  Si  Si559  1  0.579067  0.789542  0.487228  1
  Si  Si560  1  0.209645  0.789369  0.487175  1
  Si  Si561  1  0.789856  0.579684  0.487127  1
  Si  Si562  1  0.875504  0.750972  0.431935  1
  Si  Si563  1  0.750161  0.874905  0.431929  1
  Si  Si564  1  0.124848  0.875552  0.431916  1
  Si  Si565  1  0.749901  0.874901  0.463946  1
  Si  Si566  1  0.124809  0.875543  0.463931  1
  Si  Si567  1  0.875491  0.751208  0.463949  1
  Si  Si568  1  0.390674  -0.000000  0.500833  1
  Si  Si569  1  0.332586  0.666110  0.521569  1
  Si  Si570  1  0.334050  0.667330  0.560549  1
  Si  Si571  1  0.608774  0.608734  0.500854  1
  Si  Si572  1  0.530065  0.765106  0.540893  1
  Si  Si573  1  0.234723  0.764804  0.541078  1
  Si  Si574  1  0.764729  0.529667  0.541166  1
  Si  Si575  1  0.000000  0.607781  0.533166  1
  Si  Si576  1  0.391178  -0.000000  0.533091  1
  Si  Si577  1  0.608435  0.608210  0.533113  1
  Si  Si578  1  0.000000  0.608270  0.500904  1
  Si  Si579  1  0.391448  0.391325  0.652712  1
  Si  Si580  1  0.469864  0.234824  0.612650  1
  Si  Si581  1  0.765214  0.234982  0.612419  1
  Si  Si582  1  0.235216  0.470088  0.612370  1
  Si  Si583  1  0.000000  0.391577  0.620399  1
  Si  Si584  1  0.667342  0.333469  0.631970  1
  Si  Si585  1  0.391760  0.391908  0.620452  1
  Si  Si586  1  0.665871  0.332649  0.592989  1
  Si  Si587  1  0.000000  0.391222  0.652662  1
  Si  Si588  1  0.609190  -0.000000  0.652663  1
  Si  Si589  1  0.608588  -0.000000  0.620404  1
  Si  Si590  1  0.666918  0.333612  0.746643  1
  Si  Si591  1  0.667283  0.333408  0.664564  1
  Si  Si592  1  0.420819  0.210144  0.666287  1
  Si  Si593  1  0.790247  0.210177  0.666378  1
  Si  Si594  1  0.210324  0.420283  0.666450  1
  Si  Si595  1  0.209770  0.420070  0.744786  1
  Si  Si596  1  0.420442  0.210403  0.744929  1
  Si  Si597  1  0.789705  0.210223  0.744798  1
  Si  Si598  1  0.250062  0.124746  0.689582  1
  Si  Si599  1  0.875368  0.124085  0.689600  1
  Si  Si600  1  0.124703  0.248665  0.689609  1
  Si  Si601  1  0.124458  0.248426  0.721624  1
  Si  Si602  1  0.250024  0.124744  0.721602  1
  Si  Si603  1  0.875120  0.124107  0.721614  1
  Si  Si604  1  0.666959  0.333587  0.779236  1
  Si  Si605  1  0.608317  -0.000000  0.758467  1
  Si  Si606  1  0.665558  0.332513  0.818216  1
  Si  Si607  1  0.234870  0.470097  0.798853  1
  Si  Si608  1  0.469515  0.234808  0.798565  1
  Si  Si609  1  0.764759  0.234863  0.798760  1
  Si  Si610  1  0.391547  0.392041  0.790788  1
  Si  Si611  1  0.000000  0.391444  0.790825  1
  Si  Si612  1  0.391132  0.391553  0.758529  1
  Si  Si613  1  0.000000  0.390953  0.758562  1
  Si  Si614  1  0.608028  0.000000  0.790727  1
  Si  Si615  1  0.333058  0.666196  0.631971  1
  Si  Si616  1  0.334241  0.667210  0.592989  1
  Si  Si617  1  0.765079  0.529672  0.612391  1
  Si  Si618  1  0.530392  0.764993  0.612622  1
  Si  Si619  1  0.235062  0.764793  0.612468  1
  Si  Si620  1  0.391726  -0.000000  0.620421  1
  Si  Si621  1  0.608655  0.608072  0.620442  1
  Si  Si622  1  0.000000  0.607907  0.620406  1
  Si  Si623  1  0.609111  0.608482  0.652702  1
  Si  Si624  1  0.391535  -0.000000  0.652679  1
  Si  Si625  1  0.000000  0.608518  0.652668  1
  Si  Si626  1  0.332621  0.666113  0.746642  1
  Si  Si627  1  0.333181  0.666320  0.664564  1
  Si  Si628  1  0.790197  0.579465  0.666429  1
  Si  Si629  1  0.579651  0.789627  0.666276  1
  Si  Si630  1  0.210324  0.789674  0.666373  1
  Si  Si631  1  0.579067  0.789542  0.744895  1
  Si  Si632  1  0.209645  0.789369  0.744842  1
  Si  Si633  1  0.789856  0.579684  0.744794  1
  Si  Si634  1  0.875504  0.750972  0.689602  1
  Si  Si635  1  0.750161  0.874905  0.689596  1
  Si  Si636  1  0.124848  0.875552  0.689583  1
  Si  Si637  1  0.749901  0.874901  0.721613  1
  Si  Si638  1  0.124809  0.875543  0.721598  1
  Si  Si639  1  0.875491  0.751208  0.721616  1
  Si  Si640  1  0.390674  0.000000  0.758499  1
  Si  Si641  1  0.332586  0.666110  0.779236  1
  Si  Si642  1  0.334050  0.667330  0.818216  1
  Si  Si643  1  0.608774  0.608734  0.758521  1
  Si  Si644  1  0.530065  0.765106  0.798559  1
  Si  Si645  1  0.234723  0.764804  0.798745  1
  Si  Si646  1  0.764729  0.529667  0.798833  1
  Si  Si647  1  0.000000  0.607781  0.790833  1
  Si  Si648  1  0.391178  0.000000  0.790758  1
  Si  Si649  1  0.608435  0.608210  0.790780  1
  Si  Si650  1  0.000000  0.608270  0.758571  1
  H  H651  1  0.662804  0.330763  0.052065  1
  H  H652  1  0.336806  0.669661  0.052064  1
  H  H653  1  0.662804  0.330763  0.843808  1
  H  H654  1  0.336806  0.669661  0.843807  1
