# generated using pymatgen
data_Si16H2O33
_symmetry_space_group_name_H-M   'P 1'
_cell_length_a   14.04855121
_cell_length_b   9.74334908
_cell_length_c   49.89760418
_cell_angle_alpha   90.00000000
_cell_angle_beta   90.00000000
_cell_angle_gamma   90.00000000
_symmetry_Int_Tables_number   1
_chemical_formula_structural   Si16H2O33
_chemical_formula_sum   'Si64 H8 O132'
_cell_volume   6829.98099238
_cell_formula_units_Z   4
loop_
 _symmetry_equiv_pos_site_id
 _symmetry_equiv_pos_as_xyz
  1  'x, y, z'
loop_
 _atom_site_type_symbol
 _atom_site_label
 _atom_site_symmetry_multiplicity
 _atom_site_fract_x
 _atom_site_fract_y
 _atom_site_fract_z
 _atom_site_occupancy
  O  O1  1  0.170085  0.177787  0.166161  1
  O  O2  1  0.670095  0.677721  0.306944  1
  O  O3  1  0.170094  0.177741  0.351873  1
  O  O4  1  0.670093  0.677758  0.211102  1
  O  O5  1  0.829646  0.177722  0.351874  1
  O  O6  1  0.329661  0.677786  0.211103  1
  O  O7  1  0.829639  0.177757  0.166163  1
  O  O8  1  0.329663  0.677741  0.306944  1
  O  O9  1  0.829663  0.822329  0.351877  1
  O  O10  1  0.329638  0.322395  0.211098  1
  O  O11  1  0.829661  0.822366  0.166170  1
  O  O12  1  0.329646  0.322349  0.306936  1
  O  O13  1  0.170093  0.822394  0.166170  1
  O  O14  1  0.670093  0.322329  0.306937  1
  O  O15  1  0.170095  0.822350  0.351877  1
  O  O16  1  0.670085  0.322365  0.211100  1
  O  O17  1  0.289409  0.000000  0.151699  1
  O  O18  1  0.789414  0.500028  0.292473  1
  O  O19  1  0.118690  0.000000  0.318284  1
  O  O20  1  0.618685  0.500060  0.177510  1
  O  O21  1  0.710335  -0.000000  0.366343  1
  O  O22  1  0.210330  0.500104  0.225568  1
  O  O23  1  0.881054  -0.000000  0.199757  1
  O  O24  1  0.381058  0.500030  0.340531  1
  O  O25  1  0.289414  0.000000  0.366342  1
  O  O26  1  0.789409  0.500064  0.225568  1
  O  O27  1  0.118685  0.000000  0.199757  1
  O  O28  1  0.618690  0.500011  0.340532  1
  O  O29  1  0.710330  0.000000  0.151699  1
  O  O30  1  0.210335  0.500055  0.292473  1
  O  O31  1  0.881058  0.000000  0.318284  1
  O  O32  1  0.381054  0.500092  0.177509  1
  O  O33  1  0.249895  0.187708  0.118242  1
  O  O34  1  0.749887  0.687684  0.259023  1
  O  O35  1  0.000000  0.187665  0.329417  1
  O  O36  1  0.499878  0.687707  0.188643  1
  O  O37  1  0.749835  0.187680  0.118244  1
  O  O38  1  0.249871  0.687711  0.259024  1
  O  O39  1  -0.000000  0.187711  0.188618  1
  O  O40  1  0.499879  0.687661  0.329405  1
  O  O41  1  0.749871  0.812400  0.118249  1
  O  O42  1  0.249835  0.312431  0.259017  1
  O  O43  1  -0.000000  0.812450  0.188631  1
  O  O44  1  0.499870  0.312401  0.329392  1
  O  O45  1  0.249887  0.812428  0.118249  1
  O  O46  1  0.749894  0.312404  0.259018  1
  O  O47  1  0.000000  0.812404  0.329417  1
  O  O48  1  0.499861  0.312447  0.188642  1
  O  O49  1  0.344024  0.250096  0.162126  1
  O  O50  1  0.844036  0.750021  0.302905  1
  O  O51  1  0.155705  0.250052  0.302901  1
  O  O52  1  0.655723  0.750053  0.162130  1
  O  O53  1  0.655701  0.249999  0.355907  1
  O  O54  1  0.155727  0.750118  0.215144  1
  O  O55  1  0.844028  0.250076  0.215134  1
  O  O56  1  0.344032  0.750029  0.355917  1
  O  O57  1  0.344035  0.250028  0.355907  1
  O  O58  1  0.844031  0.750073  0.215142  1
  O  O59  1  0.155694  0.250120  0.215132  1
  O  O60  1  0.655728  0.750002  0.355917  1
  O  O61  1  0.655697  0.250052  0.162128  1
  O  O62  1  0.155724  0.750048  0.302905  1
  O  O63  1  0.844031  0.250023  0.302901  1
  O  O64  1  0.344035  0.750099  0.162131  1
  O  O65  1  0.170085  0.177787  0.447710  1
  O  O66  1  0.670095  0.677721  0.588493  1
  O  O67  1  0.170094  0.177741  0.633422  1
  O  O68  1  0.670093  0.677758  0.492651  1
  O  O69  1  0.829646  0.177722  0.633423  1
  O  O70  1  0.329661  0.677786  0.492652  1
  O  O71  1  0.829639  0.177757  0.447712  1
  O  O72  1  0.329663  0.677741  0.588493  1
  O  O73  1  0.829663  0.822329  0.633426  1
  O  O74  1  0.329638  0.322395  0.492647  1
  O  O75  1  0.829661  0.822366  0.447719  1
  O  O76  1  0.329646  0.322349  0.588485  1
  O  O77  1  0.170093  0.822394  0.447719  1
  O  O78  1  0.670093  0.322329  0.588486  1
  O  O79  1  0.170095  0.822350  0.633426  1
  O  O80  1  0.670085  0.322365  0.492649  1
  O  O81  1  0.289409  0.000000  0.433248  1
  O  O82  1  0.789414  0.500028  0.574022  1
  O  O83  1  0.118690  0.000000  0.599833  1
  O  O84  1  0.618685  0.500060  0.459059  1
  O  O85  1  0.710335  -0.000000  0.647892  1
  O  O86  1  0.210330  0.500104  0.507117  1
  O  O87  1  0.881054  0.000000  0.481306  1
  O  O88  1  0.381058  0.500030  0.622080  1
  O  O89  1  0.289414  -0.000000  0.647891  1
  O  O90  1  0.789409  0.500064  0.507117  1
  O  O91  1  0.118685  0.000000  0.481306  1
  O  O92  1  0.618690  0.500011  0.622081  1
  O  O93  1  0.710330  0.000000  0.433248  1
  O  O94  1  0.210335  0.500055  0.574022  1
  O  O95  1  0.881058  -0.000000  0.599833  1
  O  O96  1  0.381054  0.500092  0.459058  1
  O  O97  1  0.249895  0.187708  0.399791  1
  O  O98  1  0.749887  0.687684  0.540572  1
  O  O99  1  -0.000000  0.187665  0.610966  1
  O  O100  1  0.499878  0.687707  0.470192  1
  O  O101  1  0.749835  0.187680  0.399793  1
  O  O102  1  0.249871  0.687711  0.540573  1
  O  O103  1  0.000000  0.187711  0.470167  1
  O  O104  1  0.499879  0.687661  0.610954  1
  O  O105  1  0.749871  0.812400  0.399798  1
  O  O106  1  0.249835  0.312431  0.540566  1
  O  O107  1  0.000000  0.812450  0.470180  1
  O  O108  1  0.499870  0.312401  0.610941  1
  O  O109  1  0.249887  0.812428  0.399798  1
  O  O110  1  0.749894  0.312404  0.540567  1
  O  O111  1  -0.000000  0.812404  0.610966  1
  O  O112  1  0.499861  0.312447  0.470191  1
  O  O113  1  0.344024  0.250096  0.443675  1
  O  O114  1  0.844036  0.750021  0.584454  1
  O  O115  1  0.155705  0.250052  0.584450  1
  O  O116  1  0.655723  0.750053  0.443679  1
  O  O117  1  0.655701  0.249999  0.637456  1
  O  O118  1  0.155727  0.750118  0.496693  1
  O  O119  1  0.844028  0.250076  0.496683  1
  O  O120  1  0.344032  0.750029  0.637466  1
  O  O121  1  0.344035  0.250028  0.637456  1
  O  O122  1  0.844031  0.750073  0.496691  1
  O  O123  1  0.155694  0.250120  0.496681  1
  O  O124  1  0.655728  0.750002  0.637466  1
  O  O125  1  0.655697  0.250052  0.443677  1
  O  O126  1  0.155724  0.750048  0.584454  1
  O  O127  1  0.844031  0.250023  0.584450  1
  O  O128  1  0.344035  0.750099  0.443680  1
  O  O129  1  0.249895  0.187708  0.681340  1
  O  O130  1  0.749835  0.187680  0.681342  1
  O  O131  1  0.749871  0.812400  0.681347  1
  O  O132  1  0.249887  0.812428  0.681347  1
  Si  Si133  1  0.264146  0.157807  0.149113  1
  Si  Si134  1  0.764149  0.657748  0.289893  1
  Si  Si135  1  0.109515  0.157764  0.325395  1
  Si  Si136  1  0.609521  0.657779  0.184624  1
  Si  Si137  1  0.735588  0.157736  0.368923  1
  Si  Si138  1  0.235605  0.657818  0.228153  1
  Si  Si139  1  0.890218  0.157790  0.192640  1
  Si  Si140  1  0.390233  0.657754  0.333423  1
  Si  Si141  1  0.264151  0.157761  0.368922  1
  Si  Si142  1  0.764149  0.657783  0.228152  1
  Si  Si143  1  0.109508  0.157819  0.192639  1
  Si  Si144  1  0.609524  0.657735  0.333422  1
  Si  Si145  1  0.735580  0.157772  0.149115  1
  Si  Si146  1  0.235608  0.657772  0.289894  1
  Si  Si147  1  0.890226  0.157745  0.325397  1
  Si  Si148  1  0.390231  0.657808  0.184624  1
  Si  Si149  1  0.735607  0.842299  0.368927  1
  Si  Si150  1  0.235581  0.342380  0.228147  1
  Si  Si151  1  0.890230  0.842352  0.192648  1
  Si  Si152  1  0.390225  0.342316  0.333413  1
  Si  Si153  1  0.264147  0.842369  0.149119  1
  Si  Si154  1  0.764153  0.342310  0.289889  1
  Si  Si155  1  0.109523  0.842327  0.325399  1
  Si  Si156  1  0.609508  0.342341  0.184622  1
  Si  Si157  1  0.735607  0.842334  0.149119  1
  Si  Si158  1  0.235586  0.342333  0.289888  1
  Si  Si159  1  0.890233  0.842308  0.325398  1
  Si  Si160  1  0.390219  0.342371  0.184621  1
  Si  Si161  1  0.264150  0.842323  0.368927  1
  Si  Si162  1  0.764144  0.342345  0.228148  1
  Si  Si163  1  0.109522  0.842381  0.192648  1
  Si  Si164  1  0.609514  0.342297  0.333415  1
  Si  Si165  1  0.264146  0.157807  0.430662  1
  Si  Si166  1  0.764149  0.657748  0.571442  1
  Si  Si167  1  0.109515  0.157764  0.606944  1
  Si  Si168  1  0.609521  0.657779  0.466173  1
  Si  Si169  1  0.735588  0.157736  0.650472  1
  Si  Si170  1  0.235605  0.657818  0.509702  1
  Si  Si171  1  0.890218  0.157790  0.474189  1
  Si  Si172  1  0.390233  0.657754  0.614972  1
  Si  Si173  1  0.264151  0.157761  0.650471  1
  Si  Si174  1  0.764149  0.657783  0.509701  1
  Si  Si175  1  0.109508  0.157819  0.474188  1
  Si  Si176  1  0.609524  0.657735  0.614971  1
  Si  Si177  1  0.735580  0.157772  0.430664  1
  Si  Si178  1  0.235608  0.657772  0.571443  1
  Si  Si179  1  0.890226  0.157745  0.606946  1
  Si  Si180  1  0.390231  0.657808  0.466173  1
  Si  Si181  1  0.735607  0.842299  0.650476  1
  Si  Si182  1  0.235581  0.342380  0.509696  1
  Si  Si183  1  0.890230  0.842352  0.474197  1
  Si  Si184  1  0.390225  0.342316  0.614962  1
  Si  Si185  1  0.264147  0.842369  0.430668  1
  Si  Si186  1  0.764153  0.342310  0.571438  1
  Si  Si187  1  0.109523  0.842327  0.606948  1
  Si  Si188  1  0.609508  0.342341  0.466171  1
  Si  Si189  1  0.735607  0.842334  0.430668  1
  Si  Si190  1  0.235586  0.342333  0.571437  1
  Si  Si191  1  0.890233  0.842308  0.606947  1
  Si  Si192  1  0.390219  0.342371  0.466170  1
  Si  Si193  1  0.264150  0.842323  0.650476  1
  Si  Si194  1  0.764144  0.342345  0.509697  1
  Si  Si195  1  0.109522  0.842381  0.474197  1
  Si  Si196  1  0.609514  0.342297  0.614964  1
  H  H197  1  0.249895  0.187708  0.100205  1
  H  H198  1  0.749835  0.187680  0.100207  1
  H  H199  1  0.749871  0.812400  0.100212  1
  H  H200  1  0.249887  0.812428  0.100213  1
  H  H201  1  0.249895  0.187708  0.699377  1
  H  H202  1  0.749835  0.187680  0.699378  1
  H  H203  1  0.749871  0.812400  0.699384  1
  H  H204  1  0.249887  0.812428  0.699384  1
