# generated using pymatgen
data_Si7H2O15
_symmetry_space_group_name_H-M   'P 1'
_cell_length_a   7.46542387
_cell_length_b   23.45454691
_cell_length_c   44.40123689
_cell_angle_alpha   127.21301349
_cell_angle_beta   90.00000000
_cell_angle_gamma   90.00000000
_symmetry_Int_Tables_number   1
_chemical_formula_structural   Si7H2O15
_chemical_formula_sum   'Si42 H12 O90'
_cell_volume   6191.61280949
_cell_formula_units_Z   6
loop_
 _symmetry_equiv_pos_site_id
 _symmetry_equiv_pos_as_xyz
  1  'x, y, z'
loop_
 _atom_site_type_symbol
 _atom_site_label
 _atom_site_symmetry_multiplicity
 _atom_site_fract_x
 _atom_site_fract_y
 _atom_site_fract_z
 _atom_site_occupancy
  O  O1  1  0.669477  0.749278  0.288348  1
  O  O2  1  0.169535  0.249272  0.288349  1
  O  O3  1  0.330176  0.749267  0.288348  1
  O  O4  1  0.830232  0.249283  0.288350  1
  O  O5  1  0.669479  0.749282  0.423588  1
  O  O6  1  0.169533  0.249267  0.423580  1
  O  O7  1  0.330177  0.749272  0.423582  1
  O  O8  1  0.830231  0.249278  0.423587  1
  O  O9  1  0.754340  0.879653  0.314014  1
  O  O10  1  0.254379  0.379648  0.314016  1
  O  O11  1  0.245334  0.879643  0.314011  1
  O  O12  1  0.745370  0.379659  0.314020  1
  O  O13  1  0.754343  0.879659  0.161752  1
  O  O14  1  0.254374  0.379643  0.161750  1
  O  O15  1  0.245333  0.879649  0.161748  1
  O  O16  1  0.745368  0.379653  0.161753  1
  O  O17  1  -0.000000  0.798568  0.309039  1
  O  O18  1  0.499883  0.298571  0.309043  1
  O  O19  1  -0.000000  0.798571  0.434387  1
  O  O20  1  0.499881  0.298568  0.434389  1
  O  O21  1  0.750483  0.842456  0.356755  1
  O  O22  1  0.250536  0.342450  0.356756  1
  O  O23  1  0.249171  0.842451  0.356754  1
  O  O24  1  0.749230  0.342455  0.356758  1
  O  O25  1  0.750480  0.842455  0.414712  1
  O  O26  1  0.250539  0.342451  0.414713  1
  O  O27  1  0.249175  0.842450  0.414710  1
  O  O28  1  0.749227  0.342456  0.414715  1
  O  O29  1  0.735821  0.968435  0.236060  1
  O  O30  1  0.235874  0.468424  0.236059  1
  O  O31  1  0.263835  0.968427  0.236057  1
  O  O32  1  0.763889  0.468432  0.236062  1
  O  O33  1  0.735820  0.968433  0.296429  1
  O  O34  1  0.235876  0.468427  0.296431  1
  O  O35  1  0.263835  0.968423  0.296427  1
  O  O36  1  0.763891  0.468436  0.296434  1
  O  O37  1  0.830201  0.012319  0.198539  1
  O  O38  1  0.330254  0.512301  0.198535  1
  O  O39  1  0.169455  0.012307  0.198535  1
  O  O40  1  0.669508  0.512313  0.198540  1
  O  O41  1  0.830200  0.012313  0.361988  1
  O  O42  1  0.330259  0.512307  0.361990  1
  O  O43  1  0.169452  0.012301  0.361985  1
  O  O44  1  0.669513  0.512320  0.361994  1
  O  O45  1  0.499828  0.969298  0.194777  1
  O  O46  1  -0.000000  0.469292  0.194778  1
  O  O47  1  0.499827  0.969293  0.338263  1
  O  O48  1  -0.000000  0.469298  0.338268  1
  O  O49  1  0.000000  0.045577  0.420111  1
  O  O50  1  0.499880  0.545581  0.420116  1
  O  O51  1  -0.000000  0.045581  0.161669  1
  O  O52  1  0.499879  0.545577  0.161671  1
  O  O53  1  0.000000  0.132081  0.401504  1
  O  O54  1  0.499851  0.632087  0.401509  1
  O  O55  1  0.000000  0.132087  0.235547  1
  O  O56  1  0.499849  0.632081  0.235549  1
  O  O57  1  -0.000000  0.175097  0.303113  1
  O  O58  1  0.499862  0.675098  0.303116  1
  O  O59  1  0.000000  0.175098  0.361423  1
  O  O60  1  0.499861  0.675097  0.361424  1
  O  O61  1  0.499823  0.903691  0.405296  1
  O  O62  1  -0.000000  0.403690  0.405299  1
  O  O63  1  0.830022  0.953677  0.421266  1
  O  O64  1  0.330090  0.453672  0.421266  1
  O  O65  1  0.169621  0.953672  0.421264  1
  O  O66  1  0.669688  0.453677  0.421268  1
  O  O67  1  0.499821  0.033126  0.286912  1
  O  O68  1  0.000000  0.533126  0.286915  1
  O  O69  1  0.830295  0.079138  0.301612  1
  O  O70  1  0.330360  0.579128  0.301610  1
  O  O71  1  0.169350  0.079127  0.301609  1
  O  O72  1  0.669415  0.579138  0.301614  1
  O  O73  1  0.754343  0.879659  0.481221  1
  O  O74  1  0.254374  0.379643  0.481219  1
  O  O75  1  0.245333  0.879649  0.481218  1
  O  O76  1  0.745368  0.379653  0.481223  1
  O  O77  1  0.735821  0.968435  0.555529  1
  O  O78  1  0.235874  0.468424  0.555529  1
  O  O79  1  0.263835  0.968427  0.555527  1
  O  O80  1  0.763889  0.468432  0.555532  1
  O  O81  1  0.830201  0.012319  0.518009  1
  O  O82  1  0.330254  0.512301  0.518005  1
  O  O83  1  0.169455  0.012307  0.518004  1
  O  O84  1  0.669508  0.512313  0.518010  1
  O  O85  1  0.499828  0.969298  0.514246  1
  O  O86  1  -0.000000  0.469292  0.514248  1
  O  O87  1  0.000000  0.045581  0.481139  1
  O  O88  1  0.499879  0.545577  0.481141  1
  O  O89  1  -0.000000  0.132087  0.555017  1
  O  O90  1  0.499849  0.632081  0.555018  1
  Si  Si91  1  0.793821  0.815802  0.315659  1
  Si  Si92  1  0.293873  0.315798  0.315661  1
  Si  Si93  1  0.205837  0.815794  0.315657  1
  Si  Si94  1  0.705891  0.315806  0.315663  1
  Si  Si95  1  0.705895  0.957209  0.197485  1
  Si  Si96  1  0.205944  0.457196  0.197485  1
  Si  Si97  1  0.293764  0.957201  0.197482  1
  Si  Si98  1  0.793815  0.457204  0.197487  1
  Si  Si99  1  0.705893  0.957204  0.327830  1
  Si  Si100  1  0.205948  0.457201  0.327833  1
  Si  Si101  1  0.293764  0.957195  0.327827  1
  Si  Si102  1  0.793819  0.457210  0.327835  1
  Si  Si103  1  0.000000  0.052500  0.386999  1
  Si  Si104  1  0.499877  0.552506  0.387004  1
  Si  Si105  1  0.000000  0.052507  0.199206  1
  Si  Si106  1  0.499873  0.552501  0.199207  1
  Si  Si107  1  0.000000  0.200561  0.277657  1
  Si  Si108  1  0.499839  0.700558  0.277657  1
  Si  Si109  1  -0.000000  0.200558  0.403148  1
  Si  Si110  1  0.499840  0.700561  0.403151  1
  Si  Si111  1  0.706456  0.886234  0.399719  1
  Si  Si112  1  0.206518  0.386232  0.399722  1
  Si  Si113  1  0.293193  0.886232  0.399719  1
  Si  Si114  1  0.793255  0.386234  0.399722  1
  Si  Si115  1  0.704865  0.011751  0.280083  1
  Si  Si116  1  0.204926  0.511742  0.280083  1
  Si  Si117  1  0.294784  0.011742  0.280081  1
  Si  Si118  1  0.794846  0.511751  0.280086  1
  Si  Si119  1  -0.000000  0.128379  0.317343  1
  Si  Si120  1  0.499877  0.628379  0.317345  1
  Si  Si121  1  0.793822  0.815805  0.438779  1
  Si  Si122  1  0.293871  0.315794  0.438778  1
  Si  Si123  1  0.205838  0.815798  0.438776  1
  Si  Si124  1  0.705888  0.315802  0.438781  1
  Si  Si125  1  0.705895  0.957209  0.516955  1
  Si  Si126  1  0.205944  0.457196  0.516954  1
  Si  Si127  1  0.293764  0.957201  0.516952  1
  Si  Si128  1  0.793815  0.457204  0.516957  1
  Si  Si129  1  -0.000000  0.052507  0.518676  1
  Si  Si130  1  0.499873  0.552501  0.518677  1
  Si  Si131  1  0.000000  0.003007  0.437025  1
  Si  Si132  1  0.499885  0.503007  0.437027  1
  H  H133  1  0.754343  0.879659  0.141482  1
  H  H134  1  0.254374  0.379643  0.141480  1
  H  H135  1  0.245333  0.879649  0.141478  1
  H  H136  1  0.745368  0.379653  0.141484  1
  H  H137  1  0.000000  0.045581  0.141399  1
  H  H138  1  0.499879  0.545577  0.141401  1
  H  H139  1  0.735821  0.968435  0.575799  1
  H  H140  1  0.235874  0.468424  0.575798  1
  H  H141  1  0.263835  0.968427  0.575796  1
  H  H142  1  0.763889  0.468432  0.575802  1
  H  H143  1  -0.000000  0.132087  0.575287  1
  H  H144  1  0.499849  0.632081  0.575288  1
