# generated using pymatgen
data_Si24H2O49
_symmetry_space_group_name_H-M   'P 1'
_cell_length_a   19.86970473
_cell_length_b   7.45570403
_cell_length_c   58.19534208
_cell_angle_alpha   90.00000000
_cell_angle_beta   90.00000000
_cell_angle_gamma   90.00000000
_symmetry_Int_Tables_number   1
_chemical_formula_structural   Si24H2O49
_chemical_formula_sum   'Si96 H8 O196'
_cell_volume   8621.2114732
_cell_formula_units_Z   4
loop_
 _symmetry_equiv_pos_site_id
 _symmetry_equiv_pos_as_xyz
  1  'x, y, z'
loop_
 _atom_site_type_symbol
 _atom_site_label
 _atom_site_symmetry_multiplicity
 _atom_site_fract_x
 _atom_site_fract_y
 _atom_site_fract_z
 _atom_site_occupancy
  O  O1  1  0.000000  0.000000  0.192185  1
  O  O2  1  0.499926  0.000000  0.348356  1
  O  O3  1  -0.000000  -0.000000  0.323287  1
  O  O4  1  0.499946  0.000000  0.167112  1
  O  O5  1  0.000000  0.500049  0.192185  1
  O  O6  1  0.499928  0.500213  0.348359  1
  O  O7  1  0.000000  0.500226  0.323286  1
  O  O8  1  0.499945  0.500056  0.167111  1
  O  O9  1  0.082414  0.250068  0.203109  1
  O  O10  1  0.582802  0.250187  0.359073  1
  O  O11  1  0.082379  0.250201  0.312358  1
  O  O12  1  0.582827  0.250059  0.156393  1
  O  O13  1  0.917484  0.750060  0.203108  1
  O  O14  1  0.417044  0.750206  0.359075  1
  O  O15  1  0.917463  0.750182  0.312357  1
  O  O16  1  0.417068  0.750073  0.156394  1
  O  O17  1  0.096934  0.922039  0.218627  1
  O  O18  1  0.596357  0.922355  0.374938  1
  O  O19  1  0.096905  0.922161  0.296840  1
  O  O20  1  0.596365  0.922239  0.140530  1
  O  O21  1  0.902944  0.422023  0.218624  1
  O  O22  1  0.403512  0.422377  0.374944  1
  O  O23  1  0.902962  0.422140  0.296838  1
  O  O24  1  0.403509  0.422253  0.140533  1
  O  O25  1  0.902952  0.078216  0.296836  1
  O  O26  1  0.403521  0.077901  0.140529  1
  O  O27  1  0.902950  0.078095  0.218630  1
  O  O28  1  0.403499  0.078023  0.374937  1
  O  O29  1  0.096927  0.578239  0.296842  1
  O  O30  1  0.596357  0.577885  0.140525  1
  O  O31  1  0.096921  0.578109  0.218633  1
  O  O32  1  0.596373  0.578002  0.374935  1
  O  O33  1  0.123495  -0.000000  0.177117  1
  O  O34  1  0.623306  0.995605  0.333340  1
  O  O35  1  0.123467  -0.000000  0.338352  1
  O  O36  1  0.623328  0.995478  0.182129  1
  O  O37  1  0.876403  0.499088  0.177112  1
  O  O38  1  0.376549  0.495599  0.333345  1
  O  O39  1  0.876383  0.499210  0.338350  1
  O  O40  1  0.376571  0.495510  0.182133  1
  O  O41  1  0.876364  0.001159  0.338347  1
  O  O42  1  0.376568  0.004649  0.182129  1
  O  O43  1  0.876396  0.001027  0.177118  1
  O  O44  1  0.376540  0.004788  0.333340  1
  O  O45  1  0.123476  0.501163  0.338356  1
  O  O46  1  0.623324  0.504645  0.182125  1
  O  O47  1  0.123491  0.501065  0.177119  1
  O  O48  1  0.623301  0.504771  0.333335  1
  O  O49  1  0.305030  0.250068  0.200904  1
  O  O50  1  0.809128  0.250211  0.357897  1
  O  O51  1  0.305006  0.250220  0.314564  1
  O  O52  1  0.809122  0.250047  0.157576  1
  O  O53  1  0.694857  0.750044  0.200905  1
  O  O54  1  0.190742  0.750227  0.357893  1
  O  O55  1  0.694864  0.750200  0.314569  1
  O  O56  1  0.190765  0.750062  0.157575  1
  O  O57  1  0.250351  0.994861  0.179326  1
  O  O58  1  0.749516  0.005459  0.336148  1
  O  O59  1  0.250314  0.994980  0.336128  1
  O  O60  1  0.749552  0.005287  0.179342  1
  O  O61  1  0.749546  0.494812  0.179335  1
  O  O62  1  0.250329  0.505456  0.336138  1
  O  O63  1  0.749521  0.494955  0.336139  1
  O  O64  1  0.250352  0.505298  0.179333  1
  O  O65  1  0.304113  0.920563  0.217603  1
  O  O66  1  0.803897  0.920021  0.373997  1
  O  O67  1  0.304117  0.920715  0.297859  1
  O  O68  1  0.803879  0.919863  0.141481  1
  O  O69  1  0.695753  0.420540  0.217606  1
  O  O70  1  0.195987  0.420047  0.373994  1
  O  O71  1  0.695755  0.420692  0.297862  1
  O  O72  1  0.195992  0.419884  0.141480  1
  O  O73  1  0.695764  0.079700  0.297867  1
  O  O74  1  0.195983  0.080249  0.141474  1
  O  O75  1  0.695753  0.079547  0.217611  1
  O  O76  1  0.195988  0.080411  0.373988  1
  O  O77  1  0.304122  0.579727  0.297865  1
  O  O78  1  0.803878  0.580227  0.141478  1
  O  O79  1  0.304118  0.579572  0.217610  1
  O  O80  1  0.803891  0.580393  0.373990  1
  O  O81  1  0.394255  0.250136  0.101387  1
  O  O82  1  0.893646  0.250154  0.257732  1
  O  O83  1  0.605618  0.750131  0.101383  1
  O  O84  1  0.106229  0.750157  0.257736  1
  O  O85  1  0.299043  0.250057  0.130150  1
  O  O86  1  0.798347  0.250203  0.286422  1
  O  O87  1  0.299039  0.250226  0.385323  1
  O  O88  1  0.798340  0.250056  0.229049  1
  O  O89  1  0.700827  0.750058  0.130147  1
  O  O90  1  0.201528  0.750215  0.286424  1
  O  O91  1  0.700836  0.750206  0.385320  1
  O  O92  1  0.201531  0.750062  0.229049  1
  O  O93  1  0.203933  0.250142  0.101386  1
  O  O94  1  0.703095  0.250118  0.257737  1
  O  O95  1  0.795942  0.750105  0.101388  1
  O  O96  1  0.296776  0.750146  0.257735  1
  O  O97  1  0.000000  0.000000  0.504882  1
  O  O98  1  0.499926  0.000000  0.661053  1
  O  O99  1  -0.000000  -0.000000  0.635984  1
  O  O100  1  0.499946  -0.000000  0.479809  1
  O  O101  1  -0.000000  0.500049  0.504882  1
  O  O102  1  0.499928  0.500213  0.661056  1
  O  O103  1  -0.000000  0.500226  0.635983  1
  O  O104  1  0.499945  0.500056  0.479808  1
  O  O105  1  0.082414  0.250068  0.515806  1
  O  O106  1  0.582802  0.250187  0.671770  1
  O  O107  1  0.082379  0.250201  0.625056  1
  O  O108  1  0.582827  0.250059  0.469090  1
  O  O109  1  0.917484  0.750060  0.515805  1
  O  O110  1  0.417044  0.750206  0.671772  1
  O  O111  1  0.917463  0.750182  0.625054  1
  O  O112  1  0.417068  0.750073  0.469091  1
  O  O113  1  0.096934  0.922039  0.531324  1
  O  O114  1  0.596357  0.922355  0.687635  1
  O  O115  1  0.096905  0.922161  0.609537  1
  O  O116  1  0.596365  0.922239  0.453228  1
  O  O117  1  0.902944  0.422023  0.531321  1
  O  O118  1  0.403512  0.422377  0.687641  1
  O  O119  1  0.902962  0.422140  0.609535  1
  O  O120  1  0.403509  0.422253  0.453230  1
  O  O121  1  0.902952  0.078216  0.609533  1
  O  O122  1  0.403521  0.077901  0.453226  1
  O  O123  1  0.902950  0.078095  0.531327  1
  O  O124  1  0.403499  0.078023  0.687634  1
  O  O125  1  0.096927  0.578239  0.609539  1
  O  O126  1  0.596357  0.577885  0.453222  1
  O  O127  1  0.096921  0.578109  0.531330  1
  O  O128  1  0.596373  0.578002  0.687632  1
  O  O129  1  0.123495  0.000000  0.489814  1
  O  O130  1  0.623306  0.995605  0.646037  1
  O  O131  1  0.123467  -0.000000  0.651049  1
  O  O132  1  0.623328  0.995478  0.494826  1
  O  O133  1  0.876403  0.499088  0.489809  1
  O  O134  1  0.376549  0.495599  0.646042  1
  O  O135  1  0.876383  0.499210  0.651047  1
  O  O136  1  0.376571  0.495510  0.494830  1
  O  O137  1  0.876364  0.001159  0.651044  1
  O  O138  1  0.376568  0.004649  0.494826  1
  O  O139  1  0.876396  0.001027  0.489815  1
  O  O140  1  0.376540  0.004788  0.646038  1
  O  O141  1  0.123476  0.501163  0.651053  1
  O  O142  1  0.623324  0.504645  0.494822  1
  O  O143  1  0.123491  0.501065  0.489817  1
  O  O144  1  0.623301  0.504771  0.646033  1
  O  O145  1  0.305030  0.250068  0.513601  1
  O  O146  1  0.809128  0.250211  0.670594  1
  O  O147  1  0.305006  0.250220  0.627261  1
  O  O148  1  0.809122  0.250047  0.470273  1
  O  O149  1  0.694857  0.750044  0.513603  1
  O  O150  1  0.190742  0.750227  0.670590  1
  O  O151  1  0.694864  0.750200  0.627266  1
  O  O152  1  0.190765  0.750062  0.470272  1
  O  O153  1  0.250351  0.994861  0.492023  1
  O  O154  1  0.749516  0.005459  0.648845  1
  O  O155  1  0.250314  0.994980  0.648826  1
  O  O156  1  0.749552  0.005287  0.492039  1
  O  O157  1  0.749546  0.494812  0.492032  1
  O  O158  1  0.250329  0.505456  0.648835  1
  O  O159  1  0.749521  0.494955  0.648837  1
  O  O160  1  0.250352  0.505298  0.492031  1
  O  O161  1  0.304113  0.920563  0.530300  1
  O  O162  1  0.803897  0.920021  0.686694  1
  O  O163  1  0.304117  0.920715  0.610556  1
  O  O164  1  0.803879  0.919863  0.454179  1
  O  O165  1  0.695753  0.420540  0.530303  1
  O  O166  1  0.195987  0.420047  0.686691  1
  O  O167  1  0.695755  0.420692  0.610559  1
  O  O168  1  0.195992  0.419884  0.454178  1
  O  O169  1  0.695764  0.079700  0.610564  1
  O  O170  1  0.195983  0.080249  0.454171  1
  O  O171  1  0.695753  0.079547  0.530308  1
  O  O172  1  0.195988  0.080411  0.686685  1
  O  O173  1  0.304122  0.579727  0.610562  1
  O  O174  1  0.803878  0.580227  0.454175  1
  O  O175  1  0.304118  0.579572  0.530307  1
  O  O176  1  0.803891  0.580393  0.686687  1
  O  O177  1  0.394255  0.250136  0.414085  1
  O  O178  1  0.893646  0.250154  0.570430  1
  O  O179  1  0.605618  0.750131  0.414080  1
  O  O180  1  0.106229  0.750157  0.570433  1
  O  O181  1  0.299043  0.250057  0.442847  1
  O  O182  1  0.798347  0.250203  0.599119  1
  O  O183  1  0.299039  0.250226  0.698020  1
  O  O184  1  0.798340  0.250056  0.541746  1
  O  O185  1  0.700827  0.750058  0.442845  1
  O  O186  1  0.201528  0.750215  0.599121  1
  O  O187  1  0.700836  0.750206  0.698017  1
  O  O188  1  0.201531  0.750062  0.541746  1
  O  O189  1  0.203933  0.250142  0.414084  1
  O  O190  1  0.703095  0.250118  0.570434  1
  O  O191  1  0.795942  0.750105  0.414085  1
  O  O192  1  0.296776  0.750146  0.570432  1
  O  O193  1  0.394255  0.250136  0.726782  1
  O  O194  1  0.605618  0.750131  0.726777  1
  O  O195  1  0.203933  0.250142  0.726781  1
  O  O196  1  0.795942  0.750105  0.726782  1
  Si  Si197  1  0.075674  0.043650  0.197790  1
  Si  Si198  1  0.575660  0.043483  0.353964  1
  Si  Si199  1  0.075646  0.043780  0.317677  1
  Si  Si200  1  0.575680  0.043362  0.161505  1
  Si  Si201  1  0.924215  0.543641  0.197788  1
  Si  Si202  1  0.424196  0.543503  0.353968  1
  Si  Si203  1  0.924205  0.543766  0.317676  1
  Si  Si204  1  0.424212  0.543374  0.161507  1
  Si  Si205  1  0.924192  0.956602  0.317676  1
  Si  Si206  1  0.424213  0.956775  0.161503  1
  Si  Si207  1  0.924215  0.956485  0.197793  1
  Si  Si208  1  0.424192  0.956903  0.353963  1
  Si  Si209  1  0.075663  0.456623  0.317679  1
  Si  Si210  1  0.575677  0.456762  0.161501  1
  Si  Si211  1  0.075674  0.456491  0.197794  1
  Si  Si212  1  0.575661  0.456888  0.353962  1
  Si  Si213  1  0.309837  0.043632  0.195661  1
  Si  Si214  1  0.810665  0.043990  0.352216  1
  Si  Si215  1  0.309820  0.043779  0.319803  1
  Si  Si216  1  0.810670  0.043830  0.163260  1
  Si  Si217  1  0.690045  0.543608  0.195663  1
  Si  Si218  1  0.189198  0.544003  0.352213  1
  Si  Si219  1  0.690035  0.543758  0.319805  1
  Si  Si220  1  0.189215  0.543848  0.163260  1
  Si  Si221  1  0.690042  0.956638  0.319809  1
  Si  Si222  1  0.189212  0.956285  0.163255  1
  Si  Si223  1  0.690047  0.956485  0.195667  1
  Si  Si224  1  0.189194  0.956444  0.352209  1
  Si  Si225  1  0.309825  0.456653  0.319808  1
  Si  Si226  1  0.810672  0.456268  0.163258  1
  Si  Si227  1  0.309843  0.456511  0.195666  1
  Si  Si228  1  0.810664  0.456424  0.352210  1
  Si  Si229  1  0.377095  0.250083  0.127814  1
  Si  Si230  1  0.876386  0.250188  0.284142  1
  Si  Si231  1  0.377089  0.250191  0.387658  1
  Si  Si232  1  0.876380  0.250074  0.231323  1
  Si  Si233  1  0.622777  0.750073  0.127810  1
  Si  Si234  1  0.123488  0.750204  0.284145  1
  Si  Si235  1  0.622785  0.750178  0.387654  1
  Si  Si236  1  0.123492  0.750083  0.231326  1
  Si  Si237  1  0.220876  0.250081  0.127828  1
  Si  Si238  1  0.720162  0.250185  0.284188  1
  Si  Si239  1  0.220870  0.250210  0.387641  1
  Si  Si240  1  0.720157  0.250059  0.231285  1
  Si  Si241  1  0.778996  0.750056  0.127830  1
  Si  Si242  1  0.279712  0.750201  0.284186  1
  Si  Si243  1  0.779005  0.750189  0.387643  1
  Si  Si244  1  0.279714  0.750084  0.231283  1
  Si  Si245  1  0.075674  0.043650  0.510487  1
  Si  Si246  1  0.575660  0.043483  0.666661  1
  Si  Si247  1  0.075646  0.043780  0.630374  1
  Si  Si248  1  0.575680  0.043362  0.474202  1
  Si  Si249  1  0.924215  0.543641  0.510486  1
  Si  Si250  1  0.424196  0.543503  0.666665  1
  Si  Si251  1  0.924205  0.543766  0.630373  1
  Si  Si252  1  0.424212  0.543374  0.474204  1
  Si  Si253  1  0.924192  0.956602  0.630373  1
  Si  Si254  1  0.424213  0.956775  0.474201  1
  Si  Si255  1  0.924215  0.956485  0.510490  1
  Si  Si256  1  0.424192  0.956903  0.666660  1
  Si  Si257  1  0.075663  0.456623  0.630376  1
  Si  Si258  1  0.575677  0.456762  0.474198  1
  Si  Si259  1  0.075674  0.456491  0.510491  1
  Si  Si260  1  0.575661  0.456888  0.666659  1
  Si  Si261  1  0.309837  0.043632  0.508358  1
  Si  Si262  1  0.810665  0.043990  0.664913  1
  Si  Si263  1  0.309820  0.043779  0.632500  1
  Si  Si264  1  0.810670  0.043830  0.475958  1
  Si  Si265  1  0.690045  0.543608  0.508360  1
  Si  Si266  1  0.189198  0.544003  0.664910  1
  Si  Si267  1  0.690035  0.543758  0.632502  1
  Si  Si268  1  0.189215  0.543848  0.475958  1
  Si  Si269  1  0.690042  0.956638  0.632507  1
  Si  Si270  1  0.189212  0.956285  0.475952  1
  Si  Si271  1  0.690047  0.956485  0.508364  1
  Si  Si272  1  0.189194  0.956444  0.664906  1
  Si  Si273  1  0.309825  0.456653  0.632505  1
  Si  Si274  1  0.810672  0.456268  0.475955  1
  Si  Si275  1  0.309843  0.456511  0.508364  1
  Si  Si276  1  0.810664  0.456424  0.664908  1
  Si  Si277  1  0.377095  0.250083  0.440511  1
  Si  Si278  1  0.876386  0.250188  0.596839  1
  Si  Si279  1  0.377089  0.250191  0.700355  1
  Si  Si280  1  0.876380  0.250074  0.544020  1
  Si  Si281  1  0.622777  0.750073  0.440507  1
  Si  Si282  1  0.123488  0.750204  0.596843  1
  Si  Si283  1  0.622785  0.750178  0.700351  1
  Si  Si284  1  0.123492  0.750083  0.544024  1
  Si  Si285  1  0.220876  0.250081  0.440526  1
  Si  Si286  1  0.720162  0.250185  0.596885  1
  Si  Si287  1  0.220870  0.250210  0.700338  1
  Si  Si288  1  0.720157  0.250059  0.543982  1
  Si  Si289  1  0.778996  0.750056  0.440527  1
  Si  Si290  1  0.279712  0.750201  0.596883  1
  Si  Si291  1  0.779005  0.750189  0.700340  1
  Si  Si292  1  0.279714  0.750084  0.543980  1
  H  H293  1  0.394255  0.250136  0.085922  1
  H  H294  1  0.605618  0.750131  0.085918  1
  H  H295  1  0.203933  0.250142  0.085921  1
  H  H296  1  0.795942  0.750105  0.085923  1
  H  H297  1  0.394255  0.250136  0.742247  1
  H  H298  1  0.605618  0.750131  0.742242  1
  H  H299  1  0.203933  0.250142  0.742246  1
  H  H300  1  0.795942  0.750105  0.742247  1
