# generated using pymatgen
data_Si17(HO9)4
_symmetry_space_group_name_H-M   'P 1'
_cell_length_a   13.22666398
_cell_length_b   15.58156643
_cell_length_c   38.63829526
_cell_angle_alpha   90.00000000
_cell_angle_beta   120.00000000
_cell_angle_gamma   90.00000000
_symmetry_Int_Tables_number   1
_chemical_formula_structural   Si17(HO9)4
_chemical_formula_sum   'Si34 H8 O72'
_cell_volume   6896.20280231
_cell_formula_units_Z   2
loop_
 _symmetry_equiv_pos_site_id
 _symmetry_equiv_pos_as_xyz
  1  'x, y, z'
loop_
 _atom_site_type_symbol
 _atom_site_label
 _atom_site_symmetry_multiplicity
 _atom_site_fract_x
 _atom_site_fract_y
 _atom_site_fract_z
 _atom_site_occupancy
  O  O1  1  0.617494  0.051817  0.172717  1
  O  O2  1  0.617494  0.448288  0.172717  1
  O  O3  1  0.774100  0.014450  0.249710  1
  O  O4  1  0.430879  0.013951  0.256709  1
  O  O5  1  0.362331  0.051835  0.310217  1
  O  O6  1  0.860669  0.034190  0.324777  1
  O  O7  1  0.563727  0.033665  0.227171  1
  O  O8  1  0.575223  0.034215  0.328677  1
  O  O9  1  0.679530  0.164233  0.229036  1
  O  O10  1  0.464381  0.164223  0.288753  1
  O  O11  1  0.657030  0.250053  0.327820  1
  O  O12  1  0.775594  0.250053  0.296554  1
  O  O13  1  0.565711  0.250053  0.255963  1
  O  O14  1  0.205064  0.514115  0.326910  1
  O  O15  1  0.774100  0.485657  0.249710  1
  O  O16  1  0.430879  0.486155  0.256709  1
  O  O17  1  0.777301  0.609382  0.293864  1
  O  O18  1  0.556886  0.610127  0.255714  1
  O  O19  1  0.665773  0.609299  0.331135  1
  O  O20  1  0.362330  0.448270  0.310217  1
  O  O21  1  0.980173  0.551569  0.303462  1
  O  O22  1  0.382237  0.552142  0.186223  1
  O  O23  1  0.860668  0.465916  0.324777  1
  O  O24  1  0.563727  0.466442  0.227171  1
  O  O25  1  0.575223  0.465891  0.328677  1
  O  O26  1  0.145353  0.664305  0.338418  1
  O  O27  1  0.679531  0.335873  0.229037  1
  O  O28  1  0.464381  0.335883  0.288754  1
  O  O29  1  0.205064  0.985989  0.326909  1
  O  O30  1  0.777301  0.890725  0.293863  1
  O  O31  1  0.556886  0.889979  0.255714  1
  O  O32  1  0.665774  0.890807  0.331135  1
  O  O33  1  0.980173  0.948537  0.303462  1
  O  O34  1  0.382237  0.947964  0.186223  1
  O  O35  1  0.145352  0.835800  0.338418  1
  O  O36  1  0.669007  0.750053  0.294445  1
  O  O37  1  0.794589  0.014554  0.374192  1
  O  O38  1  0.222481  0.109071  0.407269  1
  O  O39  1  0.442863  0.109834  0.445433  1
  O  O40  1  0.333932  0.109891  0.369993  1
  O  O41  1  0.019583  0.051484  0.397621  1
  O  O42  1  0.617494  0.051817  0.514928  1
  O  O43  1  0.854523  0.164384  0.362541  1
  O  O44  1  0.330763  0.250052  0.407636  1
  O  O45  1  0.225570  0.514667  0.451417  1
  O  O46  1  0.568716  0.514174  0.444401  1
  O  O47  1  0.794589  0.485552  0.374192  1
  O  O48  1  0.222480  0.391033  0.407269  1
  O  O49  1  0.442863  0.390270  0.445433  1
  O  O50  1  0.333932  0.390214  0.369993  1
  O  O51  1  0.019582  0.448621  0.397621  1
  O  O52  1  0.617494  0.448288  0.514928  1
  O  O53  1  0.637208  0.551420  0.390861  1
  O  O54  1  0.139060  0.534381  0.376311  1
  O  O55  1  0.435969  0.533875  0.473982  1
  O  O56  1  0.424288  0.533809  0.372400  1
  O  O57  1  0.320107  0.664370  0.471987  1
  O  O58  1  0.535067  0.664163  0.412123  1
  O  O59  1  0.854522  0.335722  0.362541  1
  O  O60  1  0.225570  0.985437  0.451417  1
  O  O61  1  0.568717  0.985930  0.444401  1
  O  O62  1  0.637208  0.948685  0.390861  1
  O  O63  1  0.139060  0.965723  0.376311  1
  O  O64  1  0.435969  0.966229  0.473982  1
  O  O65  1  0.424289  0.966295  0.372400  1
  O  O66  1  0.320108  0.835734  0.471987  1
  O  O67  1  0.535067  0.835941  0.412123  1
  O  O68  1  0.342622  0.750053  0.373126  1
  O  O69  1  0.224049  0.750053  0.404388  1
  O  O70  1  0.433948  0.750052  0.444979  1
  O  O71  1  0.382237  0.552142  0.528434  1
  O  O72  1  0.382237  0.947964  0.528434  1
  Si  Si73  1  0.328129  0.031019  0.343073  1
  Si  Si74  1  0.661837  0.065890  0.218601  1
  Si  Si75  1  0.451898  0.065897  0.294977  1
  Si  Si76  1  0.792961  0.250053  0.340842  1
  Si  Si77  1  0.677718  0.250053  0.250023  1
  Si  Si78  1  0.527637  0.250053  0.289457  1
  Si  Si79  1  0.328129  0.469086  0.343073  1
  Si  Si80  1  0.850107  0.530615  0.291850  1
  Si  Si81  1  0.478175  0.531253  0.230780  1
  Si  Si82  1  0.114261  0.566024  0.334099  1
  Si  Si83  1  0.661838  0.434217  0.218601  1
  Si  Si84  1  0.451898  0.434208  0.294977  1
  Si  Si85  1  0.666946  0.649471  0.293670  1
  Si  Si86  1  0.850108  0.969491  0.291849  1
  Si  Si87  1  0.478175  0.968853  0.230780  1
  Si  Si88  1  0.114261  0.934080  0.334099  1
  Si  Si89  1  0.666946  0.850636  0.293670  1
  Si  Si90  1  0.149635  0.030366  0.409265  1
  Si  Si91  1  0.521532  0.030995  0.470366  1
  Si  Si92  1  0.885557  0.066100  0.366959  1
  Si  Si93  1  0.332827  0.149470  0.407578  1
  Si  Si94  1  0.149635  0.469738  0.409265  1
  Si  Si95  1  0.521532  0.469109  0.470366  1
  Si  Si96  1  0.671489  0.530515  0.358031  1
  Si  Si97  1  0.337833  0.566093  0.482539  1
  Si  Si98  1  0.547536  0.565768  0.406032  1
  Si  Si99  1  0.885556  0.434006  0.366959  1
  Si  Si100  1  0.332827  0.350634  0.407578  1
  Si  Si101  1  0.671489  0.969591  0.358031  1
  Si  Si102  1  0.337834  0.934011  0.482539  1
  Si  Si103  1  0.547536  0.934337  0.406032  1
  Si  Si104  1  0.206702  0.750052  0.360096  1
  Si  Si105  1  0.321932  0.750052  0.450919  1
  Si  Si106  1  0.472000  0.750052  0.411474  1
  H  H107  1  0.617494  0.051817  0.149424  1
  H  H108  1  0.617494  0.448288  0.149424  1
  H  H109  1  0.382237  0.552142  0.162930  1
  H  H110  1  0.382237  0.947964  0.162930  1
  H  H111  1  0.617494  0.051817  0.538221  1
  H  H112  1  0.617494  0.448288  0.538221  1
  H  H113  1  0.382237  0.552142  0.551727  1
  H  H114  1  0.382237  0.947964  0.551727  1
