# generated using pymatgen
data_Si17H2O35
_symmetry_space_group_name_H-M   'P 1'
_cell_length_a   13.22666398
_cell_length_b   15.58156643
_cell_length_c   51.86074264
_cell_angle_alpha   90.00000000
_cell_angle_beta   120.00000000
_cell_angle_gamma   90.00000000
_symmetry_Int_Tables_number   1
_chemical_formula_structural   Si17H2O35
_chemical_formula_sum   'Si68 H8 O140'
_cell_volume   9256.15885295
_cell_formula_units_Z   4
loop_
 _symmetry_equiv_pos_site_id
 _symmetry_equiv_pos_as_xyz
  1  'x, y, z'
loop_
 _atom_site_type_symbol
 _atom_site_label
 _atom_site_symmetry_multiplicity
 _atom_site_fract_x
 _atom_site_fract_y
 _atom_site_fract_z
 _atom_site_occupancy
  O  O1  1  0.617494  0.051817  0.128681  1
  O  O2  1  0.617494  0.448288  0.128681  1
  O  O3  1  0.774100  0.014450  0.186044  1
  O  O4  1  0.430879  0.013951  0.191258  1
  O  O5  1  0.362331  0.051835  0.231124  1
  O  O6  1  0.860669  0.034190  0.241972  1
  O  O7  1  0.563727  0.033665  0.169251  1
  O  O8  1  0.575223  0.034215  0.244877  1
  O  O9  1  0.679530  0.164233  0.170641  1
  O  O10  1  0.464381  0.164223  0.215132  1
  O  O11  1  0.657030  0.250053  0.244239  1
  O  O12  1  0.775594  0.250053  0.220944  1
  O  O13  1  0.565711  0.250053  0.190703  1
  O  O14  1  0.205064  0.514115  0.243561  1
  O  O15  1  0.774100  0.485657  0.186044  1
  O  O16  1  0.430879  0.486155  0.191258  1
  O  O17  1  0.777301  0.609382  0.218940  1
  O  O18  1  0.556886  0.610127  0.190517  1
  O  O19  1  0.665773  0.609299  0.246708  1
  O  O20  1  0.362330  0.448270  0.231124  1
  O  O21  1  0.980173  0.551569  0.226091  1
  O  O22  1  0.382237  0.552142  0.138743  1
  O  O23  1  0.860668  0.465916  0.241972  1
  O  O24  1  0.563727  0.466442  0.169252  1
  O  O25  1  0.575223  0.465891  0.244877  1
  O  O26  1  0.145353  0.664305  0.252135  1
  O  O27  1  0.679531  0.335873  0.170641  1
  O  O28  1  0.464381  0.335883  0.215133  1
  O  O29  1  0.205064  0.985989  0.243560  1
  O  O30  1  0.777301  0.890725  0.218940  1
  O  O31  1  0.556886  0.889979  0.190517  1
  O  O32  1  0.665774  0.890807  0.246708  1
  O  O33  1  0.980173  0.948537  0.226091  1
  O  O34  1  0.382237  0.947964  0.138743  1
  O  O35  1  0.145352  0.835800  0.252135  1
  O  O36  1  0.669007  0.750053  0.219373  1
  O  O37  1  0.794589  0.014554  0.278788  1
  O  O38  1  0.222481  0.109071  0.303432  1
  O  O39  1  0.442863  0.109834  0.331865  1
  O  O40  1  0.333932  0.109891  0.275659  1
  O  O41  1  0.019583  0.051484  0.296243  1
  O  O42  1  0.617494  0.051817  0.383642  1
  O  O43  1  0.854523  0.164384  0.270107  1
  O  O44  1  0.330763  0.250052  0.303705  1
  O  O45  1  0.225570  0.514667  0.336324  1
  O  O46  1  0.568716  0.514174  0.331096  1
  O  O47  1  0.794589  0.485552  0.278788  1
  O  O48  1  0.222480  0.391033  0.303432  1
  O  O49  1  0.442863  0.390270  0.331865  1
  O  O50  1  0.333932  0.390214  0.275659  1
  O  O51  1  0.019582  0.448621  0.296243  1
  O  O52  1  0.617494  0.448288  0.383642  1
  O  O53  1  0.637208  0.551420  0.291207  1
  O  O54  1  0.139060  0.534381  0.280366  1
  O  O55  1  0.435969  0.533875  0.353135  1
  O  O56  1  0.424288  0.533809  0.277453  1
  O  O57  1  0.320107  0.664370  0.351649  1
  O  O58  1  0.535067  0.664163  0.307048  1
  O  O59  1  0.854522  0.335722  0.270107  1
  O  O60  1  0.225570  0.985437  0.336324  1
  O  O61  1  0.568717  0.985930  0.331096  1
  O  O62  1  0.637208  0.948685  0.291207  1
  O  O63  1  0.139060  0.965723  0.280366  1
  O  O64  1  0.435969  0.966229  0.353135  1
  O  O65  1  0.424289  0.966295  0.277453  1
  O  O66  1  0.320108  0.835734  0.351649  1
  O  O67  1  0.535067  0.835941  0.307048  1
  O  O68  1  0.342622  0.750053  0.277994  1
  O  O69  1  0.224049  0.750053  0.301285  1
  O  O70  1  0.433948  0.750052  0.331527  1
  O  O71  1  0.774100  0.014450  0.441004  1
  O  O72  1  0.430879  0.013951  0.446219  1
  O  O73  1  0.362331  0.051835  0.486084  1
  O  O74  1  0.860669  0.034190  0.496933  1
  O  O75  1  0.563727  0.033665  0.424212  1
  O  O76  1  0.575223  0.034215  0.499838  1
  O  O77  1  0.679530  0.164233  0.425602  1
  O  O78  1  0.464381  0.164223  0.470093  1
  O  O79  1  0.657030  0.250053  0.499199  1
  O  O80  1  0.775594  0.250053  0.475905  1
  O  O81  1  0.565711  0.250053  0.445663  1
  O  O82  1  0.205064  0.514115  0.498521  1
  O  O83  1  0.774100  0.485657  0.441005  1
  O  O84  1  0.430879  0.486155  0.446219  1
  O  O85  1  0.777301  0.609382  0.473901  1
  O  O86  1  0.556886  0.610127  0.445477  1
  O  O87  1  0.665773  0.609299  0.501669  1
  O  O88  1  0.362330  0.448270  0.486084  1
  O  O89  1  0.980173  0.551569  0.481052  1
  O  O90  1  0.382237  0.552142  0.393704  1
  O  O91  1  0.860668  0.465916  0.496933  1
  O  O92  1  0.563727  0.466442  0.424212  1
  O  O93  1  0.575223  0.465891  0.499838  1
  O  O94  1  0.145353  0.664305  0.507096  1
  O  O95  1  0.679531  0.335873  0.425602  1
  O  O96  1  0.464381  0.335883  0.470093  1
  O  O97  1  0.205064  0.985989  0.498521  1
  O  O98  1  0.777301  0.890725  0.473900  1
  O  O99  1  0.556886  0.889979  0.445477  1
  O  O100  1  0.665774  0.890807  0.501669  1
  O  O101  1  0.980173  0.948537  0.481052  1
  O  O102  1  0.382237  0.947964  0.393704  1
  O  O103  1  0.145352  0.835800  0.507095  1
  O  O104  1  0.669007  0.750053  0.474334  1
  O  O105  1  0.794589  0.014554  0.533749  1
  O  O106  1  0.222481  0.109071  0.558392  1
  O  O107  1  0.442863  0.109834  0.586826  1
  O  O108  1  0.333932  0.109891  0.530620  1
  O  O109  1  0.019583  0.051484  0.551204  1
  O  O110  1  0.617494  0.051817  0.638602  1
  O  O111  1  0.854523  0.164384  0.525068  1
  O  O112  1  0.330763  0.250052  0.558665  1
  O  O113  1  0.225570  0.514667  0.591284  1
  O  O114  1  0.568716  0.514174  0.586057  1
  O  O115  1  0.794589  0.485552  0.533749  1
  O  O116  1  0.222480  0.391033  0.558392  1
  O  O117  1  0.442863  0.390270  0.586826  1
  O  O118  1  0.333932  0.390214  0.530620  1
  O  O119  1  0.019582  0.448621  0.551204  1
  O  O120  1  0.617494  0.448288  0.638602  1
  O  O121  1  0.637208  0.551420  0.546167  1
  O  O122  1  0.139060  0.534381  0.535327  1
  O  O123  1  0.435969  0.533875  0.608096  1
  O  O124  1  0.424288  0.533809  0.532414  1
  O  O125  1  0.320107  0.664370  0.606609  1
  O  O126  1  0.535067  0.664163  0.562009  1
  O  O127  1  0.854522  0.335722  0.525068  1
  O  O128  1  0.225570  0.985437  0.591284  1
  O  O129  1  0.568717  0.985930  0.586057  1
  O  O130  1  0.637208  0.948685  0.546167  1
  O  O131  1  0.139060  0.965723  0.535327  1
  O  O132  1  0.435969  0.966229  0.608096  1
  O  O133  1  0.424289  0.966295  0.532413  1
  O  O134  1  0.320108  0.835734  0.606610  1
  O  O135  1  0.535067  0.835941  0.562009  1
  O  O136  1  0.342622  0.750053  0.532954  1
  O  O137  1  0.224049  0.750053  0.556246  1
  O  O138  1  0.433948  0.750052  0.586487  1
  O  O139  1  0.382237  0.552142  0.648664  1
  O  O140  1  0.382237  0.947964  0.648665  1
  Si  Si141  1  0.328129  0.031019  0.255603  1
  Si  Si142  1  0.661837  0.065890  0.162866  1
  Si  Si143  1  0.451898  0.065897  0.219769  1
  Si  Si144  1  0.792961  0.250053  0.253941  1
  Si  Si145  1  0.677718  0.250053  0.186277  1
  Si  Si146  1  0.527637  0.250053  0.215657  1
  Si  Si147  1  0.328129  0.469086  0.255603  1
  Si  Si148  1  0.850107  0.530615  0.217439  1
  Si  Si149  1  0.478175  0.531253  0.171940  1
  Si  Si150  1  0.114261  0.566024  0.248917  1
  Si  Si151  1  0.661838  0.434217  0.162867  1
  Si  Si152  1  0.451898  0.434208  0.219769  1
  Si  Si153  1  0.666946  0.649471  0.218796  1
  Si  Si154  1  0.850108  0.969491  0.217439  1
  Si  Si155  1  0.478175  0.968853  0.171940  1
  Si  Si156  1  0.114261  0.934080  0.248917  1
  Si  Si157  1  0.666946  0.850636  0.218796  1
  Si  Si158  1  0.149635  0.030366  0.304918  1
  Si  Si159  1  0.521532  0.030995  0.350441  1
  Si  Si160  1  0.885557  0.066100  0.273399  1
  Si  Si161  1  0.332827  0.149470  0.303661  1
  Si  Si162  1  0.149635  0.469738  0.304918  1
  Si  Si163  1  0.521532  0.469109  0.350441  1
  Si  Si164  1  0.671489  0.530515  0.266747  1
  Si  Si165  1  0.337833  0.566093  0.359511  1
  Si  Si166  1  0.547536  0.565768  0.302510  1
  Si  Si167  1  0.885556  0.434006  0.273399  1
  Si  Si168  1  0.332827  0.350634  0.303661  1
  Si  Si169  1  0.671489  0.969591  0.266747  1
  Si  Si170  1  0.337834  0.934011  0.359511  1
  Si  Si171  1  0.547536  0.934337  0.302510  1
  Si  Si172  1  0.206702  0.750052  0.268286  1
  Si  Si173  1  0.321932  0.750052  0.335952  1
  Si  Si174  1  0.472000  0.750052  0.306564  1
  Si  Si175  1  0.328129  0.031019  0.510563  1
  Si  Si176  1  0.661837  0.065890  0.417827  1
  Si  Si177  1  0.451898  0.065897  0.474730  1
  Si  Si178  1  0.792961  0.250053  0.508902  1
  Si  Si179  1  0.677718  0.250053  0.441238  1
  Si  Si180  1  0.527637  0.250053  0.470618  1
  Si  Si181  1  0.328129  0.469086  0.510563  1
  Si  Si182  1  0.850107  0.530615  0.472400  1
  Si  Si183  1  0.478175  0.531253  0.426900  1
  Si  Si184  1  0.114261  0.566024  0.503877  1
  Si  Si185  1  0.661838  0.434217  0.417827  1
  Si  Si186  1  0.451898  0.434208  0.474730  1
  Si  Si187  1  0.666946  0.649471  0.473757  1
  Si  Si188  1  0.850108  0.969491  0.472400  1
  Si  Si189  1  0.478175  0.968853  0.426900  1
  Si  Si190  1  0.114261  0.934080  0.503877  1
  Si  Si191  1  0.666946  0.850636  0.473757  1
  Si  Si192  1  0.149635  0.030366  0.559879  1
  Si  Si193  1  0.521532  0.030995  0.605402  1
  Si  Si194  1  0.885557  0.066100  0.528360  1
  Si  Si195  1  0.332827  0.149470  0.558622  1
  Si  Si196  1  0.149635  0.469738  0.559879  1
  Si  Si197  1  0.521532  0.469109  0.605402  1
  Si  Si198  1  0.671489  0.530515  0.521708  1
  Si  Si199  1  0.337833  0.566093  0.614471  1
  Si  Si200  1  0.547536  0.565768  0.557470  1
  Si  Si201  1  0.885556  0.434006  0.528359  1
  Si  Si202  1  0.332827  0.350634  0.558622  1
  Si  Si203  1  0.671489  0.969591  0.521708  1
  Si  Si204  1  0.337834  0.934011  0.614471  1
  Si  Si205  1  0.547536  0.934337  0.557470  1
  Si  Si206  1  0.206702  0.750052  0.523246  1
  Si  Si207  1  0.321932  0.750052  0.590913  1
  Si  Si208  1  0.472000  0.750052  0.561525  1
  H  H209  1  0.617494  0.051817  0.111327  1
  H  H210  1  0.617494  0.448288  0.111327  1
  H  H211  1  0.382237  0.552142  0.121389  1
  H  H212  1  0.382237  0.947964  0.121389  1
  H  H213  1  0.617494  0.051817  0.655957  1
  H  H214  1  0.617494  0.448288  0.655957  1
  H  H215  1  0.382237  0.552142  0.666019  1
  H  H216  1  0.382237  0.947964  0.666019  1
