# generated using pymatgen
data_Si36H2O73
_symmetry_space_group_name_H-M   'P 1'
_cell_length_a   14.29860979
_cell_length_b   14.30928535
_cell_length_c   46.54526127
_cell_angle_alpha   90.00000000
_cell_angle_beta   90.00000000
_cell_angle_gamma   120.00000000
_symmetry_Int_Tables_number   1
_chemical_formula_structural   Si36H2O73
_chemical_formula_sum   'Si72 H4 O146'
_cell_volume   8247.41527538
_cell_formula_units_Z   2
loop_
 _symmetry_equiv_pos_site_id
 _symmetry_equiv_pos_as_xyz
  1  'x, y, z'
loop_
 _atom_site_type_symbol
 _atom_site_label
 _atom_site_symmetry_multiplicity
 _atom_site_fract_x
 _atom_site_fract_y
 _atom_site_fract_z
 _atom_site_occupancy
  O  O1  1  0.662804  0.330763  0.126760  1
  O  O2  1  0.548629  0.274174  0.173906  1
  O  O3  1  0.725474  0.274278  0.173448  1
  O  O4  1  0.725348  0.450693  0.173379  1
  O  O5  1  0.404733  0.107695  0.203982  1
  O  O6  1  0.892391  0.297040  0.203652  1
  O  O7  1  0.297320  0.405078  0.203610  1
  O  O8  1  0.703181  0.107877  0.203630  1
  O  O9  1  0.404815  0.296909  0.204049  1
  O  O10  1  0.108048  0.404931  0.203575  1
  O  O11  1  0.550272  0.274891  0.227415  1
  O  O12  1  0.725172  0.274996  0.226977  1
  O  O13  1  0.725065  0.449613  0.226909  1
  O  O14  1  0.669696  0.334994  0.274233  1
  O  O15  1  0.000000  0.378554  0.250091  1
  O  O16  1  0.378423  0.379386  0.250198  1
  O  O17  1  0.500226  0.499960  0.211350  1
  O  O18  1  0.395921  0.104905  0.294848  1
  O  O19  1  0.895402  0.290601  0.294982  1
  O  O20  1  0.290923  0.395497  0.295250  1
  O  O21  1  0.709821  0.104938  0.295036  1
  O  O22  1  0.395887  0.290477  0.294840  1
  O  O23  1  0.105326  0.395533  0.295029  1
  O  O24  1  0.621831  -0.000000  0.250094  1
  O  O25  1  0.500325  0.499869  0.289432  1
  O  O26  1  0.000000  0.499765  0.211299  1
  O  O27  1  0.000000  0.499912  0.289318  1
  O  O28  1  0.545582  0.272509  0.316927  1
  O  O29  1  0.727738  0.272419  0.317286  1
  O  O30  1  0.727744  0.454730  0.317398  1
  O  O31  1  0.545200  0.272615  0.468266  1
  O  O32  1  0.727457  0.272746  0.467817  1
  O  O33  1  0.727221  0.454958  0.467781  1
  O  O34  1  0.353206  0.176277  0.339927  1
  O  O35  1  0.824257  0.176215  0.340032  1
  O  O36  1  0.175908  0.352129  0.340144  1
  O  O37  1  0.175762  0.351796  0.445098  1
  O  O38  1  0.353097  0.176766  0.445207  1
  O  O39  1  0.824052  0.176457  0.445083  1
  O  O40  1  0.000000  0.177955  0.353820  1
  O  O41  1  0.179733  0.179052  0.353760  1
  O  O42  1  0.179256  0.178551  0.431381  1
  O  O43  1  0.000000  0.177859  0.431378  1
  O  O44  1  0.277272  0.138389  0.392557  1
  O  O45  1  0.861735  0.137757  0.392578  1
  O  O46  1  0.138113  0.275657  0.392613  1
  O  O47  1  0.179620  -0.000000  0.353763  1
  O  O48  1  0.180058  0.000000  0.431381  1
  O  O49  1  0.548272  0.274006  0.611273  1
  O  O50  1  0.725051  0.274085  0.611674  1
  O  O51  1  0.724937  0.450570  0.611787  1
  O  O52  1  0.297077  0.405184  0.581604  1
  O  O53  1  0.404285  0.107701  0.581139  1
  O  O54  1  0.891957  0.296873  0.581502  1
  O  O55  1  0.107692  0.404821  0.581621  1
  O  O56  1  0.702669  0.107804  0.581380  1
  O  O57  1  0.404556  0.297003  0.581174  1
  O  O58  1  0.549909  0.274977  0.557757  1
  O  O59  1  0.724841  0.275127  0.558154  1
  O  O60  1  0.724707  0.449718  0.558258  1
  O  O61  1  0.669319  0.335009  0.510924  1
  O  O62  1  0.378248  0.379520  0.535031  1
  O  O63  1  -0.000000  0.378417  0.535102  1
  O  O64  1  0.290517  0.395702  0.490041  1
  O  O65  1  0.395137  0.104950  0.490284  1
  O  O66  1  0.894687  0.290345  0.490232  1
  O  O67  1  0.104608  0.395183  0.490123  1
  O  O68  1  0.708933  0.104886  0.489962  1
  O  O69  1  0.395527  0.290744  0.490339  1
  O  O70  1  0.621062  0.000000  0.534902  1
  O  O71  1  0.000000  0.499641  0.495891  1
  O  O72  1  0.000000  0.499630  0.573919  1
  O  O73  1  0.451574  0.725624  0.173855  1
  O  O74  1  0.274761  0.725531  0.173547  1
  O  O75  1  0.274844  0.549084  0.173331  1
  O  O76  1  0.703141  0.594851  0.203646  1
  O  O77  1  0.595486  0.892113  0.203938  1
  O  O78  1  0.107882  0.702595  0.203723  1
  O  O79  1  0.892253  0.594636  0.203595  1
  O  O80  1  0.297029  0.891899  0.203722  1
  O  O81  1  0.595523  0.702974  0.203981  1
  O  O82  1  0.450058  0.724828  0.227372  1
  O  O83  1  0.275201  0.724785  0.227065  1
  O  O84  1  0.275193  0.550125  0.226866  1
  O  O85  1  0.330891  0.664354  0.274234  1
  O  O86  1  0.378768  0.000000  0.250135  1
  O  O87  1  0.621908  0.620658  0.250176  1
  O  O88  1  0.336806  0.669661  0.126758  1
  O  O89  1  0.000000  0.620909  0.250103  1
  O  O90  1  0.500145  0.000000  0.211247  1
  O  O91  1  0.500373  0.000000  0.289368  1
  O  O92  1  0.709745  0.604270  0.295132  1
  O  O93  1  0.604726  0.894891  0.294802  1
  O  O94  1  0.105282  0.709292  0.294918  1
  O  O95  1  0.895375  0.604222  0.295085  1
  O  O96  1  0.290899  0.894923  0.295058  1
  O  O97  1  0.604666  0.709243  0.294880  1
  O  O98  1  0.454895  0.727319  0.316908  1
  O  O99  1  0.272758  0.727359  0.317255  1
  O  O100  1  0.272726  0.545031  0.317451  1
  O  O101  1  0.454289  0.726988  0.468186  1
  O  O102  1  0.272259  0.727237  0.467955  1
  O  O103  1  0.271964  0.544799  0.467721  1
  O  O104  1  0.824209  0.647547  0.340114  1
  O  O105  1  0.647102  0.823420  0.339928  1
  O  O106  1  0.176152  0.823556  0.340011  1
  O  O107  1  0.646673  0.823139  0.445179  1
  O  O108  1  0.175490  0.822997  0.445117  1
  O  O109  1  0.824384  0.647875  0.445098  1
  O  O110  1  0.820602  0.820729  0.353774  1
  O  O111  1  0.000000  0.821520  0.353777  1
  O  O112  1  0.000000  0.822026  0.431329  1
  O  O113  1  0.820457  0.820844  0.431392  1
  O  O114  1  0.861994  0.723950  0.392597  1
  O  O115  1  0.722799  0.861260  0.392573  1
  O  O116  1  0.138370  0.861902  0.392553  1
  O  O117  1  0.820042  -0.000000  0.431400  1
  O  O118  1  0.820513  0.000000  0.353793  1
  O  O119  1  0.451332  0.725782  0.611268  1
  O  O120  1  0.274553  0.725667  0.611626  1
  O  O121  1  0.274538  0.549182  0.611839  1
  O  O122  1  0.595057  0.892188  0.581086  1
  O  O123  1  0.107527  0.702510  0.581489  1
  O  O124  1  0.702895  0.594964  0.581560  1
  O  O125  1  0.296576  0.891897  0.581412  1
  O  O126  1  0.595269  0.703147  0.581165  1
  O  O127  1  0.891912  0.594544  0.581629  1
  O  O128  1  0.449620  0.724743  0.557762  1
  O  O129  1  0.274770  0.724746  0.558091  1
  O  O130  1  0.274748  0.550075  0.558315  1
  O  O131  1  0.330498  0.664128  0.510924  1
  O  O132  1  0.499464  0.000000  0.495672  1
  O  O133  1  0.000000  0.620748  0.535120  1
  O  O134  1  0.378062  -0.000000  0.534971  1
  O  O135  1  0.621718  0.620776  0.535013  1
  O  O136  1  0.603904  0.894902  0.490189  1
  O  O137  1  0.104629  0.708985  0.490263  1
  O  O138  1  0.709407  0.604651  0.489999  1
  O  O139  1  0.290010  0.894849  0.490066  1
  O  O140  1  0.604181  0.709453  0.490331  1
  O  O141  1  0.894767  0.604058  0.490183  1
  O  O142  1  0.499615  -0.000000  0.573807  1
  O  O143  1  0.500016  0.500105  0.573868  1
  O  O144  1  0.499988  0.500098  0.495777  1
  O  O145  1  0.662804  0.330763  0.658397  1
  O  O146  1  0.336806  0.669661  0.658395  1
  Si  Si147  1  0.391448  0.391325  0.283450  1
  Si  Si148  1  0.469864  0.234824  0.200790  1
  Si  Si149  1  0.765214  0.234982  0.200314  1
  Si  Si150  1  0.235216  0.470088  0.200213  1
  Si  Si151  1  -0.000000  0.391577  0.216778  1
  Si  Si152  1  0.667342  0.333469  0.240654  1
  Si  Si153  1  0.391760  0.391908  0.216889  1
  Si  Si154  1  0.665871  0.332649  0.160225  1
  Si  Si155  1  0.000000  0.391222  0.283347  1
  Si  Si156  1  0.609190  -0.000000  0.283349  1
  Si  Si157  1  0.608588  -0.000000  0.216789  1
  Si  Si158  1  0.666918  0.333612  0.477254  1
  Si  Si159  1  0.667283  0.333408  0.307903  1
  Si  Si160  1  0.420819  0.210144  0.311459  1
  Si  Si161  1  0.790247  0.210177  0.311647  1
  Si  Si162  1  0.210324  0.420283  0.311794  1
  Si  Si163  1  0.209770  0.420070  0.473423  1
  Si  Si164  1  0.420442  0.210403  0.473718  1
  Si  Si165  1  0.789705  0.210223  0.473448  1
  Si  Si166  1  0.250062  0.124746  0.359523  1
  Si  Si167  1  0.875368  0.124085  0.359560  1
  Si  Si168  1  0.124703  0.248665  0.359579  1
  Si  Si169  1  0.124458  0.248426  0.425633  1
  Si  Si170  1  0.250024  0.124744  0.425588  1
  Si  Si171  1  0.875120  0.124107  0.425614  1
  Si  Si172  1  0.666959  0.333587  0.544503  1
  Si  Si173  1  0.608317  -0.000000  0.501650  1
  Si  Si174  1  0.665558  0.332513  0.624930  1
  Si  Si175  1  0.234870  0.470097  0.584980  1
  Si  Si176  1  0.469515  0.234808  0.584384  1
  Si  Si177  1  0.764759  0.234863  0.584788  1
  Si  Si178  1  0.391547  0.392041  0.568339  1
  Si  Si179  1  0.000000  0.391444  0.568415  1
  Si  Si180  1  0.391132  0.391553  0.501778  1
  Si  Si181  1  0.000000  0.390953  0.501846  1
  Si  Si182  1  0.608028  0.000000  0.568213  1
  Si  Si183  1  0.333058  0.666196  0.240655  1
  Si  Si184  1  0.334241  0.667210  0.160224  1
  Si  Si185  1  0.765079  0.529672  0.200257  1
  Si  Si186  1  0.530392  0.764993  0.200734  1
  Si  Si187  1  0.235062  0.764793  0.200415  1
  Si  Si188  1  0.391726  0.000000  0.216825  1
  Si  Si189  1  0.608655  0.608072  0.216869  1
  Si  Si190  1  -0.000000  0.607907  0.216794  1
  Si  Si191  1  0.609111  0.608482  0.283428  1
  Si  Si192  1  0.391535  0.000000  0.283382  1
  Si  Si193  1  0.000000  0.608518  0.283359  1
  Si  Si194  1  0.332621  0.666113  0.477254  1
  Si  Si195  1  0.333181  0.666320  0.307904  1
  Si  Si196  1  0.790197  0.579465  0.311752  1
  Si  Si197  1  0.579651  0.789627  0.311436  1
  Si  Si198  1  0.210324  0.789674  0.311635  1
  Si  Si199  1  0.579067  0.789542  0.473649  1
  Si  Si200  1  0.209645  0.789369  0.473539  1
  Si  Si201  1  0.789856  0.579684  0.473440  1
  Si  Si202  1  0.875504  0.750972  0.359564  1
  Si  Si203  1  0.750161  0.874905  0.359551  1
  Si  Si204  1  0.124848  0.875552  0.359524  1
  Si  Si205  1  0.749901  0.874901  0.425611  1
  Si  Si206  1  0.124809  0.875543  0.425580  1
  Si  Si207  1  0.875491  0.751208  0.425617  1
  Si  Si208  1  0.390674  -0.000000  0.501718  1
  Si  Si209  1  0.332586  0.666110  0.544503  1
  Si  Si210  1  0.334050  0.667330  0.624929  1
  Si  Si211  1  0.608774  0.608734  0.501762  1
  Si  Si212  1  0.530065  0.765106  0.584373  1
  Si  Si213  1  0.234723  0.764804  0.584755  1
  Si  Si214  1  0.764729  0.529667  0.584937  1
  Si  Si215  1  0.000000  0.607781  0.568431  1
  Si  Si216  1  0.391178  0.000000  0.568276  1
  Si  Si217  1  0.608435  0.608210  0.568322  1
  Si  Si218  1  0.000000  0.608270  0.501865  1
  H  H219  1  0.662804  0.330763  0.107424  1
  H  H220  1  0.336806  0.669661  0.107422  1
  H  H221  1  0.662804  0.330763  0.677733  1
  H  H222  1  0.336806  0.669661  0.677731  1
