# generated using pymatgen
data_Si15H2O31
_symmetry_space_group_name_H-M   'P 1'
_cell_length_a   17.25651483
_cell_length_b   25.40291210
_cell_length_c   68.92401625
_cell_angle_alpha   132.78789079
_cell_angle_beta   120.00000000
_cell_angle_gamma   70.14486815
_symmetry_Int_Tables_number   1
_chemical_formula_structural   Si15H2O31
_chemical_formula_sum   'Si180 H24 O372'
_cell_volume   19202.5531378
_cell_formula_units_Z   12
loop_
 _symmetry_equiv_pos_site_id
 _symmetry_equiv_pos_as_xyz
  1  'x, y, z'
loop_
 _atom_site_type_symbol
 _atom_site_label
 _atom_site_symmetry_multiplicity
 _atom_site_fract_x
 _atom_site_fract_y
 _atom_site_fract_z
 _atom_site_occupancy
  O  O1  1  0.150253  0.035698  0.170012  1
  O  O2  1  0.424939  0.035749  0.238852  1
  O  O3  1  0.424904  0.035658  0.169958  1
  O  O4  1  0.251695  0.040745  0.214656  1
  O  O5  1  0.251635  0.040698  0.153248  1
  O  O6  1  0.015160  0.322719  0.164149  1
  O  O7  1  0.249085  0.322669  0.164066  1
  O  O8  1  0.084089  0.010774  0.190506  1
  O  O9  1  0.317994  0.010741  0.120417  1
  O  O10  1  0.317784  0.011086  0.249184  1
  O  O11  1  0.084003  0.010800  0.120473  1
  O  O12  1  0.135690  0.135053  0.217834  1
  O  O13  1  0.333151  0.135044  0.168247  1
  O  O14  1  0.333151  0.135150  0.267290  1
  O  O15  1  0.135684  0.135031  0.168266  1
  O  O16  1  0.170413  0.230292  0.221239  1
  O  O17  1  0.414814  0.230419  0.221207  1
  O  O18  1  0.075984  0.266077  0.248198  1
  O  O19  1  0.342571  0.266054  0.188467  1
  O  O20  1  0.076024  0.266011  0.188541  1
  O  O21  1  0.242687  0.233611  0.265137  1
  O  O22  1  0.242721  0.233541  0.197060  1
  O  O23  1  0.496418  0.040793  0.214625  1
  O  O24  1  0.483490  0.369018  0.169973  1
  O  O25  1  0.348686  0.655890  0.164073  1
  O  O26  1  0.417216  0.344235  0.190493  1
  O  O27  1  0.417233  0.344084  0.120427  1
  O  O28  1  0.468946  0.468377  0.217794  1
  O  O29  1  0.468999  0.468305  0.168222  1
  O  O30  1  0.251830  0.436393  0.252424  1
  O  O31  1  0.085384  0.400768  0.219950  1
  O  O32  1  0.323889  0.400782  0.219885  1
  O  O33  1  0.409267  0.599375  0.248198  1
  O  O34  1  0.409322  0.599307  0.188480  1
  O  O35  1  0.091480  0.702432  0.238795  1
  O  O36  1  0.091528  0.702275  0.169958  1
  O  O37  1  0.163289  0.707337  0.214610  1
  O  O38  1  0.264457  0.677508  0.249099  1
  O  O39  1  0.264492  0.677457  0.190494  1
  O  O40  1  0.197675  0.801723  0.267263  1
  O  O41  1  0.197679  0.801658  0.217803  1
  O  O42  1  0.081434  0.896961  0.221205  1
  O  O43  1  0.418533  0.734097  0.219882  1
  O  O44  1  0.009401  0.932492  0.188437  1
  O  O45  1  0.247848  0.932660  0.248233  1
  O  O46  1  0.180989  0.900161  0.265091  1
  O  O47  1  0.597866  0.010886  0.249093  1
  O  O48  1  0.597868  0.010829  0.190577  1
  O  O49  1  0.531011  0.135124  0.267270  1
  O  O50  1  0.530992  0.135028  0.217804  1
  O  O51  1  0.918416  0.102855  0.252357  1
  O  O52  1  0.751987  0.067341  0.219953  1
  O  O53  1  0.990623  0.067184  0.219839  1
  O  O54  1  0.581308  0.265933  0.248219  1
  O  O55  1  0.514295  0.233573  0.265083  1
  O  O56  1  0.758127  0.369008  0.238761  1
  O  O57  1  0.758187  0.369021  0.169950  1
  O  O58  1  0.584821  0.373938  0.214599  1
  O  O59  1  0.829749  0.374136  0.214612  1
  O  O60  1  0.584873  0.373993  0.153209  1
  O  O61  1  0.582474  0.655851  0.164028  1
  O  O62  1  0.931142  0.344186  0.249074  1
  O  O63  1  0.651259  0.344225  0.120427  1
  O  O64  1  0.651423  0.344171  0.249132  1
  O  O65  1  0.931218  0.344229  0.190594  1
  O  O66  1  0.864283  0.468389  0.267258  1
  O  O67  1  0.666495  0.468405  0.168251  1
  O  O68  1  0.666319  0.468342  0.267223  1
  O  O69  1  0.864270  0.468419  0.217811  1
  O  O70  1  0.503546  0.563657  0.221197  1
  O  O71  1  0.748138  0.563796  0.221238  1
  O  O72  1  0.675884  0.599357  0.188470  1
  O  O73  1  0.914643  0.599296  0.248234  1
  O  O74  1  0.575944  0.566878  0.265081  1
  O  O75  1  0.847688  0.566888  0.265109  1
  O  O76  1  0.576032  0.566850  0.197063  1
  O  O77  1  0.816642  0.702327  0.169963  1
  O  O78  1  0.918209  0.707516  0.214649  1
  O  O79  1  0.918242  0.707314  0.153270  1
  O  O80  1  0.681846  0.989303  0.164122  1
  O  O81  1  0.915945  0.989079  0.164029  1
  O  O82  1  0.750629  0.677579  0.190543  1
  O  O83  1  0.984554  0.677373  0.120415  1
  O  O84  1  0.984561  0.677604  0.249120  1
  O  O85  1  0.750687  0.677489  0.120418  1
  O  O86  1  0.802234  0.801787  0.217826  1
  O  O87  1  0.802317  0.801664  0.168256  1
  O  O88  1  0.584947  0.769709  0.252377  1
  O  O89  1  0.837006  0.897012  0.221236  1
  O  O90  1  0.657146  0.734033  0.219865  1
  O  O91  1  0.742699  0.932749  0.248241  1
  O  O92  1  0.742671  0.932628  0.188502  1
  O  O93  1  0.909390  0.900272  0.265134  1
  O  O94  1  0.909360  0.900139  0.197043  1
  O  O95  1  -0.000000  0.801798  0.267296  1
  O  O96  1  -0.000000  0.801580  0.168226  1
  O  O97  1  0.182795  0.297619  0.364844  1
  O  O98  1  0.150253  0.035698  0.420373  1
  O  O99  1  0.424939  0.035749  0.489212  1
  O  O100  1  0.424904  0.035658  0.420318  1
  O  O101  1  0.081531  0.292488  0.320169  1
  O  O102  1  0.081508  0.292754  0.381664  1
  O  O103  1  0.251695  0.040745  0.465017  1
  O  O104  1  0.251635  0.040698  0.403608  1
  O  O105  1  0.249118  0.322413  0.344337  1
  O  O106  1  0.015160  0.322719  0.414510  1
  O  O107  1  0.015317  0.322397  0.285712  1
  O  O108  1  0.249085  0.322669  0.414426  1
  O  O109  1  0.084089  0.010774  0.440867  1
  O  O110  1  0.317994  0.010741  0.370777  1
  O  O111  1  0.317784  0.011086  0.499544  1
  O  O112  1  0.084003  0.010800  0.370834  1
  O  O113  1  0.197386  0.198223  0.317039  1
  O  O114  1  0.197339  0.198425  0.366660  1
  O  O115  1  0.135690  0.135053  0.468194  1
  O  O116  1  0.333151  0.135044  0.418607  1
  O  O117  1  0.333151  0.135150  0.517650  1
  O  O118  1  0.135684  0.135031  0.418626  1
  O  O119  1  0.162682  0.103067  0.313683  1
  O  O120  1  0.170413  0.230292  0.471600  1
  O  O121  1  0.414784  0.230500  0.282492  1
  O  O122  1  0.414814  0.230419  0.471567  1
  O  O123  1  0.257072  0.067327  0.286701  1
  O  O124  1  0.257176  0.067468  0.346420  1
  O  O125  1  0.075984  0.266077  0.498558  1
  O  O126  1  0.342571  0.266054  0.438827  1
  O  O127  1  0.342556  0.266009  0.314989  1
  O  O128  1  0.076024  0.266011  0.438902  1
  O  O129  1  0.090407  0.099676  0.269733  1
  O  O130  1  0.090428  0.099946  0.337893  1
  O  O131  1  0.242687  0.233611  0.515497  1
  O  O132  1  0.242721  0.233541  0.447420  1
  O  O133  1  0.496418  0.040793  0.464986  1
  O  O134  1  -0.000000  0.198138  0.267521  1
  O  O135  1  -0.000000  0.198487  0.361003  1
  O  O136  1  0.241693  0.631132  0.296119  1
  O  O137  1  0.241655  0.631038  0.364907  1
  O  O138  1  0.483490  0.369018  0.420333  1
  O  O139  1  0.414973  0.625955  0.320229  1
  O  O140  1  0.169930  0.626122  0.320292  1
  O  O141  1  0.414897  0.625959  0.381561  1
  O  O142  1  0.068704  0.655934  0.285791  1
  O  O143  1  0.348686  0.655890  0.414433  1
  O  O144  1  0.348623  0.655900  0.285771  1
  O  O145  1  0.068641  0.655910  0.344352  1
  O  O146  1  0.417216  0.344235  0.440853  1
  O  O147  1  0.417233  0.344084  0.370788  1
  O  O148  1  0.135571  0.531747  0.267644  1
  O  O149  1  0.333397  0.531667  0.366619  1
  O  O150  1  0.333400  0.531709  0.267596  1
  O  O151  1  0.135479  0.531732  0.317061  1
  O  O152  1  0.468946  0.468377  0.468154  1
  O  O153  1  0.468999  0.468305  0.418583  1
  O  O154  1  0.496134  0.436297  0.313579  1
  O  O155  1  0.251830  0.436393  0.502784  1
  O  O156  1  0.251650  0.436347  0.313665  1
  O  O157  1  0.085384  0.400768  0.470310  1
  O  O158  1  0.323851  0.400696  0.346397  1
  O  O159  1  0.323889  0.400782  0.470246  1
  O  O160  1  0.085217  0.400783  0.286630  1
  O  O161  1  0.409267  0.599375  0.498559  1
  O  O162  1  0.409322  0.599307  0.438840  1
  O  O163  1  0.423964  0.433171  0.269715  1
  O  O164  1  0.152291  0.433235  0.269800  1
  O  O165  1  0.423728  0.433137  0.337768  1
  O  O166  1  0.091480  0.702432  0.489155  1
  O  O167  1  0.091528  0.702275  0.420319  1
  O  O168  1  0.163289  0.707337  0.464970  1
  O  O169  1  0.401935  0.989286  0.285799  1
  O  O170  1  0.401982  0.989246  0.344325  1
  O  O171  1  0.264457  0.677508  0.499460  1
  O  O172  1  0.264492  0.677457  0.440854  1
  O  O173  1  0.468774  0.865083  0.267608  1
  O  O174  1  0.468819  0.865075  0.317057  1
  O  O175  1  0.197675  0.801723  0.517624  1
  O  O176  1  0.197679  0.801658  0.468163  1
  O  O177  1  0.081462  0.897103  0.282502  1
  O  O178  1  0.081434  0.896961  0.471565  1
  O  O179  1  0.418533  0.734097  0.470242  1
  O  O180  1  0.418582  0.734107  0.286627  1
  O  O181  1  0.247844  0.932707  0.314967  1
  O  O182  1  0.009401  0.932492  0.438798  1
  O  O183  1  0.009187  0.932775  0.315008  1
  O  O184  1  0.247848  0.932660  0.498593  1
  O  O185  1  0.485390  0.766578  0.269747  1
  O  O186  1  0.180989  0.900161  0.515451  1
  O  O187  1  0.908341  0.297546  0.296022  1
  O  O188  1  0.908245  0.297784  0.364959  1
  O  O189  1  0.836836  0.292549  0.320262  1
  O  O190  1  0.735465  0.322428  0.285775  1
  O  O191  1  0.735296  0.322590  0.344307  1
  O  O192  1  0.597866  0.010886  0.499454  1
  O  O193  1  0.597868  0.010829  0.440937  1
  O  O194  1  0.802299  0.198230  0.267628  1
  O  O195  1  0.802329  0.198398  0.317129  1
  O  O196  1  0.531011  0.135124  0.517631  1
  O  O197  1  0.530992  0.135028  0.468164  1
  O  O198  1  0.918416  0.102855  0.502718  1
  O  O199  1  0.918370  0.103106  0.313758  1
  O  O200  1  0.751987  0.067341  0.470314  1
  O  O201  1  0.990525  0.067470  0.346483  1
  O  O202  1  0.990623  0.067184  0.470199  1
  O  O203  1  0.751947  0.067460  0.286678  1
  O  O204  1  0.581197  0.266052  0.314966  1
  O  O205  1  0.581308  0.265933  0.498579  1
  O  O206  1  0.819091  0.099801  0.269834  1
  O  O207  1  0.514295  0.233573  0.515444  1
  O  O208  1  0.516504  0.630970  0.364861  1
  O  O209  1  0.758127  0.369008  0.489121  1
  O  O210  1  0.758187  0.369021  0.420310  1
  O  O211  1  0.584821  0.373938  0.464960  1
  O  O212  1  0.829749  0.374136  0.464973  1
  O  O213  1  0.584873  0.373993  0.403570  1
  O  O214  1  0.582580  0.655790  0.344316  1
  O  O215  1  0.582474  0.655851  0.414388  1
  O  O216  1  0.931142  0.344186  0.499434  1
  O  O217  1  0.651259  0.344225  0.370787  1
  O  O218  1  0.651423  0.344171  0.499492  1
  O  O219  1  0.931218  0.344229  0.440954  1
  O  O220  1  0.530935  0.531591  0.317025  1
  O  O221  1  0.530767  0.531626  0.366558  1
  O  O222  1  0.864283  0.468389  0.517618  1
  O  O223  1  0.666495  0.468405  0.418611  1
  O  O224  1  0.666319  0.468342  0.517584  1
  O  O225  1  0.864270  0.468419  0.468171  1
  O  O226  1  0.503546  0.563657  0.471557  1
  O  O227  1  0.748040  0.563696  0.282448  1
  O  O228  1  0.748138  0.563796  0.471598  1
  O  O229  1  0.590658  0.400615  0.286653  1
  O  O230  1  0.590471  0.400751  0.346341  1
  O  O231  1  0.914498  0.599314  0.314963  1
  O  O232  1  0.675884  0.599357  0.438831  1
  O  O233  1  0.675864  0.599310  0.314942  1
  O  O234  1  0.914643  0.599296  0.498595  1
  O  O235  1  0.575944  0.566878  0.515442  1
  O  O236  1  0.847688  0.566888  0.515470  1
  O  O237  1  0.576032  0.566850  0.447423  1
  O  O238  1  0.849581  0.964252  0.364863  1
  O  O239  1  0.574939  0.964375  0.296070  1
  O  O240  1  0.574964  0.964469  0.364932  1
  O  O241  1  0.816642  0.702327  0.420324  1
  O  O242  1  0.748209  0.959287  0.320234  1
  O  O243  1  0.748242  0.959375  0.381658  1
  O  O244  1  0.918209  0.707516  0.465010  1
  O  O245  1  0.918242  0.707314  0.403631  1
  O  O246  1  0.915830  0.989113  0.344373  1
  O  O247  1  0.681846  0.989303  0.414482  1
  O  O248  1  0.681888  0.989151  0.285746  1
  O  O249  1  0.915945  0.989079  0.414389  1
  O  O250  1  0.750629  0.677579  0.440903  1
  O  O251  1  0.984554  0.677373  0.370776  1
  O  O252  1  0.984561  0.677604  0.499480  1
  O  O253  1  0.750687  0.677489  0.370778  1
  O  O254  1  0.864075  0.864870  0.317016  1
  O  O255  1  0.666574  0.865099  0.366639  1
  O  O256  1  0.666746  0.864973  0.267591  1
  O  O257  1  0.864066  0.864928  0.366575  1
  O  O258  1  0.802234  0.801787  0.468186  1
  O  O259  1  0.503322  0.959396  0.320272  1
  O  O260  1  0.802317  0.801664  0.418616  1
  O  O261  1  0.829513  0.769526  0.313602  1
  O  O262  1  0.584947  0.769709  0.502737  1
  O  O263  1  0.584981  0.769759  0.313638  1
  O  O264  1  0.837006  0.897012  0.471597  1
  O  O265  1  0.923779  0.733993  0.286624  1
  O  O266  1  0.657085  0.734063  0.346362  1
  O  O267  1  0.657146  0.734033  0.470226  1
  O  O268  1  0.923745  0.734020  0.346386  1
  O  O269  1  0.742699  0.932749  0.498602  1
  O  O270  1  0.742671  0.932628  0.438862  1
  O  O271  1  0.757028  0.766400  0.269722  1
  O  O272  1  0.756996  0.766551  0.337800  1
  O  O273  1  0.909390  0.900272  0.515494  1
  O  O274  1  0.909360  0.900139  0.447404  1
  O  O275  1  -0.000000  0.801798  0.517657  1
  O  O276  1  -0.000000  0.801580  0.418587  1
  O  O277  1  0.182795  0.297619  0.615204  1
  O  O278  1  0.081531  0.292488  0.570529  1
  O  O279  1  0.081508  0.292754  0.632024  1
  O  O280  1  0.249118  0.322413  0.594697  1
  O  O281  1  0.015160  0.322719  0.664870  1
  O  O282  1  0.015317  0.322397  0.536073  1
  O  O283  1  0.249085  0.322669  0.664787  1
  O  O284  1  0.317994  0.010741  0.621138  1
  O  O285  1  0.084003  0.010800  0.621194  1
  O  O286  1  0.197386  0.198223  0.567399  1
  O  O287  1  0.197339  0.198425  0.617020  1
  O  O288  1  0.162682  0.103067  0.564043  1
  O  O289  1  0.414784  0.230500  0.532853  1
  O  O290  1  0.257072  0.067327  0.537062  1
  O  O291  1  0.257176  0.067468  0.596780  1
  O  O292  1  0.342556  0.266009  0.565349  1
  O  O293  1  0.090407  0.099676  0.520094  1
  O  O294  1  0.090428  0.099946  0.588253  1
  O  O295  1  0.000000  0.198138  0.517881  1
  O  O296  1  -0.000000  0.198487  0.611363  1
  O  O297  1  0.241693  0.631132  0.546479  1
  O  O298  1  0.241655  0.631038  0.615267  1
  O  O299  1  0.414973  0.625955  0.570589  1
  O  O300  1  0.169930  0.626122  0.570652  1
  O  O301  1  0.414897  0.625959  0.631921  1
  O  O302  1  0.068704  0.655934  0.536151  1
  O  O303  1  0.348686  0.655890  0.664793  1
  O  O304  1  0.348623  0.655900  0.536132  1
  O  O305  1  0.068641  0.655910  0.594712  1
  O  O306  1  0.417233  0.344084  0.621148  1
  O  O307  1  0.135571  0.531747  0.518004  1
  O  O308  1  0.333397  0.531667  0.616980  1
  O  O309  1  0.333400  0.531709  0.517956  1
  O  O310  1  0.135479  0.531732  0.567421  1
  O  O311  1  0.496134  0.436297  0.563939  1
  O  O312  1  0.251650  0.436347  0.564026  1
  O  O313  1  0.323851  0.400696  0.596757  1
  O  O314  1  0.085217  0.400783  0.536991  1
  O  O315  1  0.423964  0.433171  0.520075  1
  O  O316  1  0.152291  0.433235  0.520160  1
  O  O317  1  0.423728  0.433137  0.588129  1
  O  O318  1  0.401935  0.989286  0.536159  1
  O  O319  1  0.401982  0.989246  0.594685  1
  O  O320  1  0.468774  0.865083  0.517968  1
  O  O321  1  0.468819  0.865075  0.567418  1
  O  O322  1  0.081462  0.897103  0.532862  1
  O  O323  1  0.418582  0.734107  0.536987  1
  O  O324  1  0.247844  0.932707  0.565327  1
  O  O325  1  0.009187  0.932775  0.565368  1
  O  O326  1  0.485390  0.766578  0.520107  1
  O  O327  1  0.908341  0.297546  0.546383  1
  O  O328  1  0.908245  0.297784  0.615319  1
  O  O329  1  0.836836  0.292549  0.570623  1
  O  O330  1  0.735465  0.322428  0.536135  1
  O  O331  1  0.735296  0.322590  0.594668  1
  O  O332  1  0.802299  0.198230  0.517988  1
  O  O333  1  0.802329  0.198398  0.567489  1
  O  O334  1  0.918370  0.103106  0.564119  1
  O  O335  1  0.990525  0.067470  0.596844  1
  O  O336  1  0.751947  0.067460  0.537038  1
  O  O337  1  0.581197  0.266052  0.565326  1
  O  O338  1  0.819091  0.099801  0.520194  1
  O  O339  1  0.516504  0.630970  0.615221  1
  O  O340  1  0.582580  0.655790  0.594676  1
  O  O341  1  0.582474  0.655851  0.664749  1
  O  O342  1  0.651259  0.344225  0.621148  1
  O  O343  1  0.530935  0.531591  0.567386  1
  O  O344  1  0.530767  0.531626  0.616919  1
  O  O345  1  0.748040  0.563696  0.532808  1
  O  O346  1  0.590658  0.400615  0.537014  1
  O  O347  1  0.590471  0.400751  0.596701  1
  O  O348  1  0.914498  0.599314  0.565324  1
  O  O349  1  0.675864  0.599310  0.565302  1
  O  O350  1  0.849581  0.964252  0.615223  1
  O  O351  1  0.574939  0.964375  0.546430  1
  O  O352  1  0.574964  0.964469  0.615292  1
  O  O353  1  0.748209  0.959287  0.570594  1
  O  O354  1  0.748242  0.959375  0.632018  1
  O  O355  1  0.915830  0.989113  0.594734  1
  O  O356  1  0.681846  0.989303  0.664843  1
  O  O357  1  0.681888  0.989151  0.536107  1
  O  O358  1  0.915945  0.989079  0.664750  1
  O  O359  1  0.984554  0.677373  0.621136  1
  O  O360  1  0.750687  0.677489  0.621139  1
  O  O361  1  0.864075  0.864870  0.567377  1
  O  O362  1  0.666574  0.865099  0.616999  1
  O  O363  1  0.666746  0.864973  0.517952  1
  O  O364  1  0.864066  0.864928  0.616935  1
  O  O365  1  0.503322  0.959396  0.570633  1
  O  O366  1  0.829513  0.769526  0.563962  1
  O  O367  1  0.584981  0.769759  0.563999  1
  O  O368  1  0.923779  0.733993  0.536985  1
  O  O369  1  0.657085  0.734063  0.596722  1
  O  O370  1  0.923745  0.734020  0.596746  1
  O  O371  1  0.757028  0.766400  0.520082  1
  O  O372  1  0.756996  0.766551  0.588161  1
  Si  Si373  1  0.154630  0.052414  0.197154  1
  Si  Si374  1  0.333174  0.052399  0.152293  1
  Si  Si375  1  0.333172  0.052496  0.241908  1
  Si  Si376  1  0.154616  0.052392  0.152323  1
  Si  Si377  1  0.154657  0.217504  0.193746  1
  Si  Si378  1  0.154585  0.217533  0.238379  1
  Si  Si379  1  0.333494  0.217535  0.193706  1
  Si  Si380  1  0.487841  0.385737  0.197113  1
  Si  Si381  1  0.487854  0.385667  0.152275  1
  Si  Si382  1  0.154881  0.449283  0.251745  1
  Si  Si383  1  0.333098  0.449239  0.251698  1
  Si  Si384  1  0.487810  0.550856  0.238340  1
  Si  Si385  1  0.487890  0.550786  0.193698  1
  Si  Si386  1  0.026680  0.333417  0.190742  1
  Si  Si387  1  0.333196  0.333453  0.190660  1
  Si  Si388  1  0.026606  0.333366  0.267404  1
  Si  Si389  1  0.178778  0.719087  0.241850  1
  Si  Si390  1  0.359967  0.666675  0.190661  1
  Si  Si391  1  0.178807  0.719014  0.197114  1
  Si  Si392  1  0.487990  0.782599  0.251684  1
  Si  Si393  1  0.178402  0.884132  0.238355  1
  Si  Si394  1  -0.000000  0.000000  0.190625  1
  Si  Si395  1  0.359960  0.666714  0.267425  1
  Si  Si396  1  0.000000  0.884063  0.193693  1
  Si  Si397  1  0.693300  0.000000  0.190716  1
  Si  Si398  1  0.512122  0.052473  0.241872  1
  Si  Si399  1  0.512097  0.052398  0.197135  1
  Si  Si400  1  0.821562  0.115758  0.251732  1
  Si  Si401  1  0.693286  -0.000000  0.267433  1
  Si  Si402  1  0.511744  0.217510  0.238346  1
  Si  Si403  1  -0.000000  0.115677  0.251640  1
  Si  Si404  1  0.845401  0.385748  0.241837  1
  Si  Si405  1  0.666449  0.385762  0.152286  1
  Si  Si406  1  0.666408  0.385687  0.241834  1
  Si  Si407  1  0.845413  0.385774  0.197128  1
  Si  Si408  1  0.666829  0.550876  0.193727  1
  Si  Si409  1  0.845075  0.550898  0.238378  1
  Si  Si410  1  -0.000000  0.719168  0.241872  1
  Si  Si411  1  0.821271  0.884134  0.193727  1
  Si  Si412  1  0.821130  0.719146  0.197143  1
  Si  Si413  1  0.666508  0.666722  0.190647  1
  Si  Si414  1  0.821141  0.719018  0.152291  1
  Si  Si415  1  0.666303  0.782501  0.251675  1
  Si  Si416  1  0.821259  0.884250  0.238391  1
  Si  Si417  1  -0.000000  0.718951  0.152284  1
  Si  Si418  1  -0.000000  0.280788  0.292929  1
  Si  Si419  1  0.306552  0.000000  0.344187  1
  Si  Si420  1  0.333498  0.217611  0.283194  1
  Si  Si421  1  0.178520  0.280872  0.337707  1
  Si  Si422  1  0.178491  0.281056  0.382578  1
  Si  Si423  1  0.154630  0.052414  0.447515  1
  Si  Si424  1  0.333174  0.052399  0.402653  1
  Si  Si425  1  0.333172  0.052496  0.492269  1
  Si  Si426  1  0.154616  0.052392  0.402683  1
  Si  Si427  1  0.178443  0.115767  0.296511  1
  Si  Si428  1  0.154657  0.217504  0.444106  1
  Si  Si429  1  0.178514  0.115942  0.341200  1
  Si  Si430  1  0.154585  0.217533  0.488740  1
  Si  Si431  1  0.333494  0.217535  0.444067  1
  Si  Si432  1  0.306449  -0.000000  0.267474  1
  Si  Si433  1  0.333135  0.333298  0.344198  1
  Si  Si434  1  0.154424  0.614404  0.293055  1
  Si  Si435  1  0.333419  0.614299  0.382559  1
  Si  Si436  1  0.333404  0.614354  0.293022  1
  Si  Si437  1  0.154373  0.614374  0.337761  1
  Si  Si438  1  0.487841  0.385737  0.447474  1
  Si  Si439  1  0.487854  0.385667  0.402635  1
  Si  Si440  1  0.154881  0.449283  0.502105  1
  Si  Si441  1  0.332993  0.449183  0.341152  1
  Si  Si442  1  0.333098  0.449239  0.502058  1
  Si  Si443  1  0.154756  0.449257  0.296520  1
  Si  Si444  1  0.487810  0.550856  0.488700  1
  Si  Si445  1  0.487890  0.550786  0.444058  1
  Si  Si446  1  0.026680  0.333417  0.441103  1
  Si  Si447  1  0.333196  0.333453  0.441020  1
  Si  Si448  1  0.026606  0.333366  0.517765  1
  Si  Si449  1  0.487682  0.947715  0.293032  1
  Si  Si450  1  0.487742  0.947715  0.337757  1
  Si  Si451  1  0.178778  0.719087  0.492210  1
  Si  Si452  1  0.359967  0.666675  0.441021  1
  Si  Si453  1  0.178807  0.719014  0.447475  1
  Si  Si454  1  0.487990  0.782599  0.502045  1
  Si  Si455  1  0.488027  0.782593  0.296485  1
  Si  Si456  1  0.178388  0.884193  0.283169  1
  Si  Si457  1  0.178402  0.884132  0.488716  1
  Si  Si458  1  -0.000000  0.000000  0.440985  1
  Si  Si459  1  0.359960  0.666714  0.517786  1
  Si  Si460  1  -0.000000  0.884063  0.444053  1
  Si  Si461  1  -0.000000  0.884281  0.283211  1
  Si  Si462  1  0.821179  0.280879  0.293022  1
  Si  Si463  1  0.693300  0.000000  0.441076  1
  Si  Si464  1  0.821108  0.281036  0.337774  1
  Si  Si465  1  0.512122  0.052473  0.492232  1
  Si  Si466  1  0.512097  0.052398  0.447496  1
  Si  Si467  1  0.821562  0.115758  0.502092  1
  Si  Si468  1  0.693286  -0.000000  0.517794  1
  Si  Si469  1  0.821493  0.115915  0.296566  1
  Si  Si470  1  0.511724  0.217594  0.283163  1
  Si  Si471  1  0.511744  0.217510  0.488706  1
  Si  Si472  1  0.640034  0.333292  0.267450  1
  Si  Si473  1  -0.000000  0.115677  0.502001  1
  Si  Si474  1  -0.000000  0.115995  0.341257  1
  Si  Si475  1  -0.000000  0.281112  0.382643  1
  Si  Si476  1  -0.000000  0.000000  0.344244  1
  Si  Si477  1  0.512042  0.614236  0.337704  1
  Si  Si478  1  0.511970  0.614276  0.382525  1
  Si  Si479  1  0.845401  0.385748  0.492197  1
  Si  Si480  1  0.666449  0.385762  0.402646  1
  Si  Si481  1  0.666408  0.385687  0.492194  1
  Si  Si482  1  0.845413  0.385774  0.447489  1
  Si  Si483  1  0.512030  0.449117  0.296464  1
  Si  Si484  1  0.511800  0.449157  0.341080  1
  Si  Si485  1  0.845023  0.550859  0.283161  1
  Si  Si486  1  0.666829  0.550876  0.444088  1
  Si  Si487  1  0.666700  0.550812  0.283130  1
  Si  Si488  1  0.845075  0.550898  0.488739  1
  Si  Si489  1  0.639872  0.333415  0.344183  1
  Si  Si490  1  0.973179  0.666655  0.344192  1
  Si  Si491  1  0.666600  0.666649  0.344173  1
  Si  Si492  1  0.000000  0.719168  0.492232  1
  Si  Si493  1  0.821271  0.884134  0.444087  1
  Si  Si494  1  0.845223  0.947516  0.337718  1
  Si  Si495  1  0.666647  0.947744  0.382615  1
  Si  Si496  1  0.666693  0.947615  0.293002  1
  Si  Si497  1  0.845238  0.947570  0.382554  1
  Si  Si498  1  0.821130  0.719146  0.447504  1
  Si  Si499  1  0.666508  0.666722  0.441007  1
  Si  Si500  1  0.821141  0.719018  0.402652  1
  Si  Si501  1  0.845161  0.782393  0.296462  1
  Si  Si502  1  0.666207  0.782629  0.341152  1
  Si  Si503  1  0.666303  0.782501  0.502035  1
  Si  Si504  1  0.845143  0.782452  0.341113  1
  Si  Si505  1  0.821259  0.884250  0.488752  1
  Si  Si506  1  -0.000000  0.718951  0.402644  1
  Si  Si507  1  0.973241  0.666711  0.267445  1
  Si  Si508  1  0.000000  0.280788  0.543290  1
  Si  Si509  1  0.306552  -0.000000  0.594548  1
  Si  Si510  1  0.333498  0.217611  0.533554  1
  Si  Si511  1  0.178520  0.280872  0.588067  1
  Si  Si512  1  0.178491  0.281056  0.632938  1
  Si  Si513  1  0.178443  0.115767  0.546871  1
  Si  Si514  1  0.178514  0.115942  0.591560  1
  Si  Si515  1  0.306449  -0.000000  0.517834  1
  Si  Si516  1  0.333135  0.333298  0.594558  1
  Si  Si517  1  0.154424  0.614404  0.543416  1
  Si  Si518  1  0.333419  0.614299  0.632919  1
  Si  Si519  1  0.333404  0.614354  0.543382  1
  Si  Si520  1  0.154373  0.614374  0.588122  1
  Si  Si521  1  0.332993  0.449183  0.591512  1
  Si  Si522  1  0.154756  0.449257  0.546880  1
  Si  Si523  1  0.487682  0.947715  0.543393  1
  Si  Si524  1  0.487742  0.947715  0.588117  1
  Si  Si525  1  0.488027  0.782593  0.546845  1
  Si  Si526  1  0.178388  0.884193  0.533529  1
  Si  Si527  1  -0.000000  0.884281  0.533571  1
  Si  Si528  1  0.821179  0.280879  0.543383  1
  Si  Si529  1  0.821108  0.281036  0.588134  1
  Si  Si530  1  0.821493  0.115915  0.546926  1
  Si  Si531  1  0.511724  0.217594  0.533523  1
  Si  Si532  1  0.640034  0.333292  0.517811  1
  Si  Si533  1  -0.000000  0.115995  0.591618  1
  Si  Si534  1  0.000000  0.281112  0.633004  1
  Si  Si535  1  -0.000000  0.000000  0.594605  1
  Si  Si536  1  0.512042  0.614236  0.588065  1
  Si  Si537  1  0.511970  0.614276  0.632885  1
  Si  Si538  1  0.512030  0.449117  0.546824  1
  Si  Si539  1  0.511800  0.449157  0.591441  1
  Si  Si540  1  0.845023  0.550859  0.533522  1
  Si  Si541  1  0.666700  0.550812  0.533490  1
  Si  Si542  1  0.639872  0.333415  0.594544  1
  Si  Si543  1  0.973179  0.666655  0.594552  1
  Si  Si544  1  0.666600  0.666649  0.594533  1
  Si  Si545  1  0.845223  0.947516  0.588078  1
  Si  Si546  1  0.666647  0.947744  0.632976  1
  Si  Si547  1  0.666693  0.947615  0.543363  1
  Si  Si548  1  0.845238  0.947570  0.632915  1
  Si  Si549  1  0.845161  0.782393  0.546822  1
  Si  Si550  1  0.666207  0.782629  0.591512  1
  Si  Si551  1  0.845143  0.782452  0.591473  1
  Si  Si552  1  0.973241  0.666711  0.517805  1
  H  H553  1  0.015160  0.322719  0.151092  1
  H  H554  1  0.249085  0.322669  0.151008  1
  H  H555  1  0.317994  0.010741  0.107359  1
  H  H556  1  0.084003  0.010800  0.107415  1
  H  H557  1  0.348686  0.655890  0.151015  1
  H  H558  1  0.417233  0.344084  0.107369  1
  H  H559  1  0.582474  0.655851  0.150970  1
  H  H560  1  0.651259  0.344225  0.107369  1
  H  H561  1  0.681846  0.989303  0.151064  1
  H  H562  1  0.915945  0.989079  0.150971  1
  H  H563  1  0.984554  0.677373  0.107357  1
  H  H564  1  0.750687  0.677489  0.107360  1
  H  H565  1  0.015160  0.322719  0.677928  1
  H  H566  1  0.249085  0.322669  0.677845  1
  H  H567  1  0.317994  0.010741  0.634196  1
  H  H568  1  0.084003  0.010800  0.634252  1
  H  H569  1  0.348686  0.655890  0.677851  1
  H  H570  1  0.417233  0.344084  0.634206  1
  H  H571  1  0.582474  0.655851  0.677806  1
  H  H572  1  0.651259  0.344225  0.634206  1
  H  H573  1  0.681846  0.989303  0.677901  1
  H  H574  1  0.915945  0.989079  0.677808  1
  H  H575  1  0.984554  0.677373  0.634194  1
  H  H576  1  0.750687  0.677489  0.634196  1
