# generated using pymatgen
data_Si14H2O29
_symmetry_space_group_name_H-M   'P 1'
_cell_length_a   18.24638661
_cell_length_b   18.24573394
_cell_length_c   42.05842202
_cell_angle_alpha   90.00000000
_cell_angle_beta   90.00000000
_cell_angle_gamma   90.00000000
_symmetry_Int_Tables_number   1
_chemical_formula_structural   Si14H2O29
_chemical_formula_sum   'Si112 H16 O232'
_cell_volume   14002.0358315
_cell_formula_units_Z   8
loop_
 _symmetry_equiv_pos_site_id
 _symmetry_equiv_pos_as_xyz
  1  'x, y, z'
loop_
 _atom_site_type_symbol
 _atom_site_label
 _atom_site_symmetry_multiplicity
 _atom_site_fract_x
 _atom_site_fract_y
 _atom_site_fract_z
 _atom_site_occupancy
  O  O1  1  0.876801  0.258297  0.236386  1
  O  O2  1  0.741746  0.123221  0.236385  1
  O  O3  1  0.241741  0.376719  0.285014  1
  O  O4  1  0.376801  0.241644  0.285012  1
  O  O5  1  0.949756  0.242138  0.185086  1
  O  O6  1  0.757902  0.050272  0.185084  1
  O  O7  1  0.826382  0.314704  0.185923  1
  O  O8  1  0.685331  0.173641  0.185925  1
  O  O9  1  0.822708  0.177325  0.194199  1
  O  O10  1  0.951697  0.243514  0.286376  1
  O  O11  1  0.756522  0.048329  0.286378  1
  O  O12  1  0.256522  0.451615  0.235022  1
  O  O13  1  0.451695  0.256433  0.235022  1
  O  O14  1  0.825452  0.313802  0.286763  1
  O  O15  1  0.686236  0.174567  0.286763  1
  O  O16  1  0.186236  0.325378  0.234635  1
  O  O17  1  0.325448  0.186144  0.234634  1
  O  O18  1  0.824279  0.175754  0.277982  1
  O  O19  1  0.324278  0.324192  0.243419  1
  O  O20  1  0.088755  0.253043  0.199884  1
  O  O21  1  0.253094  0.088672  0.199884  1
  O  O22  1  0.045524  0.230840  0.140284  1
  O  O23  1  0.034784  0.134562  0.183582  1
  O  O24  1  0.134597  0.034752  0.183572  1
  O  O25  1  0.188088  0.188015  0.232956  1
  O  O26  1  0.688090  0.311929  0.288442  1
  O  O27  1  0.081674  0.252318  0.260448  1
  O  O28  1  0.252373  0.081589  0.260447  1
  O  O29  1  0.752374  0.418356  0.260951  1
  O  O30  1  0.581674  0.247626  0.260950  1
  O  O31  1  0.038041  0.136414  0.284937  1
  O  O32  1  0.136458  0.038007  0.284944  1
  O  O33  1  0.636458  0.461938  0.236456  1
  O  O34  1  0.538042  0.363530  0.236462  1
  O  O35  1  0.746008  0.427520  0.200722  1
  O  O36  1  0.572507  0.254004  0.200722  1
  O  O37  1  0.065243  0.065178  0.234508  1
  O  O38  1  0.565245  0.434761  0.286892  1
  O  O39  1  0.690707  0.309317  0.181527  1
  O  O40  1  0.618354  0.239487  0.140283  1
  O  O41  1  0.230901  0.045440  0.140283  1
  O  O42  1  0.760529  0.381675  0.140282  1
  O  O43  1  0.500020  0.499975  0.242516  1
  O  O44  1  0.257915  0.449678  0.425924  1
  O  O45  1  0.449771  0.257820  0.425920  1
  O  O46  1  0.257904  0.449669  0.336315  1
  O  O47  1  0.449758  0.257807  0.336312  1
  O  O48  1  0.185346  0.326308  0.426753  1
  O  O49  1  0.326397  0.185251  0.426754  1
  O  O50  1  0.185333  0.326302  0.335478  1
  O  O51  1  0.326384  0.185239  0.335475  1
  O  O52  1  0.322722  0.322626  0.435035  1
  O  O53  1  0.322710  0.322617  0.327199  1
  O  O54  1  0.753119  0.411263  0.440715  1
  O  O55  1  0.588772  0.246899  0.440713  1
  O  O56  1  0.753099  0.411272  0.321514  1
  O  O57  1  0.588756  0.246902  0.321514  1
  O  O58  1  0.730903  0.454497  0.381116  1
  O  O59  1  0.545525  0.269099  0.381114  1
  O  O60  1  0.634624  0.465202  0.424413  1
  O  O61  1  0.534815  0.365385  0.424410  1
  O  O62  1  0.634601  0.465191  0.337827  1
  O  O63  1  0.534788  0.365382  0.337819  1
  O  O64  1  0.072510  0.245941  0.320676  1
  O  O65  1  0.246010  0.072423  0.320676  1
  O  O66  1  0.072525  0.245949  0.441560  1
  O  O67  1  0.246031  0.072433  0.441558  1
  O  O68  1  0.500022  0.499971  0.331001  1
  O  O69  1  0.190708  0.190626  0.339872  1
  O  O70  1  0.190720  0.190632  0.422362  1
  O  O71  1  0.118353  0.260450  0.381117  1
  O  O72  1  0.260532  0.118266  0.381117  1
  O  O73  1  0.500042  0.499968  0.431233  1
  O  O74  1  0.241746  0.376712  0.477220  1
  O  O75  1  0.376816  0.241646  0.477219  1
  O  O76  1  0.876809  0.258293  0.525847  1
  O  O77  1  0.741747  0.123222  0.525847  1
  O  O78  1  0.949773  0.242118  0.577143  1
  O  O79  1  0.757917  0.050256  0.577143  1
  O  O80  1  0.826397  0.314684  0.576314  1
  O  O81  1  0.685351  0.173626  0.576316  1
  O  O82  1  0.822725  0.177309  0.568031  1
  O  O83  1  0.256537  0.451613  0.527211  1
  O  O84  1  0.451718  0.256429  0.527206  1
  O  O85  1  0.951716  0.243502  0.475860  1
  O  O86  1  0.756537  0.048319  0.475859  1
  O  O87  1  0.186254  0.325375  0.527602  1
  O  O88  1  0.325471  0.186148  0.527599  1
  O  O89  1  0.825470  0.313787  0.475465  1
  O  O90  1  0.686254  0.174558  0.475464  1
  O  O91  1  0.324297  0.324192  0.518814  1
  O  O92  1  0.824296  0.175741  0.484252  1
  O  O93  1  0.088773  0.253038  0.562353  1
  O  O94  1  0.253120  0.088673  0.562351  1
  O  O95  1  0.500046  0.499965  0.519720  1
  O  O96  1  0.034817  0.134552  0.578656  1
  O  O97  1  0.134625  0.034733  0.578653  1
  O  O98  1  0.688109  0.311921  0.473785  1
  O  O99  1  0.188108  0.188014  0.529280  1
  O  O100  1  0.752397  0.418342  0.501278  1
  O  O101  1  0.581696  0.247620  0.501277  1
  O  O102  1  0.081694  0.252314  0.501790  1
  O  O103  1  0.252397  0.081594  0.501787  1
  O  O104  1  0.636487  0.461934  0.525775  1
  O  O105  1  0.538075  0.363520  0.525774  1
  O  O106  1  0.038073  0.136412  0.477293  1
  O  O107  1  0.136487  0.038000  0.477291  1
  O  O108  1  0.746032  0.427501  0.561507  1
  O  O109  1  0.572528  0.253979  0.561506  1
  O  O110  1  0.565258  0.434749  0.475343  1
  O  O111  1  0.065259  0.065184  0.527724  1
  O  O112  1  0.690719  0.309303  0.580704  1
  O  O113  1  0.123251  0.741630  0.236386  1
  O  O114  1  0.258299  0.876712  0.236387  1
  O  O115  1  0.758299  0.623228  0.285014  1
  O  O116  1  0.623247  0.758309  0.285015  1
  O  O117  1  0.050281  0.757806  0.185091  1
  O  O118  1  0.242133  0.949677  0.185089  1
  O  O119  1  0.173662  0.685247  0.185917  1
  O  O120  1  0.314701  0.826309  0.185921  1
  O  O121  1  0.177326  0.822622  0.194202  1
  O  O122  1  0.048337  0.756422  0.286371  1
  O  O123  1  0.243512  0.951611  0.286376  1
  O  O124  1  0.743513  0.548333  0.235022  1
  O  O125  1  0.548338  0.743519  0.235028  1
  O  O126  1  0.174585  0.686137  0.286769  1
  O  O127  1  0.313796  0.825374  0.286770  1
  O  O128  1  0.813796  0.674569  0.234631  1
  O  O129  1  0.674585  0.813805  0.234634  1
  O  O130  1  0.175754  0.824184  0.277981  1
  O  O131  1  0.675755  0.675758  0.243419  1
  O  O132  1  0.911278  0.746903  0.199879  1
  O  O133  1  0.746939  0.911277  0.199883  1
  O  O134  1  0.965252  0.865383  0.183577  1
  O  O135  1  0.865441  0.965197  0.183576  1
  O  O136  1  0.811946  0.811931  0.232952  1
  O  O137  1  0.311946  0.688012  0.288449  1
  O  O138  1  0.918358  0.747624  0.260443  1
  O  O139  1  0.747666  0.918356  0.260446  1
  O  O140  1  0.247665  0.581585  0.260956  1
  O  O141  1  0.418362  0.752319  0.260960  1
  O  O142  1  0.961990  0.863522  0.284937  1
  O  O143  1  0.863580  0.961938  0.284942  1
  O  O144  1  0.363580  0.538007  0.236459  1
  O  O145  1  0.461990  0.636421  0.236462  1
  O  O146  1  0.254030  0.572434  0.200727  1
  O  O147  1  0.427526  0.745961  0.200730  1
  O  O148  1  0.934802  0.934755  0.234507  1
  O  O149  1  0.434804  0.565190  0.286892  1
  O  O150  1  0.381707  0.760455  0.140287  1
  O  O151  1  0.309339  0.690632  0.181530  1
  O  O152  1  0.239533  0.618262  0.140283  1
  O  O153  1  0.954538  0.769097  0.140281  1
  O  O154  1  0.769160  0.954500  0.140282  1
  O  O155  1  -0.000000  -0.000000  0.278885  1
  O  O156  1  -0.000000  -0.000000  0.190398  1
  O  O157  1  0.742177  0.550260  0.425919  1
  O  O158  1  0.550315  0.742118  0.425920  1
  O  O159  1  0.742137  0.550267  0.336312  1
  O  O160  1  0.550282  0.742135  0.336311  1
  O  O161  1  0.814740  0.673635  0.426756  1
  O  O162  1  0.673685  0.814685  0.426757  1
  O  O163  1  0.814704  0.673635  0.335479  1
  O  O164  1  0.673662  0.814696  0.335482  1
  O  O165  1  0.677364  0.677308  0.435035  1
  O  O166  1  0.677327  0.677320  0.327199  1
  O  O167  1  0.246968  0.588676  0.440719  1
  O  O168  1  0.411321  0.753039  0.440723  1
  O  O169  1  0.246942  0.588666  0.321520  1
  O  O170  1  0.411278  0.753038  0.321523  1
  O  O171  1  0.269160  0.545437  0.381119  1
  O  O172  1  0.454538  0.730842  0.381121  1
  O  O173  1  0.365461  0.534744  0.424409  1
  O  O174  1  0.465273  0.634555  0.424414  1
  O  O175  1  0.365443  0.534743  0.337824  1
  O  O176  1  0.465253  0.634558  0.337823  1
  O  O177  1  0.927528  0.753987  0.320672  1
  O  O178  1  0.754032  0.927511  0.320676  1
  O  O179  1  0.927562  0.754000  0.441553  1
  O  O180  1  0.754049  0.927507  0.441560  1
  O  O181  1  0.809338  0.809311  0.339871  1
  O  O182  1  0.809359  0.809312  0.422361  1
  O  O183  1  0.881707  0.739487  0.381114  1
  O  O184  1  0.739531  0.881676  0.381118  1
  O  O185  1  0.758338  0.623212  0.477219  1
  O  O186  1  0.623266  0.758280  0.477221  1
  O  O187  1  0.123265  0.741655  0.525847  1
  O  O188  1  0.258333  0.876721  0.525848  1
  O  O189  1  0.050317  0.757817  0.577150  1
  O  O190  1  0.242178  0.949676  0.577147  1
  O  O191  1  0.173687  0.685246  0.576309  1
  O  O192  1  0.314741  0.826301  0.576310  1
  O  O193  1  0.177365  0.822625  0.568033  1
  O  O194  1  0.743554  0.548317  0.527210  1
  O  O195  1  0.548376  0.743494  0.527213  1
  O  O196  1  0.048376  0.756437  0.475854  1
  O  O197  1  0.243554  0.951617  0.475856  1
  O  O198  1  0.813841  0.674557  0.527598  1
  O  O199  1  0.674618  0.813784  0.527599  1
  O  O200  1  0.174618  0.686146  0.475471  1
  O  O201  1  0.313840  0.825377  0.475471  1
  O  O202  1  0.675797  0.675739  0.518815  1
  O  O203  1  0.175795  0.824194  0.484252  1
  O  O204  1  0.911323  0.746897  0.562346  1
  O  O205  1  0.746969  0.911256  0.562351  1
  O  O206  1  -0.000000  -0.000000  0.483347  1
  O  O207  1  0.965276  0.865383  0.578654  1
  O  O208  1  0.865462  0.965191  0.578659  1
  O  O209  1  0.311980  0.688015  0.473792  1
  O  O210  1  0.811981  0.811918  0.529277  1
  O  O211  1  0.247694  0.581590  0.501282  1
  O  O212  1  0.418395  0.752313  0.501287  1
  O  O213  1  0.918396  0.747620  0.501782  1
  O  O214  1  0.747692  0.918343  0.501788  1
  O  O215  1  0.363605  0.537994  0.525776  1
  O  O216  1  0.462017  0.636407  0.525776  1
  O  O217  1  0.962019  0.863526  0.477294  1
  O  O218  1  0.863602  0.961935  0.477291  1
  O  O219  1  0.254058  0.572426  0.561510  1
  O  O220  1  0.427564  0.745936  0.561516  1
  O  O221  1  0.434826  0.565182  0.475343  1
  O  O222  1  0.934824  0.934756  0.527725  1
  O  O223  1  0.309361  0.690625  0.580708  1
  O  O224  1  -0.000000  -0.000000  0.571834  1
  O  O225  1  0.045524  0.230840  0.621952  1
  O  O226  1  0.618354  0.239487  0.621950  1
  O  O227  1  0.230901  0.045440  0.621951  1
  O  O228  1  0.760529  0.381675  0.621949  1
  O  O229  1  0.381707  0.760455  0.621954  1
  O  O230  1  0.239533  0.618262  0.621951  1
  O  O231  1  0.954538  0.769097  0.621948  1
  O  O232  1  0.769160  0.954500  0.621949  1
  Si  Si233  1  0.559553  0.440440  0.249807  1
  Si  Si234  1  0.871048  0.248234  0.199622  1
  Si  Si235  1  0.751805  0.128981  0.199622  1
  Si  Si236  1  0.871411  0.247750  0.273203  1
  Si  Si237  1  0.752290  0.128614  0.273203  1
  Si  Si238  1  0.252289  0.371330  0.248197  1
  Si  Si239  1  0.371409  0.252194  0.248194  1
  Si  Si240  1  0.030060  0.218637  0.176750  1
  Si  Si241  1  0.218671  0.029989  0.176749  1
  Si  Si242  1  0.135579  0.256085  0.231399  1
  Si  Si243  1  0.256149  0.135496  0.231399  1
  Si  Si244  1  0.756151  0.364448  0.289999  1
  Si  Si245  1  0.635579  0.243860  0.289998  1
  Si  Si246  1  0.034680  0.221676  0.288741  1
  Si  Si247  1  0.221717  0.034606  0.288742  1
  Si  Si248  1  0.721716  0.465338  0.232656  1
  Si  Si249  1  0.534678  0.278268  0.232657  1
  Si  Si250  1  0.757515  0.362163  0.176819  1
  Si  Si251  1  0.637865  0.242504  0.176820  1
  Si  Si252  1  0.059358  0.059314  0.197460  1
  Si  Si253  1  0.059552  0.059502  0.271594  1
  Si  Si254  1  0.251815  0.370965  0.440457  1
  Si  Si255  1  0.371063  0.251717  0.440456  1
  Si  Si256  1  0.251805  0.370961  0.321778  1
  Si  Si257  1  0.371049  0.251708  0.321776  1
  Si  Si258  1  0.718696  0.469950  0.417582  1
  Si  Si259  1  0.530075  0.281309  0.417581  1
  Si  Si260  1  0.718676  0.469952  0.344650  1
  Si  Si261  1  0.530061  0.281306  0.344649  1
  Si  Si262  1  0.137866  0.257438  0.344580  1
  Si  Si263  1  0.257517  0.137780  0.344580  1
  Si  Si264  1  0.137876  0.257443  0.417653  1
  Si  Si265  1  0.257530  0.137788  0.417653  1
  Si  Si266  1  0.559383  0.440628  0.438295  1
  Si  Si267  1  0.559361  0.440629  0.323940  1
  Si  Si268  1  0.637878  0.242490  0.585413  1
  Si  Si269  1  0.059579  0.059501  0.490638  1
  Si  Si270  1  0.559579  0.440431  0.512428  1
  Si  Si271  1  0.059384  0.059308  0.564772  1
  Si  Si272  1  0.871063  0.248220  0.562610  1
  Si  Si273  1  0.751818  0.128969  0.562611  1
  Si  Si274  1  0.252304  0.371326  0.514038  1
  Si  Si275  1  0.371430  0.252196  0.514036  1
  Si  Si276  1  0.871428  0.247738  0.489029  1
  Si  Si277  1  0.752303  0.128607  0.489029  1
  Si  Si278  1  0.030075  0.218628  0.585485  1
  Si  Si279  1  0.218697  0.029986  0.585484  1
  Si  Si280  1  0.756172  0.364437  0.472230  1
  Si  Si281  1  0.635598  0.243853  0.472227  1
  Si  Si282  1  0.135597  0.256082  0.530838  1
  Si  Si283  1  0.256172  0.135499  0.530836  1
  Si  Si284  1  0.721746  0.465325  0.529574  1
  Si  Si285  1  0.534703  0.278257  0.529572  1
  Si  Si286  1  0.034701  0.221675  0.473495  1
  Si  Si287  1  0.221746  0.034610  0.473491  1
  Si  Si288  1  0.757529  0.362148  0.585413  1
  Si  Si289  1  0.440486  0.559509  0.249807  1
  Si  Si290  1  0.128994  0.751708  0.199622  1
  Si  Si291  1  0.248231  0.870966  0.199624  1
  Si  Si292  1  0.128626  0.752185  0.273203  1
  Si  Si293  1  0.247745  0.871323  0.273205  1
  Si  Si294  1  0.747745  0.628619  0.248196  1
  Si  Si295  1  0.628626  0.747757  0.248198  1
  Si  Si296  1  0.969982  0.781306  0.176748  1
  Si  Si297  1  0.781369  0.969958  0.176748  1
  Si  Si298  1  0.864454  0.743861  0.231394  1
  Si  Si299  1  0.743886  0.864451  0.231397  1
  Si  Si300  1  0.243886  0.635492  0.290005  1
  Si  Si301  1  0.364455  0.756082  0.290007  1
  Si  Si302  1  0.965354  0.778259  0.288737  1
  Si  Si303  1  0.778322  0.965334  0.288742  1
  Si  Si304  1  0.278321  0.534610  0.232659  1
  Si  Si305  1  0.465355  0.721685  0.232664  1
  Si  Si306  1  0.242532  0.637785  0.176820  1
  Si  Si307  1  0.362177  0.757448  0.176823  1
  Si  Si308  1  0.940682  0.940628  0.197460  1
  Si  Si309  1  0.940486  0.940435  0.271593  1
  Si  Si310  1  0.440683  0.559314  0.323940  1
  Si  Si311  1  0.748273  0.628969  0.440456  1
  Si  Si312  1  0.629023  0.748215  0.440457  1
  Si  Si313  1  0.748233  0.628978  0.321777  1
  Si  Si314  1  0.628993  0.748234  0.321779  1
  Si  Si315  1  0.281387  0.529989  0.417585  1
  Si  Si316  1  0.470007  0.718631  0.417586  1
  Si  Si317  1  0.281371  0.529983  0.344653  1
  Si  Si318  1  0.469982  0.718635  0.344653  1
  Si  Si319  1  0.862178  0.742496  0.344578  1
  Si  Si320  1  0.742532  0.862158  0.344581  1
  Si  Si321  1  0.862202  0.742501  0.417652  1
  Si  Si322  1  0.742547  0.862154  0.417654  1
  Si  Si323  1  0.440702  0.559310  0.438295  1
  Si  Si324  1  0.440512  0.559498  0.512428  1
  Si  Si325  1  0.940510  0.940436  0.490639  1
  Si  Si326  1  0.940703  0.940628  0.564773  1
  Si  Si327  1  0.362203  0.757437  0.585417  1
  Si  Si328  1  0.129023  0.751717  0.562611  1
  Si  Si329  1  0.248272  0.870965  0.562611  1
  Si  Si330  1  0.747789  0.628604  0.514037  1
  Si  Si331  1  0.628660  0.747732  0.514039  1
  Si  Si332  1  0.128659  0.752200  0.489029  1
  Si  Si333  1  0.247786  0.871331  0.489030  1
  Si  Si334  1  0.970009  0.781306  0.585483  1
  Si  Si335  1  0.781388  0.969946  0.585484  1
  Si  Si336  1  0.243917  0.635499  0.472234  1
  Si  Si337  1  0.364494  0.756081  0.472237  1
  Si  Si338  1  0.864496  0.743853  0.530832  1
  Si  Si339  1  0.743917  0.864433  0.530835  1
  Si  Si340  1  0.278347  0.534605  0.529576  1
  Si  Si341  1  0.465390  0.721668  0.529580  1
  Si  Si342  1  0.965390  0.778265  0.473489  1
  Si  Si343  1  0.778343  0.965326  0.473493  1
  Si  Si344  1  0.242551  0.637781  0.585414  1
  H  H345  1  0.045524  0.230840  0.118886  1
  H  H346  1  0.618354  0.239487  0.118884  1
  H  H347  1  0.230901  0.045440  0.118885  1
  H  H348  1  0.760529  0.381675  0.118883  1
  H  H349  1  0.381707  0.760455  0.118889  1
  H  H350  1  0.239533  0.618262  0.118885  1
  H  H351  1  0.954538  0.769097  0.118882  1
  H  H352  1  0.769160  0.954500  0.118883  1
  H  H353  1  0.045524  0.230840  0.643350  1
  H  H354  1  0.618354  0.239487  0.643348  1
  H  H355  1  0.230901  0.045440  0.643349  1
  H  H356  1  0.760529  0.381675  0.643347  1
  H  H357  1  0.381707  0.760455  0.643353  1
  H  H358  1  0.239533  0.618262  0.643349  1
  H  H359  1  0.954538  0.769097  0.643347  1
  H  H360  1  0.769160  0.954500  0.643348  1
