# generated using pymatgen
data_Si12H2O25
_symmetry_space_group_name_H-M   'P 1'
_cell_length_a   20.04667794
_cell_length_b   13.37145907
_cell_length_c   41.84714000
_cell_angle_alpha   90.00000000
_cell_angle_beta   90.00000000
_cell_angle_gamma   90.00000000
_symmetry_Int_Tables_number   1
_chemical_formula_structural   Si12H2O25
_chemical_formula_sum   'Si96 H16 O200'
_cell_volume   11217.2653767
_cell_formula_units_Z   8
loop_
 _symmetry_equiv_pos_site_id
 _symmetry_equiv_pos_as_xyz
  1  'x, y, z'
loop_
 _atom_site_type_symbol
 _atom_site_label
 _atom_site_symmetry_multiplicity
 _atom_site_fract_x
 _atom_site_fract_y
 _atom_site_fract_z
 _atom_site_occupancy
  O  O1  1  0.122120  0.090113  0.188383  1
  O  O2  1  0.098872  0.909993  0.199527  1
  O  O3  1  0.248790  0.084994  0.185784  1
  O  O4  1  0.251105  0.584996  0.335722  1
  O  O5  1  0.093445  0.915129  0.260207  1
  O  O6  1  0.192418  0.254031  0.186782  1
  O  O7  1  0.307470  0.754037  0.334721  1
  O  O8  1  0.095531  0.746086  0.233205  1
  O  O9  1  0.193562  0.144701  0.236515  1
  O  O10  1  0.306331  0.644696  0.284990  1
  O  O11  1  0.199347  0.855419  0.233752  1
  O  O12  1  0.300545  0.355424  0.287761  1
  O  O13  1  0.198704  0.441469  0.200876  1
  O  O14  1  0.301185  0.941475  0.320629  1
  O  O15  1  0.124961  0.558651  0.236206  1
  O  O16  1  0.301030  0.348057  0.183416  1
  O  O17  1  0.198860  0.848066  0.338090  1
  O  O18  1  0.088513  0.652035  0.285230  1
  O  O19  1  0.213587  0.378404  0.140990  1
  O  O20  1  0.123022  0.083149  0.283055  1
  O  O21  1  0.296486  0.916978  0.199953  1
  O  O22  1  0.203398  0.416984  0.321552  1
  O  O23  1  0.194735  0.250065  0.287202  1
  O  O24  1  0.305158  0.750063  0.234304  1
  O  O25  1  0.248857  0.076670  0.285276  1
  O  O26  1  0.251032  0.576670  0.236228  1
  O  O27  1  0.301141  0.923457  0.260235  1
  O  O28  1  0.198757  0.423452  0.261270  1
  O  O29  1  0.302815  0.987305  0.140992  1
  O  O30  1  0.093090  0.935354  0.320141  1
  O  O31  1  0.125993  0.564779  0.335902  1
  O  O32  1  0.092105  0.750063  0.336366  1
  O  O33  1  0.087933  0.980631  0.140996  1
  O  O34  1  0.598869  0.409983  0.321985  1
  O  O35  1  0.377773  0.590127  0.333125  1
  O  O36  1  0.622136  0.590097  0.333129  1
  O  O37  1  0.401025  0.410009  0.321983  1
  O  O38  1  0.593440  0.415106  0.261304  1
  O  O39  1  0.406442  0.415132  0.261301  1
  O  O40  1  0.595538  0.246068  0.288310  1
  O  O41  1  0.404361  0.246097  0.288307  1
  O  O42  1  0.624950  0.058627  0.285307  1
  O  O43  1  0.374928  0.058662  0.285303  1
  O  O44  1  0.588508  0.152025  0.236283  1
  O  O45  1  0.411380  0.152050  0.236280  1
  O  O46  1  0.499941  0.121701  0.278172  1
  O  O47  1  0.376868  0.583144  0.238449  1
  O  O48  1  0.623031  0.583116  0.238455  1
  O  O49  1  0.499947  0.512805  0.235420  1
  O  O50  1  0.406801  0.435341  0.201367  1
  O  O51  1  0.625978  0.064740  0.185615  1
  O  O52  1  0.593090  0.435321  0.201370  1
  O  O53  1  0.373902  0.064769  0.185612  1
  O  O54  1  0.499943  0.122098  0.194191  1
  O  O55  1  0.611001  0.377971  0.140993  1
  O  O56  1  0.407786  0.250052  0.185140  1
  O  O57  1  0.592111  0.250031  0.185144  1
  O  O58  1  0.499952  0.519465  0.338367  1
  O  O59  1  0.388895  0.377994  0.140989  1
  O  O60  1  0.901021  0.909973  0.199531  1
  O  O61  1  0.877760  0.090085  0.188386  1
  O  O62  1  0.906444  0.915109  0.260211  1
  O  O63  1  0.748805  0.584968  0.335729  1
  O  O64  1  0.751090  0.084961  0.185787  1
  O  O65  1  0.904354  0.746067  0.233208  1
  O  O66  1  0.692434  0.754008  0.334725  1
  O  O67  1  0.807465  0.253998  0.186788  1
  O  O68  1  0.699347  0.355415  0.287761  1
  O  O69  1  0.800541  0.855406  0.233755  1
  O  O70  1  0.693579  0.644659  0.284995  1
  O  O71  1  0.806316  0.144662  0.236519  1
  O  O72  1  0.874939  0.558628  0.236209  1
  O  O73  1  0.698699  0.941447  0.320636  1
  O  O74  1  0.801198  0.441437  0.200881  1
  O  O75  1  0.911385  0.652022  0.285233  1
  O  O76  1  0.801035  0.848054  0.338095  1
  O  O77  1  0.698863  0.348044  0.183421  1
  O  O78  1  0.000000  0.621694  0.243342  1
  O  O79  1  0.796499  0.416953  0.321556  1
  O  O80  1  0.703392  0.916949  0.199960  1
  O  O81  1  0.876856  0.083121  0.283061  1
  O  O82  1  0.805148  0.250036  0.287205  1
  O  O83  1  0.694738  0.750033  0.234311  1
  O  O84  1  0.801144  0.423428  0.261275  1
  O  O85  1  0.698745  0.923424  0.260242  1
  O  O86  1  0.748868  0.576640  0.236230  1
  O  O87  1  0.751020  0.076645  0.285283  1
  O  O88  1  0.873916  0.564745  0.335902  1
  O  O89  1  0.906808  0.935329  0.320145  1
  O  O90  1  0.907785  0.750038  0.336371  1
  O  O91  1  0.911958  0.980607  0.140998  1
  O  O92  1  0.786309  0.378375  0.140995  1
  O  O93  1  0.697064  0.987263  0.140997  1
  O  O94  1  0.000000  0.012812  0.286089  1
  O  O95  1  0.000000  0.622101  0.327323  1
  O  O96  1  0.000000  0.019446  0.183145  1
  O  O97  1  0.098877  0.909977  0.561513  1
  O  O98  1  0.122120  0.090099  0.572652  1
  O  O99  1  0.093455  0.915111  0.500832  1
  O  O100  1  0.248791  0.084981  0.575246  1
  O  O101  1  0.251107  0.584983  0.425309  1
  O  O102  1  0.095541  0.746070  0.527833  1
  O  O103  1  0.192419  0.254017  0.574248  1
  O  O104  1  0.307474  0.754025  0.426305  1
  O  O105  1  0.199355  0.855403  0.527287  1
  O  O106  1  0.300553  0.355391  0.473269  1
  O  O107  1  0.193559  0.144684  0.524516  1
  O  O108  1  0.306335  0.644699  0.476038  1
  O  O109  1  0.124973  0.558637  0.524824  1
  O  O110  1  0.198711  0.441453  0.560149  1
  O  O111  1  0.301190  0.941460  0.440403  1
  O  O112  1  0.088518  0.652037  0.475804  1
  O  O113  1  0.301033  0.348040  0.577612  1
  O  O114  1  0.198864  0.848054  0.422942  1
  O  O115  1  0.286307  0.878410  0.380515  1
  O  O116  1  0.296500  0.916970  0.561078  1
  O  O117  1  0.203411  0.416961  0.439475  1
  O  O118  1  0.123027  0.083124  0.477976  1
  O  O119  1  0.305167  0.750050  0.526727  1
  O  O120  1  0.194736  0.250045  0.473829  1
  O  O121  1  0.301143  0.923440  0.500797  1
  O  O122  1  0.198767  0.423439  0.499756  1
  O  O123  1  0.248864  0.076656  0.475756  1
  O  O124  1  0.251044  0.576654  0.524800  1
  O  O125  1  0.197089  0.487302  0.380515  1
  O  O126  1  0.125996  0.564753  0.425136  1
  O  O127  1  0.093089  0.935319  0.440897  1
  O  O128  1  0.110998  0.877998  0.380518  1
  O  O129  1  0.092113  0.750037  0.424663  1
  O  O130  1  0.622137  0.590077  0.427909  1
  O  O131  1  0.401024  0.409988  0.439043  1
  O  O132  1  0.598873  0.409960  0.439046  1
  O  O133  1  0.377777  0.590113  0.427906  1
  O  O134  1  0.406450  0.415115  0.499724  1
  O  O135  1  0.593451  0.415085  0.499727  1
  O  O136  1  0.404373  0.246075  0.472720  1
  O  O137  1  0.595547  0.246046  0.472723  1
  O  O138  1  0.374935  0.058641  0.475728  1
  O  O139  1  0.624960  0.058605  0.475734  1
  O  O140  1  0.411386  0.152036  0.524749  1
  O  O141  1  0.588513  0.152017  0.524753  1
  O  O142  1  0.499951  0.121678  0.482861  1
  O  O143  1  0.623040  0.583092  0.522581  1
  O  O144  1  0.376879  0.583133  0.522574  1
  O  O145  1  0.499955  0.512783  0.525608  1
  O  O146  1  0.593091  0.435296  0.559662  1
  O  O147  1  0.373904  0.064769  0.575420  1
  O  O148  1  0.406800  0.435333  0.559658  1
  O  O149  1  0.625980  0.064722  0.575421  1
  O  O150  1  0.499946  0.122086  0.566841  1
  O  O151  1  0.592117  0.250013  0.575894  1
  O  O152  1  0.407793  0.250049  0.575888  1
  O  O153  1  0.499954  0.519444  0.422666  1
  O  O154  1  0.587938  0.480623  0.380516  1
  O  O155  1  0.411963  0.480650  0.380514  1
  O  O156  1  0.877762  0.090066  0.572655  1
  O  O157  1  0.901024  0.909948  0.561515  1
  O  O158  1  0.748807  0.584947  0.425312  1
  O  O159  1  0.751091  0.084945  0.575252  1
  O  O160  1  0.906452  0.915085  0.500835  1
  O  O161  1  0.692435  0.753985  0.426312  1
  O  O162  1  0.807467  0.253980  0.574255  1
  O  O163  1  0.904360  0.746040  0.527836  1
  O  O164  1  0.693581  0.644651  0.476044  1
  O  O165  1  0.806321  0.144655  0.524522  1
  O  O166  1  0.699355  0.355392  0.473271  1
  O  O167  1  0.800548  0.855381  0.527290  1
  O  O168  1  0.698705  0.941420  0.440408  1
  O  O169  1  0.801205  0.441416  0.560155  1
  O  O170  1  0.874949  0.558600  0.524827  1
  O  O171  1  0.801037  0.848031  0.422946  1
  O  O172  1  0.698866  0.348033  0.577616  1
  O  O173  1  0.911392  0.652010  0.475807  1
  O  O174  1  -0.000000  0.621677  0.517696  1
  O  O175  1  0.876866  0.083099  0.477985  1
  O  O176  1  0.796510  0.416932  0.439480  1
  O  O177  1  0.703397  0.916927  0.561084  1
  O  O178  1  0.694745  0.750009  0.526731  1
  O  O179  1  0.805156  0.250012  0.473833  1
  O  O180  1  0.748877  0.576619  0.524806  1
  O  O181  1  0.751030  0.076619  0.475760  1
  O  O182  1  0.801149  0.423404  0.499761  1
  O  O183  1  0.698753  0.923403  0.500802  1
  O  O184  1  0.906807  0.935307  0.440901  1
  O  O185  1  0.873919  0.564732  0.425137  1
  O  O186  1  0.000000  0.622084  0.433715  1
  O  O187  1  0.907790  0.750023  0.424669  1
  O  O188  1  0.000000  0.019428  0.577894  1
  O  O189  1  0.713589  0.878374  0.380521  1
  O  O190  1  0.802828  0.487266  0.380519  1
  O  O191  1  0.888900  0.877978  0.380522  1
  O  O192  1  -0.000000  0.012783  0.474953  1
  O  O193  1  0.213587  0.378404  0.620037  1
  O  O194  1  0.302815  0.987305  0.620039  1
  O  O195  1  0.087933  0.980631  0.620043  1
  O  O196  1  0.611001  0.377971  0.620040  1
  O  O197  1  0.388895  0.377994  0.620037  1
  O  O198  1  0.911958  0.980607  0.620046  1
  O  O199  1  0.786309  0.378375  0.620042  1
  O  O200  1  0.697064  0.987263  0.620044  1
  Si  Si201  1  0.307406  -0.000000  0.288282  1
  Si  Si202  1  0.192485  0.500060  0.233223  1
  Si  Si203  1  0.187853  0.144015  0.199386  1
  Si  Si204  1  0.312039  0.644020  0.322119  1
  Si  Si205  1  0.121840  0.856102  0.231018  1
  Si  Si206  1  0.223954  0.357553  0.177647  1
  Si  Si207  1  0.275936  0.857559  0.343859  1
  Si  Si208  1  0.076468  0.642555  0.248307  1
  Si  Si209  1  0.188392  0.140792  0.273661  1
  Si  Si210  1  0.311498  0.640788  0.247843  1
  Si  Si211  1  0.276888  0.859335  0.231270  1
  Si  Si212  1  0.223003  0.359337  0.290237  1
  Si  Si213  1  0.076624  0.989579  0.287837  1
  Si  Si214  1  0.306467  0.010545  0.177726  1
  Si  Si215  1  0.193428  0.510548  0.343782  1
  Si  Si216  1  0.121848  0.855556  0.343834  1
  Si  Si217  1  0.076526  0.644559  0.322123  1
  Si  Si218  1  0.076698  -0.000000  0.177764  1
  Si  Si219  1  0.423197  0.500064  0.343746  1
  Si  Si220  1  0.576705  0.500042  0.343748  1
  Si  Si221  1  0.621840  0.356088  0.290496  1
  Si  Si222  1  0.378051  0.356113  0.290494  1
  Si  Si223  1  0.576463  0.142543  0.273206  1
  Si  Si224  1  0.423423  0.142566  0.273204  1
  Si  Si225  1  0.423266  0.489573  0.233669  1
  Si  Si226  1  0.576627  0.489554  0.233673  1
  Si  Si227  1  0.378043  0.355547  0.177673  1
  Si  Si228  1  0.576520  0.144538  0.199391  1
  Si  Si229  1  0.621851  0.355528  0.177677  1
  Si  Si230  1  0.423367  0.144556  0.199388  1
  Si  Si231  1  0.807417  0.500034  0.233227  1
  Si  Si232  1  0.692473  0.000000  0.288288  1
  Si  Si233  1  0.923190  0.000000  0.177766  1
  Si  Si234  1  0.878047  0.856084  0.231021  1
  Si  Si235  1  0.687871  0.643989  0.322124  1
  Si  Si236  1  0.812026  0.143980  0.199390  1
  Si  Si237  1  0.923428  0.642540  0.248310  1
  Si  Si238  1  0.723959  0.857533  0.343864  1
  Si  Si239  1  0.775939  0.357526  0.177652  1
  Si  Si240  1  0.776889  0.359313  0.290240  1
  Si  Si241  1  0.722999  0.859309  0.231276  1
  Si  Si242  1  0.688402  0.640756  0.247848  1
  Si  Si243  1  0.811486  0.140761  0.273666  1
  Si  Si244  1  0.806482  0.510515  0.343786  1
  Si  Si245  1  0.693412  0.010511  0.177730  1
  Si  Si246  1  0.923263  0.989561  0.287841  1
  Si  Si247  1  0.923374  0.644541  0.322125  1
  Si  Si248  1  0.878048  0.855535  0.343838  1
  Si  Si249  1  0.307411  -0.000000  0.472750  1
  Si  Si250  1  0.192496  0.500046  0.527803  1
  Si  Si251  1  0.121850  0.856086  0.530022  1
  Si  Si252  1  0.187852  0.143999  0.561645  1
  Si  Si253  1  0.312043  0.644010  0.438910  1
  Si  Si254  1  0.076476  0.642544  0.512727  1
  Si  Si255  1  0.223957  0.357540  0.583381  1
  Si  Si256  1  0.275939  0.857549  0.417172  1
  Si  Si257  1  0.276898  0.859321  0.529764  1
  Si  Si258  1  0.223011  0.359314  0.470791  1
  Si  Si259  1  0.188395  0.140773  0.487370  1
  Si  Si260  1  0.311508  0.640779  0.513185  1
  Si  Si261  1  0.306472  0.010540  0.583306  1
  Si  Si262  1  0.193432  0.510533  0.417249  1
  Si  Si263  1  0.076629  0.989551  0.473200  1
  Si  Si264  1  0.076531  0.644541  0.438912  1
  Si  Si265  1  0.121851  0.855537  0.417200  1
  Si  Si266  1  0.076700  0.000000  0.583274  1
  Si  Si267  1  0.423199  0.500049  0.417283  1
  Si  Si268  1  0.378058  0.356088  0.470533  1
  Si  Si269  1  0.621849  0.356066  0.470536  1
  Si  Si270  1  0.423432  0.142546  0.487826  1
  Si  Si271  1  0.576472  0.142525  0.487830  1
  Si  Si272  1  0.576634  0.489530  0.527359  1
  Si  Si273  1  0.423272  0.489557  0.527356  1
  Si  Si274  1  0.621854  0.355514  0.583358  1
  Si  Si275  1  0.423372  0.144549  0.561642  1
  Si  Si276  1  0.378045  0.355541  0.583354  1
  Si  Si277  1  0.576524  0.144523  0.561645  1
  Si  Si278  1  0.576707  0.500025  0.417286  1
  Si  Si279  1  0.807425  0.500010  0.527809  1
  Si  Si280  1  0.692483  -0.000000  0.472755  1
  Si  Si281  1  0.687872  0.643968  0.438915  1
  Si  Si282  1  0.812029  0.143964  0.561651  1
  Si  Si283  1  0.878054  0.856057  0.530025  1
  Si  Si284  1  0.723961  0.857514  0.417177  1
  Si  Si285  1  0.775943  0.357513  0.583386  1
  Si  Si286  1  0.923436  0.642519  0.512730  1
  Si  Si287  1  0.688410  0.640736  0.513190  1
  Si  Si288  1  0.811494  0.140742  0.487376  1
  Si  Si289  1  0.776898  0.359289  0.470795  1
  Si  Si290  1  0.723005  0.859285  0.529768  1
  Si  Si291  1  0.923268  0.989534  0.473204  1
  Si  Si292  1  0.806486  0.510502  0.417253  1
  Si  Si293  1  0.693413  0.010496  0.583310  1
  Si  Si294  1  0.878049  0.855520  0.417205  1
  Si  Si295  1  0.923379  0.644526  0.438915  1
  Si  Si296  1  0.923191  0.000000  0.583276  1
  H  H297  1  0.213587  0.378404  0.119483  1
  H  H298  1  0.302815  0.987305  0.119485  1
  H  H299  1  0.087933  0.980631  0.119489  1
  H  H300  1  0.611001  0.377971  0.119486  1
  H  H301  1  0.388895  0.377994  0.119482  1
  H  H302  1  0.911958  0.980607  0.119492  1
  H  H303  1  0.786309  0.378375  0.119488  1
  H  H304  1  0.697064  0.987263  0.119490  1
  H  H305  1  0.213587  0.378404  0.641544  1
  H  H306  1  0.302815  0.987305  0.641546  1
  H  H307  1  0.087933  0.980631  0.641550  1
  H  H308  1  0.611001  0.377971  0.641547  1
  H  H309  1  0.388895  0.377994  0.641543  1
  H  H310  1  0.911958  0.980607  0.641553  1
  H  H311  1  0.786309  0.378375  0.641549  1
  H  H312  1  0.697064  0.987263  0.641551  1
