# generated using pymatgen
data_Si30H2O61
_symmetry_space_group_name_H-M   'P 1'
_cell_length_a   8.35857008
_cell_length_b   14.33942635
_cell_length_c   72.27245271
_cell_angle_alpha   90.00000000
_cell_angle_beta   90.00000000
_cell_angle_gamma   90.00000000
_symmetry_Int_Tables_number   1
_chemical_formula_structural   Si30H2O61
_chemical_formula_sum   'Si120 H8 O244'
_cell_volume   8662.36659535
_cell_formula_units_Z   4
loop_
 _symmetry_equiv_pos_site_id
 _symmetry_equiv_pos_as_xyz
  1  'x, y, z'
loop_
 _atom_site_type_symbol
 _atom_site_label
 _atom_site_symmetry_multiplicity
 _atom_site_fract_x
 _atom_site_fract_y
 _atom_site_fract_z
 _atom_site_occupancy
  O  O1  1  0.500123  0.750409  0.290077  1
  O  O2  1  -0.000000  0.249450  0.150447  1
  O  O3  1  0.000000  0.749408  0.152674  1
  O  O4  1  0.500125  0.255918  0.189341  1
  O  O5  1  0.000000  0.243948  0.253408  1
  O  O6  1  0.500131  0.754875  0.113753  1
  O  O7  1  -0.000000  0.444845  0.202189  1
  O  O8  1  -0.000000  0.063572  0.200125  1
  O  O9  1  0.500122  0.436261  0.242622  1
  O  O10  1  -0.000000  0.944474  0.101110  1
  O  O11  1  0.500130  0.055028  0.240556  1
  O  O12  1  -0.000000  0.562586  0.102893  1
  O  O13  1  -0.000000  0.928800  0.272165  1
  O  O14  1  0.500124  0.427296  0.132613  1
  O  O15  1  -0.000000  0.572463  0.272211  1
  O  O16  1  0.500119  0.071192  0.132592  1
  O  O17  1  0.500127  0.927351  0.170538  1
  O  O18  1  0.500121  0.571034  0.170580  1
  O  O19  1  0.728388  0.249676  0.166193  1
  O  O20  1  0.271877  0.249670  0.166193  1
  O  O21  1  0.771872  0.250170  0.276562  1
  O  O22  1  0.271931  0.749691  0.136927  1
  O  O23  1  0.228381  0.250172  0.276562  1
  O  O24  1  0.728325  0.749698  0.136926  1
  O  O25  1  0.763327  0.339332  0.195907  1
  O  O26  1  0.250044  0.160228  0.196127  1
  O  O27  1  0.750021  0.339571  0.246626  1
  O  O28  1  0.237711  0.839283  0.107194  1
  O  O29  1  0.263328  0.160460  0.246838  1
  O  O30  1  0.751448  0.660214  0.107013  1
  O  O31  1  0.736928  0.160457  0.246838  1
  O  O32  1  0.248814  0.660216  0.107014  1
  O  O33  1  0.250229  0.339571  0.246626  1
  O  O34  1  0.762542  0.839277  0.107195  1
  O  O35  1  0.750210  0.160229  0.196127  1
  O  O36  1  0.236935  0.339333  0.195909  1
  O  O37  1  0.256290  0.959127  0.081860  1
  O  O38  1  0.743012  0.459133  0.221257  1
  O  O39  1  0.756293  0.540668  0.081636  1
  O  O40  1  0.242977  0.040720  0.221491  1
  O  O41  1  0.757278  0.040724  0.221491  1
  O  O42  1  0.243961  0.540663  0.081636  1
  O  O43  1  0.257248  0.459124  0.221256  1
  O  O44  1  0.743967  0.959132  0.081860  1
  O  O45  1  0.749935  0.508136  0.186591  1
  O  O46  1  0.252173  0.991015  0.186837  1
  O  O47  1  0.752208  0.508810  0.255919  1
  O  O48  1  0.250780  0.008006  0.116530  1
  O  O49  1  0.249997  0.991694  0.256164  1
  O  O50  1  0.747781  0.491050  0.116292  1
  O  O51  1  0.750255  0.991698  0.256163  1
  O  O52  1  0.252475  0.491049  0.116292  1
  O  O53  1  0.248050  0.508809  0.255918  1
  O  O54  1  0.749474  0.008005  0.116529  1
  O  O55  1  0.748083  0.991019  0.186836  1
  O  O56  1  0.250320  0.508136  0.186591  1
  O  O57  1  0.719205  0.499917  0.151463  1
  O  O58  1  0.781028  0.499913  0.291084  1
  O  O59  1  0.281026  -0.000000  0.151669  1
  O  O60  1  0.281055  0.499918  0.151463  1
  O  O61  1  0.219228  0.499915  0.291083  1
  O  O62  1  0.719231  0.000000  0.151670  1
  O  O63  1  0.263549  0.841615  0.276496  1
  O  O64  1  0.764538  0.341345  0.136844  1
  O  O65  1  0.735710  0.658500  0.276473  1
  O  O66  1  0.236510  0.158164  0.136866  1
  O  O67  1  0.235728  0.841330  0.166282  1
  O  O68  1  0.763596  0.658208  0.166254  1
  O  O69  1  0.236666  0.658208  0.166253  1
  O  O70  1  0.764528  0.841332  0.166282  1
  O  O71  1  0.264547  0.658501  0.276473  1
  O  O72  1  0.763754  0.158163  0.136864  1
  O  O73  1  0.736713  0.841614  0.276497  1
  O  O74  1  0.235715  0.341343  0.136844  1
  O  O75  1  0.500123  0.750409  0.569331  1
  O  O76  1  0.000000  0.249450  0.429701  1
  O  O77  1  0.500128  0.250381  0.292300  1
  O  O78  1  0.000000  0.749408  0.431928  1
  O  O79  1  -0.000000  0.744960  0.329000  1
  O  O80  1  0.500125  0.255918  0.468595  1
  O  O81  1  -0.000000  0.243948  0.532662  1
  O  O82  1  0.500131  0.754875  0.393007  1
  O  O83  1  0.500116  0.937255  0.339858  1
  O  O84  1  -0.000000  0.444845  0.481444  1
  O  O85  1  0.500127  0.555357  0.341644  1
  O  O86  1  -0.000000  0.063572  0.479380  1
  O  O87  1  0.500122  0.436261  0.521877  1
  O  O88  1  -0.000000  0.944474  0.380364  1
  O  O89  1  0.500130  0.055028  0.519810  1
  O  O90  1  -0.000000  0.562586  0.382148  1
  O  O91  1  0.000000  0.928800  0.551420  1
  O  O92  1  0.500124  0.427296  0.411868  1
  O  O93  1  -0.000000  0.572463  0.551466  1
  O  O94  1  0.500119  0.071192  0.411846  1
  O  O95  1  -0.000000  0.428639  0.310160  1
  O  O96  1  0.500127  0.927351  0.449793  1
  O  O97  1  0.000000  0.072529  0.310136  1
  O  O98  1  0.500121  0.571034  0.449835  1
  O  O99  1  0.228335  0.750118  0.305823  1
  O  O100  1  0.728388  0.249676  0.445448  1
  O  O101  1  0.771923  0.750121  0.305822  1
  O  O102  1  0.271877  0.249670  0.445447  1
  O  O103  1  0.771872  0.250170  0.555816  1
  O  O104  1  0.271931  0.749691  0.416181  1
  O  O105  1  0.228381  0.250172  0.555816  1
  O  O106  1  0.728325  0.749698  0.416181  1
  O  O107  1  0.251493  0.839609  0.335740  1
  O  O108  1  0.763327  0.339332  0.475162  1
  O  O109  1  0.737730  0.660531  0.335557  1
  O  O110  1  0.250044  0.160228  0.475381  1
  O  O111  1  0.750021  0.339571  0.525881  1
  O  O112  1  0.237711  0.839283  0.386448  1
  O  O113  1  0.263328  0.160460  0.526092  1
  O  O114  1  0.751448  0.660214  0.386267  1
  O  O115  1  0.736928  0.160457  0.526092  1
  O  O116  1  0.248814  0.660216  0.386269  1
  O  O117  1  0.250229  0.339571  0.525880  1
  O  O118  1  0.762542  0.839277  0.386449  1
  O  O119  1  0.262521  0.660538  0.335556  1
  O  O120  1  0.750210  0.160229  0.475381  1
  O  O121  1  0.748767  0.839606  0.335740  1
  O  O122  1  0.236935  0.339333  0.475163  1
  O  O123  1  0.256290  0.959127  0.361114  1
  O  O124  1  0.743012  0.459133  0.500511  1
  O  O125  1  0.756293  0.540668  0.360890  1
  O  O126  1  0.242977  0.040720  0.500745  1
  O  O127  1  0.757278  0.040724  0.500745  1
  O  O128  1  0.243961  0.540663  0.360890  1
  O  O129  1  0.257248  0.459124  0.500511  1
  O  O130  1  0.743967  0.959132  0.361114  1
  O  O131  1  0.247750  0.008771  0.326459  1
  O  O132  1  0.749935  0.508136  0.465845  1
  O  O133  1  0.750775  0.491803  0.326217  1
  O  O134  1  0.252173  0.991015  0.466091  1
  O  O135  1  0.752208  0.508810  0.535173  1
  O  O136  1  0.250780  0.008006  0.395784  1
  O  O137  1  0.249997  0.991694  0.535418  1
  O  O138  1  0.747781  0.491050  0.395546  1
  O  O139  1  0.750255  0.991698  0.535418  1
  O  O140  1  0.252475  0.491049  0.395546  1
  O  O141  1  0.248050  0.508809  0.535173  1
  O  O142  1  0.749474  0.008005  0.395784  1
  O  O143  1  0.249476  0.491805  0.326218  1
  O  O144  1  0.748083  0.991019  0.466091  1
  O  O145  1  0.752506  0.008771  0.326459  1
  O  O146  1  0.250320  0.508136  0.465845  1
  O  O147  1  0.219209  0.000000  0.291286  1
  O  O148  1  0.719205  0.499917  0.430717  1
  O  O149  1  0.781028  0.499913  0.570338  1
  O  O150  1  0.281026  -0.000000  0.430924  1
  O  O151  1  0.781050  0.000000  0.291285  1
  O  O152  1  0.281055  0.499918  0.430717  1
  O  O153  1  0.219228  0.499915  0.570337  1
  O  O154  1  0.719231  0.000000  0.430924  1
  O  O155  1  0.263549  0.841615  0.555750  1
  O  O156  1  0.764538  0.341345  0.416098  1
  O  O157  1  0.735710  0.658500  0.555728  1
  O  O158  1  0.236510  0.158164  0.416120  1
  O  O159  1  0.736516  0.341661  0.305885  1
  O  O160  1  0.235728  0.841330  0.445537  1
  O  O161  1  0.264550  0.158463  0.305908  1
  O  O162  1  0.763596  0.658208  0.445509  1
  O  O163  1  0.735699  0.158464  0.305908  1
  O  O164  1  0.236666  0.658208  0.445508  1
  O  O165  1  0.263741  0.341662  0.305885  1
  O  O166  1  0.764528  0.841332  0.445537  1
  O  O167  1  0.264547  0.658501  0.555728  1
  O  O168  1  0.763754  0.158163  0.416118  1
  O  O169  1  0.736713  0.841614  0.555751  1
  O  O170  1  0.235715  0.341343  0.416098  1
  O  O171  1  -0.000000  0.249450  0.708956  1
  O  O172  1  0.500128  0.250381  0.571554  1
  O  O173  1  0.000000  0.749408  0.711183  1
  O  O174  1  -0.000000  0.744960  0.608254  1
  O  O175  1  0.500125  0.255918  0.747849  1
  O  O176  1  0.500131  0.754875  0.672261  1
  O  O177  1  0.500116  0.937255  0.619112  1
  O  O178  1  0.000000  0.444845  0.760698  1
  O  O179  1  0.500127  0.555357  0.620898  1
  O  O180  1  -0.000000  0.063572  0.758634  1
  O  O181  1  0.000000  0.944474  0.659618  1
  O  O182  1  0.000000  0.562586  0.661402  1
  O  O183  1  0.500124  0.427296  0.691122  1
  O  O184  1  0.500119  0.071192  0.691101  1
  O  O185  1  0.000000  0.428639  0.589414  1
  O  O186  1  0.500127  0.927351  0.729047  1
  O  O187  1  -0.000000  0.072529  0.589391  1
  O  O188  1  0.500121  0.571034  0.729089  1
  O  O189  1  0.228335  0.750118  0.585077  1
  O  O190  1  0.728388  0.249676  0.724702  1
  O  O191  1  0.771923  0.750121  0.585076  1
  O  O192  1  0.271877  0.249670  0.724701  1
  O  O193  1  0.271931  0.749691  0.695436  1
  O  O194  1  0.728325  0.749698  0.695435  1
  O  O195  1  0.251493  0.839609  0.614994  1
  O  O196  1  0.763327  0.339332  0.754416  1
  O  O197  1  0.737730  0.660531  0.614811  1
  O  O198  1  0.250044  0.160228  0.754635  1
  O  O199  1  0.237711  0.839283  0.665702  1
  O  O200  1  0.751448  0.660214  0.665522  1
  O  O201  1  0.248814  0.660216  0.665523  1
  O  O202  1  0.762542  0.839277  0.665704  1
  O  O203  1  0.262521  0.660538  0.614810  1
  O  O204  1  0.750210  0.160229  0.754636  1
  O  O205  1  0.748767  0.839606  0.614994  1
  O  O206  1  0.236935  0.339333  0.754418  1
  O  O207  1  0.256290  0.959127  0.640368  1
  O  O208  1  0.743012  0.459133  0.779766  1
  O  O209  1  0.756293  0.540668  0.640144  1
  O  O210  1  0.242977  0.040720  0.779999  1
  O  O211  1  0.757278  0.040724  0.779999  1
  O  O212  1  0.243961  0.540663  0.640145  1
  O  O213  1  0.257248  0.459124  0.779765  1
  O  O214  1  0.743967  0.959132  0.640368  1
  O  O215  1  0.247750  0.008771  0.605713  1
  O  O216  1  0.749935  0.508136  0.745099  1
  O  O217  1  0.750775  0.491803  0.605472  1
  O  O218  1  0.252173  0.991015  0.745345  1
  O  O219  1  0.250780  0.008006  0.675039  1
  O  O220  1  0.747781  0.491050  0.674800  1
  O  O221  1  0.252475  0.491049  0.674800  1
  O  O222  1  0.749474  0.008005  0.675038  1
  O  O223  1  0.249476  0.491805  0.605472  1
  O  O224  1  0.748083  0.991019  0.745345  1
  O  O225  1  0.752506  0.008771  0.605713  1
  O  O226  1  0.250320  0.508136  0.745099  1
  O  O227  1  0.219209  -0.000000  0.570540  1
  O  O228  1  0.719205  0.499917  0.709971  1
  O  O229  1  0.281026  -0.000000  0.710178  1
  O  O230  1  0.781050  0.000000  0.570540  1
  O  O231  1  0.281055  0.499918  0.709971  1
  O  O232  1  0.719231  -0.000000  0.710179  1
  O  O233  1  0.764538  0.341345  0.695353  1
  O  O234  1  0.236510  0.158164  0.695374  1
  O  O235  1  0.736516  0.341661  0.585140  1
  O  O236  1  0.235728  0.841330  0.724791  1
  O  O237  1  0.264550  0.158463  0.585163  1
  O  O238  1  0.763596  0.658208  0.724763  1
  O  O239  1  0.735699  0.158464  0.585163  1
  O  O240  1  0.236666  0.658208  0.724762  1
  O  O241  1  0.263741  0.341662  0.585140  1
  O  O242  1  0.764528  0.841332  0.724791  1
  O  O243  1  0.763754  0.158163  0.695372  1
  O  O244  1  0.235715  0.341343  0.695353  1
  Si  Si245  1  0.814570  0.439766  0.201575  1
  Si  Si246  1  0.185555  0.061791  0.201280  1
  Si  Si247  1  0.685588  0.438032  0.241472  1
  Si  Si248  1  0.185695  0.939628  0.101576  1
  Si  Si249  1  0.314575  0.060024  0.241170  1
  Si  Si250  1  0.814649  0.561563  0.101816  1
  Si  Si251  1  0.685683  0.060023  0.241170  1
  Si  Si252  1  0.185591  0.561565  0.101817  1
  Si  Si253  1  0.314659  0.438031  0.241471  1
  Si  Si254  1  0.814562  0.939618  0.101577  1
  Si  Si255  1  0.814695  0.061790  0.201280  1
  Si  Si256  1  0.185684  0.439770  0.201575  1
  Si  Si257  1  0.185267  0.939888  0.273583  1
  Si  Si258  1  0.685199  0.439274  0.133844  1
  Si  Si259  1  0.815023  0.560565  0.273466  1
  Si  Si260  1  0.314976  0.059907  0.133968  1
  Si  Si261  1  0.315034  0.939263  0.169291  1
  Si  Si262  1  0.685273  0.559931  0.169165  1
  Si  Si263  1  0.314972  0.559931  0.169165  1
  Si  Si264  1  0.685221  0.939263  0.169292  1
  Si  Si265  1  0.185227  0.560567  0.273465  1
  Si  Si266  1  0.685267  0.059904  0.133968  1
  Si  Si267  1  0.814977  0.939887  0.273582  1
  Si  Si268  1  0.315049  0.439274  0.133844  1
  Si  Si269  1  0.315414  0.750130  0.286739  1
  Si  Si270  1  0.815420  0.249703  0.147107  1
  Si  Si271  1  0.684832  0.750129  0.286738  1
  Si  Si272  1  0.184826  0.249703  0.147107  1
  Si  Si273  1  0.184844  0.749709  0.156011  1
  Si  Si274  1  0.815404  0.749711  0.156011  1
  Si  Si275  1  0.685637  0.251190  0.187133  1
  Si  Si276  1  0.314607  0.251195  0.187133  1
  Si  Si277  1  0.814591  0.248597  0.255620  1
  Si  Si278  1  0.314578  0.750954  0.115984  1
  Si  Si279  1  0.185663  0.248599  0.255621  1
  Si  Si280  1  0.685683  0.750946  0.115983  1
  Si  Si281  1  0.314656  0.938276  0.340934  1
  Si  Si282  1  0.814570  0.439766  0.480829  1
  Si  Si283  1  0.685704  0.560179  0.341172  1
  Si  Si284  1  0.185555  0.061791  0.480534  1
  Si  Si285  1  0.685588  0.438032  0.520726  1
  Si  Si286  1  0.185695  0.939628  0.380830  1
  Si  Si287  1  0.314575  0.060024  0.520424  1
  Si  Si288  1  0.814649  0.561563  0.381071  1
  Si  Si289  1  0.685683  0.060023  0.520424  1
  Si  Si290  1  0.185591  0.561565  0.381071  1
  Si  Si291  1  0.314659  0.438031  0.520725  1
  Si  Si292  1  0.814562  0.939618  0.380831  1
  Si  Si293  1  0.314552  0.560190  0.341172  1
  Si  Si294  1  0.814695  0.061790  0.480534  1
  Si  Si295  1  0.685580  0.938275  0.340934  1
  Si  Si296  1  0.185684  0.439770  0.480829  1
  Si  Si297  1  0.185267  0.939888  0.552837  1
  Si  Si298  1  0.685199  0.439274  0.413098  1
  Si  Si299  1  0.815023  0.560565  0.552720  1
  Si  Si300  1  0.314976  0.059907  0.413222  1
  Si  Si301  1  0.814992  0.439901  0.308784  1
  Si  Si302  1  0.315034  0.939263  0.448546  1
  Si  Si303  1  0.185202  0.060534  0.308904  1
  Si  Si304  1  0.685273  0.559931  0.448420  1
  Si  Si305  1  0.815049  0.060534  0.308904  1
  Si  Si306  1  0.314972  0.559931  0.448420  1
  Si  Si307  1  0.185253  0.439902  0.308784  1
  Si  Si308  1  0.685221  0.939263  0.448546  1
  Si  Si309  1  0.185227  0.560567  0.552719  1
  Si  Si310  1  0.685267  0.059904  0.413222  1
  Si  Si311  1  0.814977  0.939887  0.552836  1
  Si  Si312  1  0.315049  0.439274  0.413099  1
  Si  Si313  1  0.315414  0.750130  0.565993  1
  Si  Si314  1  0.815420  0.249703  0.426362  1
  Si  Si315  1  0.684832  0.750129  0.565992  1
  Si  Si316  1  0.184826  0.249703  0.426361  1
  Si  Si317  1  0.684825  0.250118  0.295648  1
  Si  Si318  1  0.184844  0.749709  0.435265  1
  Si  Si319  1  0.315429  0.250116  0.295648  1
  Si  Si320  1  0.815404  0.749711  0.435265  1
  Si  Si321  1  0.185697  0.748886  0.326766  1
  Si  Si322  1  0.685637  0.251190  0.466388  1
  Si  Si323  1  0.814560  0.748879  0.326766  1
  Si  Si324  1  0.314607  0.251195  0.466387  1
  Si  Si325  1  0.814591  0.248597  0.534875  1
  Si  Si326  1  0.314578  0.750954  0.395238  1
  Si  Si327  1  0.185663  0.248599  0.534875  1
  Si  Si328  1  0.685683  0.750946  0.395238  1
  Si  Si329  1  0.314656  0.938276  0.620189  1
  Si  Si330  1  0.814570  0.439766  0.760084  1
  Si  Si331  1  0.685704  0.560179  0.620427  1
  Si  Si332  1  0.185555  0.061791  0.759788  1
  Si  Si333  1  0.185695  0.939628  0.660085  1
  Si  Si334  1  0.814649  0.561563  0.660325  1
  Si  Si335  1  0.185591  0.561565  0.660326  1
  Si  Si336  1  0.814562  0.939618  0.660085  1
  Si  Si337  1  0.314552  0.560190  0.620427  1
  Si  Si338  1  0.814695  0.061790  0.759789  1
  Si  Si339  1  0.685580  0.938275  0.620188  1
  Si  Si340  1  0.185684  0.439770  0.760083  1
  Si  Si341  1  0.685199  0.439274  0.692352  1
  Si  Si342  1  0.314976  0.059907  0.692476  1
  Si  Si343  1  0.814992  0.439901  0.588038  1
  Si  Si344  1  0.315034  0.939263  0.727800  1
  Si  Si345  1  0.185202  0.060534  0.588158  1
  Si  Si346  1  0.685273  0.559931  0.727674  1
  Si  Si347  1  0.815049  0.060534  0.588158  1
  Si  Si348  1  0.314972  0.559931  0.727674  1
  Si  Si349  1  0.185253  0.439902  0.588038  1
  Si  Si350  1  0.685221  0.939263  0.727801  1
  Si  Si351  1  0.685267  0.059904  0.692476  1
  Si  Si352  1  0.315049  0.439274  0.692353  1
  Si  Si353  1  0.815420  0.249703  0.705616  1
  Si  Si354  1  0.184826  0.249703  0.705616  1
  Si  Si355  1  0.684825  0.250118  0.574902  1
  Si  Si356  1  0.184844  0.749709  0.714520  1
  Si  Si357  1  0.315429  0.250116  0.574902  1
  Si  Si358  1  0.815404  0.749711  0.714519  1
  Si  Si359  1  0.185697  0.748886  0.606021  1
  Si  Si360  1  0.685637  0.251190  0.745642  1
  Si  Si361  1  0.814560  0.748879  0.606020  1
  Si  Si362  1  0.314607  0.251195  0.745641  1
  Si  Si363  1  0.314578  0.750954  0.674492  1
  Si  Si364  1  0.685683  0.750946  0.674492  1
  H  H365  1  0.256290  0.959127  0.069407  1
  H  H366  1  0.756293  0.540668  0.069183  1
  H  H367  1  0.243961  0.540663  0.069183  1
  H  H368  1  0.743967  0.959132  0.069407  1
  H  H369  1  0.743012  0.459133  0.792219  1
  H  H370  1  0.242977  0.040720  0.792452  1
  H  H371  1  0.757278  0.040724  0.792452  1
  H  H372  1  0.257248  0.459124  0.792218  1
