# generated using pymatgen
data_Si35H2O71
_symmetry_space_group_name_H-M   'P 1'
_cell_length_a   5.06243706
_cell_length_b   11.18977051
_cell_length_c   84.49624906
_cell_angle_alpha   90.00000000
_cell_angle_beta   90.00000000
_cell_angle_gamma   90.00000000
_symmetry_Int_Tables_number   1
_chemical_formula_structural   Si35H2O71
_chemical_formula_sum   'Si70 H4 O142'
_cell_volume   4786.5020223
_cell_formula_units_Z   2
loop_
 _symmetry_equiv_pos_site_id
 _symmetry_equiv_pos_as_xyz
  1  'x, y, z'
loop_
 _atom_site_type_symbol
 _atom_site_label
 _atom_site_symmetry_multiplicity
 _atom_site_fract_x
 _atom_site_fract_y
 _atom_site_fract_z
 _atom_site_occupancy
  O  O1  1  0.009485  0.141682  0.265715  1
  O  O2  1  0.009861  0.141667  0.101119  1
  O  O3  1  0.509865  0.858160  0.137012  1
  O  O4  1  0.509433  0.858188  0.229826  1
  O  O5  1  0.290962  0.001774  0.249087  1
  O  O6  1  0.791219  0.998157  0.120385  1
  O  O7  1  0.291222  0.001674  0.117746  1
  O  O8  1  0.790961  0.998094  0.246453  1
  O  O9  1  0.009735  0.911989  0.271089  1
  O  O10  1  0.009806  0.911978  0.095748  1
  O  O11  1  0.509786  0.087851  0.142383  1
  O  O12  1  0.509773  0.087880  0.224452  1
  O  O13  1  0.248564  0.334448  0.275612  1
  O  O14  1  0.748121  0.328719  0.091688  1
  O  O15  1  0.248038  0.671124  0.146437  1
  O  O16  1  0.749228  0.665590  0.219944  1
  O  O17  1  0.249292  0.670783  0.220356  1
  O  O18  1  0.747975  0.665183  0.146925  1
  O  O19  1  0.248056  0.334626  0.091208  1
  O  O20  1  0.748630  0.328925  0.275162  1
  O  O21  1  0.005560  0.328961  0.249551  1
  O  O22  1  0.005473  0.328939  0.117283  1
  O  O23  1  0.505522  0.670891  0.120847  1
  O  O24  1  0.505625  0.670901  0.245987  1
  O  O25  1  0.006394  0.766132  0.296218  1
  O  O26  1  0.006300  0.766147  0.070617  1
  O  O27  1  0.506204  0.233693  0.167514  1
  O  O28  1  0.506372  0.233718  0.199321  1
  O  O29  1  0.216090  0.706960  0.270099  1
  O  O30  1  0.718379  0.728467  0.094770  1
  O  O31  1  0.218301  0.271348  0.143359  1
  O  O32  1  0.716118  0.292930  0.225436  1
  O  O33  1  0.218375  0.271387  0.223473  1
  O  O34  1  0.716046  0.292904  0.141400  1
  O  O35  1  0.216125  0.706932  0.096730  1
  O  O36  1  0.718347  0.728467  0.272068  1
  O  O37  1  0.508796  0.522807  0.269118  1
  O  O38  1  0.508874  0.522789  0.097716  1
  O  O39  1  0.008833  0.477035  0.140414  1
  O  O40  1  0.008932  0.477063  0.226420  1
  O  O41  1  0.509298  0.451902  0.297009  1
  O  O42  1  0.509508  0.451888  0.069826  1
  O  O43  1  0.009534  0.547945  0.168304  1
  O  O44  1  0.009152  0.547952  0.198528  1
  O  O45  1  0.724627  0.399042  0.183408  1
  O  O46  1  0.227189  0.378299  0.183424  1
  O  O47  1  0.009485  0.141682  0.523123  1
  O  O48  1  0.009861  0.141667  0.358527  1
  O  O49  1  0.509865  0.858160  0.394420  1
  O  O50  1  0.509433  0.858188  0.487234  1
  O  O51  1  0.290962  0.001774  0.506495  1
  O  O52  1  0.791219  0.998157  0.377793  1
  O  O53  1  0.291222  0.001674  0.375154  1
  O  O54  1  0.790961  0.998094  0.503862  1
  O  O55  1  0.009735  0.911989  0.528497  1
  O  O56  1  0.009806  0.911978  0.353156  1
  O  O57  1  0.509786  0.087851  0.399791  1
  O  O58  1  0.509773  0.087880  0.481860  1
  O  O59  1  0.248564  0.334448  0.533020  1
  O  O60  1  0.748121  0.328719  0.349097  1
  O  O61  1  0.248038  0.671124  0.403845  1
  O  O62  1  0.749228  0.665590  0.477353  1
  O  O63  1  0.249292  0.670783  0.477764  1
  O  O64  1  0.747975  0.665183  0.404333  1
  O  O65  1  0.248056  0.334626  0.348617  1
  O  O66  1  0.748630  0.328925  0.532570  1
  O  O67  1  0.005560  0.328961  0.506959  1
  O  O68  1  0.005473  0.328939  0.374691  1
  O  O69  1  0.505522  0.670891  0.378255  1
  O  O70  1  0.505625  0.670901  0.503395  1
  O  O71  1  0.006394  0.766132  0.553626  1
  O  O72  1  0.006300  0.766147  0.328025  1
  O  O73  1  0.506204  0.233693  0.424922  1
  O  O74  1  0.506372  0.233718  0.456729  1
  O  O75  1  0.216090  0.706960  0.527507  1
  O  O76  1  0.718379  0.728467  0.352179  1
  O  O77  1  0.218301  0.271348  0.400767  1
  O  O78  1  0.716118  0.292930  0.482844  1
  O  O79  1  0.218375  0.271387  0.480881  1
  O  O80  1  0.716046  0.292904  0.398808  1
  O  O81  1  0.216125  0.706932  0.354138  1
  O  O82  1  0.718347  0.728467  0.529476  1
  O  O83  1  0.508796  0.522807  0.526527  1
  O  O84  1  0.508874  0.522789  0.355124  1
  O  O85  1  0.008833  0.477035  0.397822  1
  O  O86  1  0.008932  0.477063  0.483828  1
  O  O87  1  0.509298  0.451902  0.554418  1
  O  O88  1  0.509508  0.451888  0.327234  1
  O  O89  1  0.009534  0.547945  0.425712  1
  O  O90  1  0.009152  0.547952  0.455937  1
  O  O91  1  0.727260  0.621544  0.312119  1
  O  O92  1  0.224698  0.600805  0.312127  1
  O  O93  1  0.724627  0.399042  0.440816  1
  O  O94  1  0.227189  0.378299  0.440832  1
  O  O95  1  0.009485  0.141682  0.780531  1
  O  O96  1  0.009861  0.141667  0.615936  1
  O  O97  1  0.509865  0.858160  0.651828  1
  O  O98  1  0.509433  0.858188  0.744642  1
  O  O99  1  0.290962  0.001774  0.763904  1
  O  O100  1  0.791219  0.998157  0.635202  1
  O  O101  1  0.291222  0.001674  0.632563  1
  O  O102  1  0.790961  0.998094  0.761270  1
  O  O103  1  0.009735  0.911989  0.785905  1
  O  O104  1  0.009806  0.911978  0.610565  1
  O  O105  1  0.509786  0.087851  0.657200  1
  O  O106  1  0.509773  0.087880  0.739268  1
  O  O107  1  0.248564  0.334448  0.790428  1
  O  O108  1  0.748121  0.328719  0.606505  1
  O  O109  1  0.248038  0.671124  0.661254  1
  O  O110  1  0.749228  0.665590  0.734761  1
  O  O111  1  0.249292  0.670783  0.735173  1
  O  O112  1  0.747975  0.665183  0.661741  1
  O  O113  1  0.248056  0.334626  0.606025  1
  O  O114  1  0.748630  0.328925  0.789978  1
  O  O115  1  0.005560  0.328961  0.764367  1
  O  O116  1  0.005473  0.328939  0.632100  1
  O  O117  1  0.505522  0.670891  0.635663  1
  O  O118  1  0.505625  0.670901  0.760804  1
  O  O119  1  0.006394  0.766132  0.811034  1
  O  O120  1  0.006300  0.766147  0.585433  1
  O  O121  1  0.506204  0.233693  0.682330  1
  O  O122  1  0.506372  0.233718  0.714137  1
  O  O123  1  0.216090  0.706960  0.784915  1
  O  O124  1  0.718379  0.728467  0.609587  1
  O  O125  1  0.218301  0.271348  0.658176  1
  O  O126  1  0.716118  0.292930  0.740252  1
  O  O127  1  0.218375  0.271387  0.738289  1
  O  O128  1  0.716046  0.292904  0.656217  1
  O  O129  1  0.216125  0.706932  0.611546  1
  O  O130  1  0.718347  0.728467  0.786885  1
  O  O131  1  0.508796  0.522807  0.783935  1
  O  O132  1  0.508874  0.522789  0.612533  1
  O  O133  1  0.008833  0.477035  0.655231  1
  O  O134  1  0.008932  0.477063  0.741237  1
  O  O135  1  0.509298  0.451902  0.811826  1
  O  O136  1  0.509508  0.451888  0.584642  1
  O  O137  1  0.009534  0.547945  0.683121  1
  O  O138  1  0.009152  0.547952  0.713345  1
  O  O139  1  0.727260  0.621544  0.569527  1
  O  O140  1  0.224698  0.600805  0.569535  1
  O  O141  1  0.724627  0.399042  0.698224  1
  O  O142  1  0.227189  0.378299  0.698241  1
  Si  Si143  1  0.024980  0.013660  0.258291  1
  Si  Si144  1  0.025231  0.013647  0.108544  1
  Si  Si145  1  0.525230  0.986182  0.129587  1
  Si  Si146  1  0.524979  0.986211  0.237249  1
  Si  Si147  1  0.003426  0.281316  0.266924  1
  Si  Si148  1  0.003254  0.281296  0.099910  1
  Si  Si149  1  0.503223  0.718531  0.138220  1
  Si  Si150  1  0.503752  0.718553  0.228615  1
  Si  Si151  1  0.987889  0.781288  0.277690  1
  Si  Si152  1  0.987903  0.781285  0.089146  1
  Si  Si153  1  0.487835  0.218546  0.148985  1
  Si  Si154  1  0.487915  0.218576  0.217850  1
  Si  Si155  1  0.487400  0.657371  0.264316  1
  Si  Si156  1  0.487414  0.657355  0.102517  1
  Si  Si157  1  0.987347  0.342471  0.135612  1
  Si  Si158  1  0.987428  0.342500  0.231221  1
  Si  Si159  1  0.503695  0.406876  0.279505  1
  Si  Si160  1  0.503530  0.406856  0.087330  1
  Si  Si161  1  0.003491  0.592971  0.150800  1
  Si  Si162  1  0.004024  0.592988  0.216032  1
  Si  Si163  1  0.992228  0.468126  0.183416  1
  Si  Si164  1  0.492415  0.307171  0.183416  1
  Si  Si165  1  0.024980  0.013660  0.515700  1
  Si  Si166  1  0.025231  0.013647  0.365953  1
  Si  Si167  1  0.525230  0.986182  0.386995  1
  Si  Si168  1  0.524979  0.986211  0.494657  1
  Si  Si169  1  0.003426  0.281316  0.524332  1
  Si  Si170  1  0.003254  0.281296  0.357318  1
  Si  Si171  1  0.503223  0.718531  0.395628  1
  Si  Si172  1  0.503752  0.718553  0.486023  1
  Si  Si173  1  0.987889  0.781288  0.535098  1
  Si  Si174  1  0.987903  0.781285  0.346554  1
  Si  Si175  1  0.487835  0.218546  0.406393  1
  Si  Si176  1  0.487915  0.218576  0.475258  1
  Si  Si177  1  0.487400  0.657371  0.521725  1
  Si  Si178  1  0.487414  0.657355  0.359926  1
  Si  Si179  1  0.987347  0.342471  0.393021  1
  Si  Si180  1  0.987428  0.342500  0.488630  1
  Si  Si181  1  0.503695  0.406876  0.536913  1
  Si  Si182  1  0.503530  0.406856  0.344738  1
  Si  Si183  1  0.003491  0.592971  0.408208  1
  Si  Si184  1  0.004024  0.592988  0.473441  1
  Si  Si185  1  0.492296  0.531718  0.312123  1
  Si  Si186  1  0.992228  0.468126  0.440825  1
  Si  Si187  1  0.992483  0.692674  0.312122  1
  Si  Si188  1  0.492415  0.307171  0.440825  1
  Si  Si189  1  0.024980  0.013660  0.773108  1
  Si  Si190  1  0.025231  0.013647  0.623361  1
  Si  Si191  1  0.525230  0.986182  0.644403  1
  Si  Si192  1  0.524979  0.986211  0.752066  1
  Si  Si193  1  0.003426  0.281316  0.781741  1
  Si  Si194  1  0.003254  0.281296  0.614726  1
  Si  Si195  1  0.503223  0.718531  0.653037  1
  Si  Si196  1  0.503752  0.718553  0.743431  1
  Si  Si197  1  0.987889  0.781288  0.792506  1
  Si  Si198  1  0.987903  0.781285  0.603962  1
  Si  Si199  1  0.487835  0.218546  0.663801  1
  Si  Si200  1  0.487915  0.218576  0.732666  1
  Si  Si201  1  0.487400  0.657371  0.779133  1
  Si  Si202  1  0.487414  0.657355  0.617334  1
  Si  Si203  1  0.987347  0.342471  0.650429  1
  Si  Si204  1  0.987428  0.342500  0.746038  1
  Si  Si205  1  0.503695  0.406876  0.794321  1
  Si  Si206  1  0.503530  0.406856  0.602147  1
  Si  Si207  1  0.003491  0.592971  0.665616  1
  Si  Si208  1  0.004024  0.592988  0.730849  1
  Si  Si209  1  0.492296  0.531718  0.569531  1
  Si  Si210  1  0.992228  0.468126  0.698233  1
  Si  Si211  1  0.992483  0.692674  0.569530  1
  Si  Si212  1  0.492415  0.307171  0.698233  1
  H  H213  1  0.006300  0.766147  0.059965  1
  H  H214  1  0.509508  0.451888  0.059174  1
  H  H215  1  0.006394  0.766132  0.821686  1
  H  H216  1  0.509298  0.451902  0.822477  1
