# generated using pymatgen
data_Si30H2O61
_symmetry_space_group_name_H-M   'P 1'
_cell_length_a   20.16320754
_cell_length_b   13.29161272
_cell_length_c   71.46093169
_cell_angle_alpha   90.00000000
_cell_angle_beta   90.00000000
_cell_angle_gamma   90.00000000
_symmetry_Int_Tables_number   1
_chemical_formula_structural   Si30H2O61
_chemical_formula_sum   'Si240 H16 O488'
_cell_volume   19151.6401581
_cell_formula_units_Z   8
loop_
 _symmetry_equiv_pos_site_id
 _symmetry_equiv_pos_as_xyz
  1  'x, y, z'
loop_
 _atom_site_type_symbol
 _atom_site_label
 _atom_site_symmetry_multiplicity
 _atom_site_fract_x
 _atom_site_fract_y
 _atom_site_fract_z
 _atom_site_occupancy
  O  O1  1  -0.000000  0.198662  0.165622  1
  O  O2  1  0.000000  0.198687  0.277478  1
  O  O3  1  0.690910  0.056505  0.276571  1
  O  O4  1  0.690908  0.056493  0.166531  1
  O  O5  1  0.810650  0.669713  0.166320  1
  O  O6  1  0.810656  0.669712  0.276782  1
  O  O7  1  0.747023  0.228012  0.276412  1
  O  O8  1  0.747024  0.228000  0.166691  1
  O  O9  1  0.705993  0.893134  0.255930  1
  O  O10  1  0.705984  0.893121  0.187171  1
  O  O11  1  0.801105  0.962891  0.275590  1
  O  O12  1  0.801099  0.962873  0.167512  1
  O  O13  1  0.899707  0.903258  0.255517  1
  O  O14  1  0.899704  0.903248  0.187585  1
  O  O15  1  0.908193  0.066620  0.275562  1
  O  O16  1  0.908186  0.066606  0.167539  1
  O  O17  1  0.873176  0.250525  0.276186  1
  O  O18  1  0.873177  0.250516  0.166917  1
  O  O19  1  0.796358  0.366599  0.255953  1
  O  O20  1  0.796357  0.366588  0.187150  1
  O  O21  1  0.879482  0.722574  0.194933  1
  O  O22  1  0.879489  0.722580  0.248170  1
  O  O23  1  0.921692  0.835202  0.221551  1
  O  O24  1  0.808580  0.555934  0.194693  1
  O  O25  1  0.808585  0.555943  0.248408  1
  O  O26  1  0.752511  0.724494  0.195685  1
  O  O27  1  0.752518  0.724504  0.247417  1
  O  O28  1  0.781819  0.434208  0.221551  1
  O  O29  1  0.696397  0.470151  0.196545  1
  O  O30  1  0.696400  0.470164  0.246557  1
  O  O31  1  0.697469  0.822980  0.221551  1
  O  O32  1  0.797212  0.381975  0.152088  1
  O  O33  1  0.904257  0.896493  0.290929  1
  O  O34  1  0.904252  0.896479  0.152173  1
  O  O35  1  0.797213  0.381986  0.291015  1
  O  O36  1  0.878679  0.727275  0.138449  1
  O  O37  1  0.908651  0.879340  0.117282  1
  O  O38  1  0.809030  0.556494  0.137585  1
  O  O39  1  0.689290  0.169711  0.137795  1
  O  O40  1  0.752914  0.728000  0.137424  1
  O  O41  1  0.793953  0.393123  0.116944  1
  O  O42  1  0.698838  0.462873  0.136604  1
  O  O43  1  0.000000  0.203976  0.110132  1
  O  O44  1  0.922216  0.169720  0.138178  1
  O  O45  1  0.703583  0.866588  0.116964  1
  O  O46  1  0.691361  0.055935  0.109422  1
  O  O47  1  0.747428  0.224495  0.108429  1
  O  O48  1  0.718124  0.934209  0.082563  1
  O  O49  1  0.803543  0.970151  0.107570  1
  O  O50  1  0.890612  0.943028  0.082564  1
  O  O51  1  0.911918  0.066932  0.109086  1
  O  O52  1  0.872607  0.247145  0.108908  1
  O  O53  1  0.802470  0.322975  0.082564  1
  O  O54  1  0.702726  0.881976  0.152026  1
  O  O55  1  0.499831  0.301258  0.277479  1
  O  O56  1  0.499829  0.301236  0.165624  1
  O  O57  1  0.621258  0.227285  0.277437  1
  O  O58  1  0.621259  0.227275  0.165666  1
  O  O59  1  0.591294  0.379353  0.256271  1
  O  O60  1  0.591290  0.379337  0.186833  1
  O  O61  1  0.399705  0.596651  0.187587  1
  O  O62  1  0.399706  0.596685  0.255519  1
  O  O63  1  0.408184  0.433287  0.167542  1
  O  O64  1  0.408195  0.433328  0.275565  1
  O  O65  1  0.373178  0.249376  0.166914  1
  O  O66  1  0.373176  0.249425  0.276183  1
  O  O67  1  0.577725  0.669720  0.165938  1
  O  O68  1  0.577724  0.669726  0.277166  1
  O  O69  1  0.500287  0.703993  0.249119  1
  O  O70  1  0.500282  0.703974  0.193983  1
  O  O71  1  0.379488  0.777358  0.248169  1
  O  O72  1  0.379481  0.777327  0.194932  1
  O  O73  1  0.421692  0.664719  0.221552  1
  O  O74  1  0.609330  0.443028  0.221552  1
  O  O75  1  0.588021  0.566930  0.195029  1
  O  O76  1  0.588024  0.566942  0.248073  1
  O  O77  1  0.627334  0.747142  0.195208  1
  O  O78  1  0.627339  0.747152  0.247896  1
  O  O79  1  0.404256  0.603455  0.290931  1
  O  O80  1  0.404254  0.603412  0.152175  1
  O  O81  1  0.500108  0.698661  0.138493  1
  O  O82  1  0.378678  0.772616  0.138450  1
  O  O83  1  0.408651  0.620552  0.117284  1
  O  O84  1  0.600235  0.403246  0.116531  1
  O  O85  1  0.591753  0.566606  0.136577  1
  O  O86  1  0.626761  0.750516  0.137198  1
  O  O87  1  0.422221  0.330197  0.138177  1
  O  O88  1  0.499658  0.295927  0.110132  1
  O  O89  1  0.620458  0.222573  0.109182  1
  O  O90  1  0.578251  0.335202  0.082564  1
  O  O91  1  0.390612  0.556892  0.082565  1
  O  O92  1  0.411914  0.432964  0.109084  1
  O  O93  1  0.372606  0.252752  0.108909  1
  O  O94  1  0.595685  0.396480  0.151943  1
  O  O95  1  0.121260  0.272619  0.165664  1
  O  O96  1  0.121257  0.272663  0.277435  1
  O  O97  1  0.091290  0.120557  0.186831  1
  O  O98  1  0.091294  0.120594  0.256268  1
  O  O99  1  0.297213  0.117912  0.152085  1
  O  O100  1  0.297212  0.117968  0.291012  1
  O  O101  1  0.190911  0.443396  0.166534  1
  O  O102  1  0.190907  0.443447  0.276574  1
  O  O103  1  0.310656  0.830214  0.276782  1
  O  O104  1  0.310649  0.830201  0.166320  1
  O  O105  1  0.247026  0.271888  0.166688  1
  O  O106  1  0.247022  0.271940  0.276409  1
  O  O107  1  0.205985  0.606773  0.187173  1
  O  O108  1  0.205991  0.606811  0.255933  1
  O  O109  1  0.301100  0.537024  0.167514  1
  O  O110  1  0.301104  0.537053  0.275592  1
  O  O111  1  0.000000  0.795945  0.249119  1
  O  O112  1  0.000000  0.795928  0.193983  1
  O  O113  1  0.077728  0.830201  0.277165  1
  O  O114  1  0.077721  0.830194  0.165937  1
  O  O115  1  0.296360  0.133306  0.187148  1
  O  O116  1  0.296355  0.133348  0.255950  1
  O  O117  1  0.308584  0.943997  0.248410  1
  O  O118  1  0.308579  0.943965  0.194695  1
  O  O119  1  0.252519  0.775435  0.247415  1
  O  O120  1  0.252511  0.775406  0.195685  1
  O  O121  1  0.281819  0.065712  0.221550  1
  O  O122  1  0.196399  0.029773  0.246557  1
  O  O123  1  0.196398  0.029752  0.196545  1
  O  O124  1  0.109330  0.056892  0.221551  1
  O  O125  1  0.088022  0.932999  0.248074  1
  O  O126  1  0.088023  0.932969  0.195031  1
  O  O127  1  0.127339  0.752789  0.247895  1
  O  O128  1  0.127332  0.752756  0.195207  1
  O  O129  1  0.197473  0.676945  0.221552  1
  O  O130  1  0.000000  0.801233  0.138492  1
  O  O131  1  0.309027  0.943395  0.137581  1
  O  O132  1  0.189290  0.330206  0.137795  1
  O  O133  1  0.252913  0.771887  0.137426  1
  O  O134  1  0.293951  0.106772  0.116941  1
  O  O135  1  0.198837  0.037021  0.136601  1
  O  O136  1  0.100233  0.096651  0.116528  1
  O  O137  1  0.091753  0.933287  0.136574  1
  O  O138  1  0.126760  0.749375  0.137201  1
  O  O139  1  0.203579  0.633305  0.116967  1
  O  O140  1  0.120457  0.277329  0.109183  1
  O  O141  1  0.078250  0.164719  0.082563  1
  O  O142  1  0.191361  0.443966  0.109419  1
  O  O143  1  0.247429  0.275406  0.108431  1
  O  O144  1  0.218123  0.565712  0.082564  1
  O  O145  1  0.303542  0.529753  0.107570  1
  O  O146  1  0.302473  0.176940  0.082563  1
  O  O147  1  0.095684  0.103414  0.151940  1
  O  O148  1  0.202724  0.617912  0.152029  1
  O  O149  1  0.000000  0.198662  0.443597  1
  O  O150  1  0.000000  0.198687  0.555453  1
  O  O151  1  0.690910  0.056505  0.554545  1
  O  O152  1  0.690908  0.056493  0.444505  1
  O  O153  1  0.810650  0.669713  0.444294  1
  O  O154  1  0.810656  0.669712  0.554757  1
  O  O155  1  0.747023  0.228012  0.554387  1
  O  O156  1  0.747024  0.228000  0.444665  1
  O  O157  1  0.705993  0.893134  0.533905  1
  O  O158  1  0.705984  0.893121  0.465145  1
  O  O159  1  0.801105  0.962891  0.553564  1
  O  O160  1  0.801099  0.962873  0.445486  1
  O  O161  1  0.899707  0.903258  0.533491  1
  O  O162  1  0.899704  0.903248  0.465559  1
  O  O163  1  0.908193  0.066620  0.553537  1
  O  O164  1  0.908186  0.066606  0.445513  1
  O  O165  1  0.873176  0.250525  0.554160  1
  O  O166  1  0.873177  0.250516  0.444891  1
  O  O167  1  0.796358  0.366599  0.533927  1
  O  O168  1  0.796357  0.366588  0.465125  1
  O  O169  1  0.879482  0.722574  0.472907  1
  O  O170  1  0.879489  0.722580  0.526145  1
  O  O171  1  0.921692  0.835202  0.499525  1
  O  O172  1  0.808580  0.555934  0.472667  1
  O  O173  1  0.808585  0.555943  0.526383  1
  O  O174  1  0.752511  0.724494  0.473659  1
  O  O175  1  0.752518  0.724504  0.525391  1
  O  O176  1  0.781819  0.434208  0.499526  1
  O  O177  1  0.696397  0.470151  0.474520  1
  O  O178  1  0.696400  0.470164  0.524532  1
  O  O179  1  0.697469  0.822980  0.499526  1
  O  O180  1  0.797212  0.381975  0.430063  1
  O  O181  1  0.904257  0.896493  0.568903  1
  O  O182  1  0.904252  0.896479  0.430147  1
  O  O183  1  0.797213  0.381986  0.568989  1
  O  O184  1  0.878679  0.727275  0.416423  1
  O  O185  1  0.878689  0.727284  0.304652  1
  O  O186  1  0.908651  0.879340  0.395257  1
  O  O187  1  0.908650  0.879350  0.325819  1
  O  O188  1  0.702734  0.881985  0.291074  1
  O  O189  1  0.809030  0.556494  0.415559  1
  O  O190  1  0.809037  0.556505  0.305519  1
  O  O191  1  0.689290  0.169713  0.305307  1
  O  O192  1  0.689290  0.169711  0.415770  1
  O  O193  1  0.752914  0.728000  0.415399  1
  O  O194  1  0.752924  0.728013  0.305678  1
  O  O195  1  0.793953  0.393123  0.394918  1
  O  O196  1  0.793956  0.393133  0.326159  1
  O  O197  1  0.698838  0.462873  0.414578  1
  O  O198  1  0.698842  0.462890  0.306500  1
  O  O199  1  -0.000000  0.203991  0.332970  1
  O  O200  1  0.000000  0.203976  0.388106  1
  O  O201  1  0.922220  0.169727  0.304924  1
  O  O202  1  0.922216  0.169720  0.416152  1
  O  O203  1  0.703583  0.866588  0.394939  1
  O  O204  1  0.703587  0.866599  0.326137  1
  O  O205  1  0.691360  0.055944  0.333681  1
  O  O206  1  0.691361  0.055935  0.387396  1
  O  O207  1  0.747427  0.224504  0.334673  1
  O  O208  1  0.747428  0.224495  0.386404  1
  O  O209  1  0.718124  0.934209  0.360538  1
  O  O210  1  0.803545  0.970165  0.335532  1
  O  O211  1  0.803543  0.970151  0.385544  1
  O  O212  1  0.890612  0.943028  0.360538  1
  O  O213  1  0.911922  0.066940  0.334017  1
  O  O214  1  0.911918  0.066932  0.387060  1
  O  O215  1  0.872607  0.247150  0.334194  1
  O  O216  1  0.872607  0.247145  0.386882  1
  O  O217  1  0.802470  0.322975  0.360538  1
  O  O218  1  0.702726  0.881976  0.430001  1
  O  O219  1  0.499831  0.301258  0.555453  1
  O  O220  1  0.499829  0.301236  0.443598  1
  O  O221  1  0.621258  0.227285  0.555411  1
  O  O222  1  0.621259  0.227275  0.443640  1
  O  O223  1  0.591294  0.379353  0.534245  1
  O  O224  1  0.591290  0.379337  0.464808  1
  O  O225  1  0.399705  0.596651  0.465562  1
  O  O226  1  0.399706  0.596685  0.533493  1
  O  O227  1  0.408184  0.433287  0.445516  1
  O  O228  1  0.408195  0.433328  0.553540  1
  O  O229  1  0.373178  0.249376  0.444888  1
  O  O230  1  0.373176  0.249425  0.554157  1
  O  O231  1  0.577725  0.669720  0.443912  1
  O  O232  1  0.577724  0.669726  0.555140  1
  O  O233  1  0.500287  0.703993  0.527094  1
  O  O234  1  0.500282  0.703974  0.471957  1
  O  O235  1  0.379488  0.777358  0.526144  1
  O  O236  1  0.379481  0.777327  0.472906  1
  O  O237  1  0.421692  0.664719  0.499526  1
  O  O238  1  0.609330  0.443028  0.499526  1
  O  O239  1  0.588021  0.566930  0.473003  1
  O  O240  1  0.588024  0.566942  0.526047  1
  O  O241  1  0.627334  0.747142  0.473183  1
  O  O242  1  0.627339  0.747152  0.525870  1
  O  O243  1  0.404256  0.603455  0.568905  1
  O  O244  1  0.404254  0.603412  0.430149  1
  O  O245  1  0.500117  0.698687  0.304612  1
  O  O246  1  0.500108  0.698661  0.416467  1
  O  O247  1  0.378691  0.772666  0.304654  1
  O  O248  1  0.378678  0.772616  0.416424  1
  O  O249  1  0.408650  0.620599  0.325821  1
  O  O250  1  0.408651  0.620552  0.395258  1
  O  O251  1  0.600235  0.403246  0.394505  1
  O  O252  1  0.600239  0.403258  0.326573  1
  O  O253  1  0.591753  0.566606  0.414551  1
  O  O254  1  0.591754  0.566619  0.306527  1
  O  O255  1  0.626761  0.750516  0.415172  1
  O  O256  1  0.626770  0.750525  0.305903  1
  O  O257  1  0.422221  0.330197  0.416152  1
  O  O258  1  0.422215  0.330196  0.304924  1
  O  O259  1  0.499658  0.295946  0.332970  1
  O  O260  1  0.499658  0.295927  0.388106  1
  O  O261  1  0.620457  0.222582  0.333919  1
  O  O262  1  0.620458  0.222573  0.387157  1
  O  O263  1  0.578251  0.335202  0.360539  1
  O  O264  1  0.390612  0.556892  0.360539  1
  O  O265  1  0.411914  0.432964  0.387058  1
  O  O266  1  0.411925  0.433004  0.334014  1
  O  O267  1  0.372606  0.252752  0.386884  1
  O  O268  1  0.372607  0.252794  0.334196  1
  O  O269  1  0.595690  0.396493  0.291161  1
  O  O270  1  0.595685  0.396480  0.429917  1
  O  O271  1  0.121260  0.272619  0.443638  1
  O  O272  1  0.121257  0.272663  0.555410  1
  O  O273  1  0.091290  0.120557  0.464805  1
  O  O274  1  0.091294  0.120594  0.534243  1
  O  O275  1  0.297213  0.117912  0.430060  1
  O  O276  1  0.297212  0.117968  0.568987  1
  O  O277  1  0.190911  0.443396  0.444508  1
  O  O278  1  0.190907  0.443447  0.554548  1
  O  O279  1  0.310656  0.830214  0.554757  1
  O  O280  1  0.310649  0.830201  0.444294  1
  O  O281  1  0.247026  0.271888  0.444663  1
  O  O282  1  0.247022  0.271940  0.554384  1
  O  O283  1  0.205985  0.606773  0.465148  1
  O  O284  1  0.205991  0.606811  0.533907  1
  O  O285  1  0.301100  0.537024  0.445488  1
  O  O286  1  0.301104  0.537053  0.553567  1
  O  O287  1  0.000000  0.795945  0.527094  1
  O  O288  1  0.000000  0.795928  0.471957  1
  O  O289  1  0.077728  0.830201  0.555140  1
  O  O290  1  0.077721  0.830194  0.443912  1
  O  O291  1  0.296360  0.133306  0.465122  1
  O  O292  1  0.296355  0.133348  0.533924  1
  O  O293  1  0.308584  0.943997  0.526384  1
  O  O294  1  0.308579  0.943965  0.472669  1
  O  O295  1  0.252519  0.775435  0.525390  1
  O  O296  1  0.252511  0.775406  0.473659  1
  O  O297  1  0.281819  0.065712  0.499524  1
  O  O298  1  0.196399  0.029773  0.524531  1
  O  O299  1  0.196398  0.029752  0.474519  1
  O  O300  1  0.109330  0.056892  0.499525  1
  O  O301  1  0.088022  0.932999  0.526049  1
  O  O302  1  0.088023  0.932969  0.473005  1
  O  O303  1  0.127339  0.752789  0.525869  1
  O  O304  1  0.127332  0.752756  0.473181  1
  O  O305  1  0.197473  0.676945  0.499526  1
  O  O306  1  0.000000  0.801233  0.416467  1
  O  O307  1  0.000000  0.801259  0.304611  1
  O  O308  1  0.309041  0.943448  0.305516  1
  O  O309  1  0.309027  0.943395  0.415555  1
  O  O310  1  0.189290  0.330206  0.415769  1
  O  O311  1  0.189289  0.330211  0.305307  1
  O  O312  1  0.252926  0.771941  0.305680  1
  O  O313  1  0.252913  0.771887  0.415401  1
  O  O314  1  0.293958  0.106814  0.326156  1
  O  O315  1  0.293951  0.106772  0.394915  1
  O  O316  1  0.198843  0.037056  0.306498  1
  O  O317  1  0.198837  0.037021  0.414576  1
  O  O318  1  0.100241  0.096684  0.326571  1
  O  O319  1  0.100233  0.096651  0.394503  1
  O  O320  1  0.091754  0.933328  0.306524  1
  O  O321  1  0.091753  0.933287  0.414549  1
  O  O322  1  0.126771  0.749424  0.305906  1
  O  O323  1  0.126760  0.749375  0.415175  1
  O  O324  1  0.203591  0.633348  0.326139  1
  O  O325  1  0.203579  0.633305  0.394941  1
  O  O326  1  0.120457  0.277329  0.387157  1
  O  O327  1  0.120457  0.277358  0.333920  1
  O  O328  1  0.078250  0.164719  0.360537  1
  O  O329  1  0.191361  0.443966  0.387394  1
  O  O330  1  0.191360  0.443998  0.333679  1
  O  O331  1  0.247429  0.275406  0.386406  1
  O  O332  1  0.247427  0.275437  0.334674  1
  O  O333  1  0.218123  0.565712  0.360539  1
  O  O334  1  0.303542  0.529753  0.385544  1
  O  O335  1  0.303546  0.529772  0.335532  1
  O  O336  1  0.302473  0.176940  0.360537  1
  O  O337  1  0.095692  0.103455  0.291159  1
  O  O338  1  0.202736  0.617968  0.291077  1
  O  O339  1  0.095684  0.103414  0.429915  1
  O  O340  1  0.202724  0.617912  0.430003  1
  O  O341  1  0.000000  0.198662  0.721571  1
  O  O342  1  0.690908  0.056493  0.722479  1
  O  O343  1  0.810650  0.669713  0.722268  1
  O  O344  1  0.747024  0.228000  0.722640  1
  O  O345  1  0.705984  0.893121  0.743120  1
  O  O346  1  0.801099  0.962873  0.723460  1
  O  O347  1  0.899704  0.903248  0.743534  1
  O  O348  1  0.908186  0.066606  0.723487  1
  O  O349  1  0.873177  0.250516  0.722865  1
  O  O350  1  0.796357  0.366588  0.743099  1
  O  O351  1  0.879482  0.722574  0.750882  1
  O  O352  1  0.921692  0.835202  0.777500  1
  O  O353  1  0.808580  0.555934  0.750642  1
  O  O354  1  0.752511  0.724494  0.751633  1
  O  O355  1  0.781819  0.434208  0.777500  1
  O  O356  1  0.696397  0.470151  0.752494  1
  O  O357  1  0.697469  0.822980  0.777500  1
  O  O358  1  0.797212  0.381975  0.708037  1
  O  O359  1  0.904252  0.896479  0.708121  1
  O  O360  1  0.878679  0.727275  0.694398  1
  O  O361  1  0.878689  0.727284  0.582627  1
  O  O362  1  0.908651  0.879340  0.673231  1
  O  O363  1  0.908650  0.879350  0.603794  1
  O  O364  1  0.702734  0.881985  0.569049  1
  O  O365  1  0.809030  0.556494  0.693534  1
  O  O366  1  0.809037  0.556505  0.583493  1
  O  O367  1  0.689290  0.169713  0.583281  1
  O  O368  1  0.689290  0.169711  0.693744  1
  O  O369  1  0.752914  0.728000  0.693373  1
  O  O370  1  0.752924  0.728013  0.583652  1
  O  O371  1  0.793953  0.393123  0.672893  1
  O  O372  1  0.793956  0.393133  0.604133  1
  O  O373  1  0.698838  0.462873  0.692552  1
  O  O374  1  0.698842  0.462890  0.584474  1
  O  O375  1  0.000000  0.203991  0.610944  1
  O  O376  1  0.000000  0.203976  0.666080  1
  O  O377  1  0.922220  0.169727  0.582898  1
  O  O378  1  0.922216  0.169720  0.694127  1
  O  O379  1  0.703583  0.866588  0.672913  1
  O  O380  1  0.703587  0.866599  0.604111  1
  O  O381  1  0.691360  0.055944  0.611655  1
  O  O382  1  0.691361  0.055935  0.665371  1
  O  O383  1  0.747427  0.224504  0.612647  1
  O  O384  1  0.747428  0.224495  0.664378  1
  O  O385  1  0.718124  0.934209  0.638512  1
  O  O386  1  0.803545  0.970165  0.613506  1
  O  O387  1  0.803543  0.970151  0.663519  1
  O  O388  1  0.890612  0.943028  0.638512  1
  O  O389  1  0.911922  0.066940  0.611991  1
  O  O390  1  0.911918  0.066932  0.665035  1
  O  O391  1  0.872607  0.247150  0.612168  1
  O  O392  1  0.872607  0.247145  0.664856  1
  O  O393  1  0.802470  0.322975  0.638513  1
  O  O394  1  0.702726  0.881976  0.707975  1
  O  O395  1  0.499829  0.301236  0.721572  1
  O  O396  1  0.621259  0.227275  0.721615  1
  O  O397  1  0.591290  0.379337  0.742782  1
  O  O398  1  0.399705  0.596651  0.743536  1
  O  O399  1  0.408184  0.433287  0.723490  1
  O  O400  1  0.373178  0.249376  0.722862  1
  O  O401  1  0.577725  0.669720  0.721886  1
  O  O402  1  0.500282  0.703974  0.749932  1
  O  O403  1  0.379481  0.777327  0.750881  1
  O  O404  1  0.421692  0.664719  0.777501  1
  O  O405  1  0.609330  0.443028  0.777501  1
  O  O406  1  0.588021  0.566930  0.750978  1
  O  O407  1  0.627334  0.747142  0.751157  1
  O  O408  1  0.404254  0.603412  0.708124  1
  O  O409  1  0.500117  0.698687  0.582586  1
  O  O410  1  0.500108  0.698661  0.694442  1
  O  O411  1  0.378691  0.772666  0.582628  1
  O  O412  1  0.378678  0.772616  0.694399  1
  O  O413  1  0.408650  0.620599  0.603796  1
  O  O414  1  0.408651  0.620552  0.673233  1
  O  O415  1  0.600235  0.403246  0.672479  1
  O  O416  1  0.600239  0.403258  0.604548  1
  O  O417  1  0.591753  0.566606  0.692526  1
  O  O418  1  0.591754  0.566619  0.584502  1
  O  O419  1  0.626761  0.750516  0.693147  1
  O  O420  1  0.626770  0.750525  0.583877  1
  O  O421  1  0.422221  0.330197  0.694126  1
  O  O422  1  0.422215  0.330196  0.582899  1
  O  O423  1  0.499658  0.295946  0.610944  1
  O  O424  1  0.499658  0.295927  0.666081  1
  O  O425  1  0.620457  0.222582  0.611894  1
  O  O426  1  0.620458  0.222573  0.665131  1
  O  O427  1  0.578251  0.335202  0.638513  1
  O  O428  1  0.390612  0.556892  0.638513  1
  O  O429  1  0.411914  0.432964  0.665032  1
  O  O430  1  0.411925  0.433004  0.611989  1
  O  O431  1  0.372606  0.252752  0.664858  1
  O  O432  1  0.372607  0.252794  0.612170  1
  O  O433  1  0.595690  0.396493  0.569136  1
  O  O434  1  0.595685  0.396480  0.707892  1
  O  O435  1  0.121260  0.272619  0.721613  1
  O  O436  1  0.091290  0.120557  0.742780  1
  O  O437  1  0.297213  0.117912  0.708034  1
  O  O438  1  0.190911  0.443396  0.722482  1
  O  O439  1  0.310649  0.830201  0.722268  1
  O  O440  1  0.247026  0.271888  0.722637  1
  O  O441  1  0.205985  0.606773  0.743122  1
  O  O442  1  0.301100  0.537024  0.723463  1
  O  O443  1  0.000000  0.795928  0.749932  1
  O  O444  1  0.077721  0.830194  0.721886  1
  O  O445  1  0.296360  0.133306  0.743097  1
  O  O446  1  0.308579  0.943965  0.750643  1
  O  O447  1  0.252511  0.775406  0.751633  1
  O  O448  1  0.281819  0.065712  0.777499  1
  O  O449  1  0.196398  0.029752  0.752494  1
  O  O450  1  0.109330  0.056892  0.777499  1
  O  O451  1  0.088023  0.932969  0.750980  1
  O  O452  1  0.127332  0.752756  0.751156  1
  O  O453  1  0.197473  0.676945  0.777501  1
  O  O454  1  0.000000  0.801233  0.694441  1
  O  O455  1  0.000000  0.801259  0.582585  1
  O  O456  1  0.309041  0.943448  0.583490  1
  O  O457  1  0.309027  0.943395  0.693530  1
  O  O458  1  0.189290  0.330206  0.693744  1
  O  O459  1  0.189289  0.330211  0.583281  1
  O  O460  1  0.252926  0.771941  0.583654  1
  O  O461  1  0.252913  0.771887  0.693375  1
  O  O462  1  0.293958  0.106814  0.604130  1
  O  O463  1  0.293951  0.106772  0.672890  1
  O  O464  1  0.198843  0.037056  0.584472  1
  O  O465  1  0.198837  0.037021  0.692550  1
  O  O466  1  0.100241  0.096684  0.604545  1
  O  O467  1  0.100233  0.096651  0.672477  1
  O  O468  1  0.091754  0.933328  0.584499  1
  O  O469  1  0.091753  0.933287  0.692523  1
  O  O470  1  0.126771  0.749424  0.583880  1
  O  O471  1  0.126760  0.749375  0.693149  1
  O  O472  1  0.203591  0.633348  0.604113  1
  O  O473  1  0.203579  0.633305  0.672915  1
  O  O474  1  0.120457  0.277329  0.665132  1
  O  O475  1  0.120457  0.277358  0.611894  1
  O  O476  1  0.078250  0.164719  0.638512  1
  O  O477  1  0.191361  0.443966  0.665368  1
  O  O478  1  0.191360  0.443998  0.611653  1
  O  O479  1  0.247429  0.275406  0.664380  1
  O  O480  1  0.247427  0.275437  0.612648  1
  O  O481  1  0.218123  0.565712  0.638513  1
  O  O482  1  0.303542  0.529753  0.663519  1
  O  O483  1  0.303546  0.529772  0.613506  1
  O  O484  1  0.302473  0.176940  0.638511  1
  O  O485  1  0.095692  0.103455  0.569133  1
  O  O486  1  0.202736  0.617968  0.569051  1
  O  O487  1  0.095684  0.103414  0.707889  1
  O  O488  1  0.202724  0.617912  0.707978  1
  Si  Si489  1  0.772771  0.454940  0.243021  1
  Si  Si490  1  0.772768  0.454931  0.200082  1
  Si  Si491  1  0.694768  0.799166  0.243029  1
  Si  Si492  1  0.694764  0.799158  0.200074  1
  Si  Si493  1  0.685171  0.168268  0.283528  1
  Si  Si494  1  0.685171  0.168258  0.159575  1
  Si  Si495  1  0.724278  0.950334  0.274406  1
  Si  Si496  1  0.724271  0.950319  0.168695  1
  Si  Si497  1  0.878158  0.958569  0.273965  1
  Si  Si498  1  0.878152  0.958555  0.169136  1
  Si  Si499  1  0.926473  0.173552  0.283147  1
  Si  Si500  1  0.926470  0.173538  0.159955  1
  Si  Si501  1  0.804794  0.305655  0.274569  1
  Si  Si502  1  0.804794  0.305644  0.168534  1
  Si  Si503  1  0.926023  0.813759  0.199950  1
  Si  Si504  1  0.926028  0.813766  0.243152  1
  Si  Si505  1  0.814797  0.667961  0.188074  1
  Si  Si506  1  0.814802  0.667968  0.255028  1
  Si  Si507  1  0.805176  0.299159  0.104041  1
  Si  Si508  1  0.923965  0.822763  0.136092  1
  Si  Si509  1  0.814767  0.668259  0.144540  1
  Si  Si510  1  0.775666  0.450321  0.135420  1
  Si  Si511  1  0.695144  0.805645  0.135581  1
  Si  Si512  1  0.685144  0.167961  0.116041  1
  Si  Si513  1  0.727172  0.954932  0.104033  1
  Si  Si514  1  0.880295  0.963162  0.104077  1
  Si  Si515  1  0.927481  0.174836  0.116452  1
  Si  Si516  1  0.572462  0.674846  0.255440  1
  Si  Si517  1  0.572459  0.674835  0.187663  1
  Si  Si518  1  0.575976  0.322778  0.275081  1
  Si  Si519  1  0.575973  0.322763  0.168023  1
  Si  Si520  1  0.378154  0.541340  0.169138  1
  Si  Si521  1  0.378157  0.541377  0.273968  1
  Si  Si522  1  0.426471  0.326361  0.159955  1
  Si  Si523  1  0.426472  0.326390  0.283147  1
  Si  Si524  1  0.426027  0.686169  0.243153  1
  Si  Si525  1  0.426024  0.686147  0.199951  1
  Si  Si526  1  0.619645  0.463161  0.200038  1
  Si  Si527  1  0.619648  0.463172  0.243065  1
  Si  Si528  1  0.427481  0.325065  0.116452  1
  Si  Si529  1  0.423965  0.677128  0.136094  1
  Si  Si530  1  0.621785  0.458555  0.134980  1
  Si  Si531  1  0.573468  0.673539  0.144161  1
  Si  Si532  1  0.573917  0.313757  0.104165  1
  Si  Si533  1  0.380294  0.536740  0.104078  1
  Si  Si534  1  0.075974  0.177130  0.168021  1
  Si  Si535  1  0.075975  0.177169  0.275078  1
  Si  Si536  1  0.185173  0.331636  0.159575  1
  Si  Si537  1  0.185169  0.331677  0.283527  1
  Si  Si538  1  0.224272  0.549571  0.168698  1
  Si  Si539  1  0.224277  0.549616  0.274409  1
  Si  Si540  1  0.304796  0.194245  0.168531  1
  Si  Si541  1  0.304792  0.194296  0.274566  1
  Si  Si542  1  0.314802  0.831969  0.255028  1
  Si  Si543  1  0.314796  0.831941  0.188074  1
  Si  Si544  1  0.272770  0.044997  0.243020  1
  Si  Si545  1  0.272769  0.044972  0.200081  1
  Si  Si546  1  0.119647  0.036766  0.243064  1
  Si  Si547  1  0.119646  0.036743  0.200037  1
  Si  Si548  1  0.072463  0.825092  0.255440  1
  Si  Si549  1  0.072458  0.825069  0.187663  1
  Si  Si550  1  0.194769  0.700771  0.243029  1
  Si  Si551  1  0.194763  0.700746  0.200074  1
  Si  Si552  1  0.227172  0.544973  0.104033  1
  Si  Si553  1  0.305176  0.200744  0.104041  1
  Si  Si554  1  0.314766  0.831635  0.144540  1
  Si  Si555  1  0.275665  0.049570  0.135417  1
  Si  Si556  1  0.121784  0.041339  0.134977  1
  Si  Si557  1  0.073468  0.826360  0.144160  1
  Si  Si558  1  0.195142  0.694245  0.135584  1
  Si  Si559  1  0.073916  0.186147  0.104164  1
  Si  Si560  1  0.185143  0.331943  0.116040  1
  Si  Si561  1  0.772771  0.454940  0.520995  1
  Si  Si562  1  0.772768  0.454931  0.478056  1
  Si  Si563  1  0.694768  0.799166  0.521004  1
  Si  Si564  1  0.694764  0.799158  0.478048  1
  Si  Si565  1  0.685171  0.168268  0.561502  1
  Si  Si566  1  0.685171  0.168258  0.437549  1
  Si  Si567  1  0.724278  0.950334  0.552380  1
  Si  Si568  1  0.724271  0.950319  0.446670  1
  Si  Si569  1  0.878158  0.958569  0.551940  1
  Si  Si570  1  0.878152  0.958555  0.447110  1
  Si  Si571  1  0.926473  0.173552  0.561122  1
  Si  Si572  1  0.926470  0.173538  0.437929  1
  Si  Si573  1  0.804794  0.305655  0.552544  1
  Si  Si574  1  0.804794  0.305644  0.446508  1
  Si  Si575  1  0.926023  0.813759  0.477925  1
  Si  Si576  1  0.926028  0.813766  0.521126  1
  Si  Si577  1  0.814797  0.667961  0.466049  1
  Si  Si578  1  0.814802  0.667968  0.533002  1
  Si  Si579  1  0.805176  0.299159  0.382016  1
  Si  Si580  1  0.923965  0.822763  0.414067  1
  Si  Si581  1  0.923971  0.822778  0.307009  1
  Si  Si582  1  0.814767  0.668259  0.422514  1
  Si  Si583  1  0.814776  0.668268  0.298562  1
  Si  Si584  1  0.775666  0.450321  0.413394  1
  Si  Si585  1  0.775670  0.450333  0.307683  1
  Si  Si586  1  0.695144  0.805645  0.413555  1
  Si  Si587  1  0.695153  0.805655  0.307520  1
  Si  Si588  1  0.685143  0.167969  0.327062  1
  Si  Si589  1  0.685144  0.167961  0.394015  1
  Si  Si590  1  0.727174  0.954941  0.339069  1
  Si  Si591  1  0.727172  0.954932  0.382007  1
  Si  Si592  1  0.880297  0.963170  0.339025  1
  Si  Si593  1  0.880295  0.963162  0.382052  1
  Si  Si594  1  0.927483  0.174844  0.326649  1
  Si  Si595  1  0.927481  0.174836  0.394427  1
  Si  Si596  1  0.805177  0.299165  0.339061  1
  Si  Si597  1  0.572462  0.674846  0.533415  1
  Si  Si598  1  0.572459  0.674835  0.465637  1
  Si  Si599  1  0.575976  0.322778  0.553055  1
  Si  Si600  1  0.575973  0.322763  0.445997  1
  Si  Si601  1  0.378154  0.541340  0.447113  1
  Si  Si602  1  0.378157  0.541377  0.551942  1
  Si  Si603  1  0.426471  0.326361  0.437929  1
  Si  Si604  1  0.426472  0.326390  0.561122  1
  Si  Si605  1  0.426027  0.686169  0.521127  1
  Si  Si606  1  0.426024  0.686147  0.477925  1
  Si  Si607  1  0.619645  0.463161  0.478012  1
  Si  Si608  1  0.619648  0.463172  0.521039  1
  Si  Si609  1  0.427483  0.325094  0.326649  1
  Si  Si610  1  0.427481  0.325065  0.394427  1
  Si  Si611  1  0.423971  0.677171  0.307011  1
  Si  Si612  1  0.423965  0.677128  0.414068  1
  Si  Si613  1  0.621785  0.458555  0.412954  1
  Si  Si614  1  0.621789  0.458569  0.308124  1
  Si  Si615  1  0.573468  0.673539  0.422135  1
  Si  Si616  1  0.573473  0.673551  0.298943  1
  Si  Si617  1  0.573918  0.313767  0.338938  1
  Si  Si618  1  0.573917  0.313757  0.382139  1
  Si  Si619  1  0.380294  0.536740  0.382052  1
  Si  Si620  1  0.380297  0.536768  0.339025  1
  Si  Si621  1  0.075974  0.177130  0.445995  1
  Si  Si622  1  0.075975  0.177169  0.553053  1
  Si  Si623  1  0.185173  0.331636  0.437549  1
  Si  Si624  1  0.185169  0.331677  0.561501  1
  Si  Si625  1  0.224272  0.549571  0.446672  1
  Si  Si626  1  0.224277  0.549616  0.552383  1
  Si  Si627  1  0.304796  0.194245  0.446505  1
  Si  Si628  1  0.304792  0.194296  0.552541  1
  Si  Si629  1  0.314802  0.831969  0.533002  1
  Si  Si630  1  0.314796  0.831941  0.466049  1
  Si  Si631  1  0.272770  0.044997  0.520994  1
  Si  Si632  1  0.272769  0.044972  0.478056  1
  Si  Si633  1  0.119647  0.036766  0.521039  1
  Si  Si634  1  0.119646  0.036743  0.478012  1
  Si  Si635  1  0.072463  0.825092  0.533414  1
  Si  Si636  1  0.072458  0.825069  0.465637  1
  Si  Si637  1  0.194769  0.700771  0.521004  1
  Si  Si638  1  0.194763  0.700746  0.478048  1
  Si  Si639  1  0.227175  0.544996  0.339069  1
  Si  Si640  1  0.227172  0.544973  0.382008  1
  Si  Si641  1  0.305177  0.200773  0.339060  1
  Si  Si642  1  0.305176  0.200744  0.382015  1
  Si  Si643  1  0.314777  0.831679  0.298562  1
  Si  Si644  1  0.314766  0.831635  0.422514  1
  Si  Si645  1  0.275671  0.049617  0.307680  1
  Si  Si646  1  0.275665  0.049570  0.413391  1
  Si  Si647  1  0.121790  0.041377  0.308122  1
  Si  Si648  1  0.121784  0.041339  0.412951  1
  Si  Si649  1  0.073474  0.826390  0.298942  1
  Si  Si650  1  0.073468  0.826360  0.422135  1
  Si  Si651  1  0.195155  0.694297  0.307523  1
  Si  Si652  1  0.195142  0.694245  0.413558  1
  Si  Si653  1  0.073916  0.186147  0.382138  1
  Si  Si654  1  0.073918  0.186168  0.338937  1
  Si  Si655  1  0.185143  0.331943  0.394015  1
  Si  Si656  1  0.185143  0.331968  0.327061  1
  Si  Si657  1  0.772768  0.454931  0.756031  1
  Si  Si658  1  0.694764  0.799158  0.756023  1
  Si  Si659  1  0.685171  0.168258  0.715524  1
  Si  Si660  1  0.724271  0.950319  0.724644  1
  Si  Si661  1  0.878152  0.958555  0.725085  1
  Si  Si662  1  0.926470  0.173538  0.715903  1
  Si  Si663  1  0.804794  0.305644  0.724482  1
  Si  Si664  1  0.926023  0.813759  0.755899  1
  Si  Si665  1  0.814797  0.667961  0.744023  1
  Si  Si666  1  0.805176  0.299159  0.659990  1
  Si  Si667  1  0.923965  0.822763  0.692041  1
  Si  Si668  1  0.923971  0.822778  0.584984  1
  Si  Si669  1  0.814767  0.668259  0.700489  1
  Si  Si670  1  0.814776  0.668268  0.576536  1
  Si  Si671  1  0.775666  0.450321  0.691368  1
  Si  Si672  1  0.775670  0.450333  0.585658  1
  Si  Si673  1  0.695144  0.805645  0.691530  1
  Si  Si674  1  0.695153  0.805655  0.585494  1
  Si  Si675  1  0.685143  0.167969  0.605036  1
  Si  Si676  1  0.685144  0.167961  0.671990  1
  Si  Si677  1  0.727174  0.954941  0.617043  1
  Si  Si678  1  0.727172  0.954932  0.659982  1
  Si  Si679  1  0.880297  0.963170  0.616999  1
  Si  Si680  1  0.880295  0.963162  0.660026  1
  Si  Si681  1  0.927483  0.174844  0.604624  1
  Si  Si682  1  0.927481  0.174836  0.672401  1
  Si  Si683  1  0.805177  0.299165  0.617035  1
  Si  Si684  1  0.572459  0.674835  0.743612  1
  Si  Si685  1  0.575973  0.322763  0.723972  1
  Si  Si686  1  0.378154  0.541340  0.725087  1
  Si  Si687  1  0.426471  0.326361  0.715903  1
  Si  Si688  1  0.426024  0.686147  0.755900  1
  Si  Si689  1  0.619645  0.463161  0.755987  1
  Si  Si690  1  0.427483  0.325094  0.604624  1
  Si  Si691  1  0.427481  0.325065  0.672401  1
  Si  Si692  1  0.423971  0.677171  0.584985  1
  Si  Si693  1  0.423965  0.677128  0.692043  1
  Si  Si694  1  0.621785  0.458555  0.690928  1
  Si  Si695  1  0.621789  0.458569  0.586099  1
  Si  Si696  1  0.573468  0.673539  0.700109  1
  Si  Si697  1  0.573473  0.673551  0.576917  1
  Si  Si698  1  0.573918  0.313767  0.616912  1
  Si  Si699  1  0.573917  0.313757  0.660114  1
  Si  Si700  1  0.380294  0.536740  0.660026  1
  Si  Si701  1  0.380297  0.536768  0.616999  1
  Si  Si702  1  0.075974  0.177130  0.723970  1
  Si  Si703  1  0.185173  0.331636  0.715523  1
  Si  Si704  1  0.224272  0.549571  0.724647  1
  Si  Si705  1  0.304796  0.194245  0.724479  1
  Si  Si706  1  0.314796  0.831941  0.744023  1
  Si  Si707  1  0.272769  0.044972  0.756030  1
  Si  Si708  1  0.119646  0.036743  0.755986  1
  Si  Si709  1  0.072458  0.825069  0.743612  1
  Si  Si710  1  0.194763  0.700746  0.756023  1
  Si  Si711  1  0.227175  0.544996  0.617043  1
  Si  Si712  1  0.227172  0.544973  0.659982  1
  Si  Si713  1  0.305177  0.200773  0.617035  1
  Si  Si714  1  0.305176  0.200744  0.659990  1
  Si  Si715  1  0.314777  0.831679  0.576536  1
  Si  Si716  1  0.314766  0.831635  0.700489  1
  Si  Si717  1  0.275671  0.049617  0.585655  1
  Si  Si718  1  0.275665  0.049570  0.691365  1
  Si  Si719  1  0.121790  0.041377  0.586096  1
  Si  Si720  1  0.121784  0.041339  0.690926  1
  Si  Si721  1  0.073474  0.826390  0.576917  1
  Si  Si722  1  0.073468  0.826360  0.700109  1
  Si  Si723  1  0.195155  0.694297  0.585497  1
  Si  Si724  1  0.195142  0.694245  0.691532  1
  Si  Si725  1  0.073916  0.186147  0.660113  1
  Si  Si726  1  0.073918  0.186168  0.616911  1
  Si  Si727  1  0.185143  0.331943  0.671989  1
  Si  Si728  1  0.185143  0.331968  0.605036  1
  H  H729  1  0.718124  0.934209  0.069969  1
  H  H730  1  0.890612  0.943028  0.069969  1
  H  H731  1  0.802470  0.322975  0.069970  1
  H  H732  1  0.578251  0.335202  0.069970  1
  H  H733  1  0.390612  0.556892  0.069970  1
  H  H734  1  0.078250  0.164719  0.069969  1
  H  H735  1  0.218123  0.565712  0.069970  1
  H  H736  1  0.302473  0.176940  0.069968  1
  H  H737  1  0.921692  0.835202  0.790094  1
  H  H738  1  0.781819  0.434208  0.790094  1
  H  H739  1  0.697469  0.822980  0.790095  1
  H  H740  1  0.421692  0.664719  0.790095  1
  H  H741  1  0.609330  0.443028  0.790095  1
  H  H742  1  0.281819  0.065712  0.790093  1
  H  H743  1  0.109330  0.056892  0.790094  1
  H  H744  1  0.197473  0.676945  0.790095  1
