# generated using pymatgen
data_Si6H2O13
_symmetry_space_group_name_H-M   'P 1'
_cell_length_a   14.18479336
_cell_length_b   9.93846944
_cell_length_c   29.49993438
_cell_angle_alpha   119.65059947
_cell_angle_beta   90.00000000
_cell_angle_gamma   90.00000000
_symmetry_Int_Tables_number   1
_chemical_formula_structural   Si6H2O13
_chemical_formula_sum   'Si36 H12 O78'
_cell_volume   3614.20281804
_cell_formula_units_Z   6
loop_
 _symmetry_equiv_pos_site_id
 _symmetry_equiv_pos_as_xyz
  1  'x, y, z'
loop_
 _atom_site_type_symbol
 _atom_site_label
 _atom_site_symmetry_multiplicity
 _atom_site_fract_x
 _atom_site_fract_y
 _atom_site_fract_z
 _atom_site_occupancy
  Si  Si1  1  0.792338  0.330298  0.287789  1
  Si  Si2  1  0.706307  0.828368  0.319312  1
  Si  Si3  1  0.207604  0.329098  0.287594  1
  Si  Si4  1  0.294358  0.827175  0.319109  1
  Si  Si5  1  0.500044  0.102594  0.312056  1
  Si  Si6  1  0.000044  0.397591  0.277889  1
  Si  Si7  1  0.794358  0.673009  0.376748  1
  Si  Si8  1  0.792338  0.330298  0.454455  1
  Si  Si9  1  0.707604  0.171086  0.344592  1
  Si  Si10  1  0.706307  0.828368  0.485979  1
  Si  Si11  1  0.207604  0.329098  0.454261  1
  Si  Si12  1  0.206307  0.671817  0.376554  1
  Si  Si13  1  0.294358  0.827175  0.485776  1
  Si  Si14  1  0.292339  0.169887  0.344387  1
  Si  Si15  1  0.500044  0.102594  0.478722  1
  Si  Si16  1  0.500270  0.884891  0.357235  1
  Si  Si17  1  0.000269  0.615293  0.395635  1
  Si  Si18  1  0.000044  0.397591  0.444555  1
  O  O19  1  0.731432  0.721273  0.259899  1
  O  O20  1  0.730069  0.280139  0.237631  1
  O  O21  1  0.769798  0.221366  0.311171  1
  O  O22  1  0.269799  0.278818  0.237414  1
  O  O23  1  0.269310  0.719946  0.259681  1
  O  O24  1  0.230068  0.220045  0.310949  1
  O  O25  1  0.899363  0.318369  0.269384  1
  O  O26  1  0.600550  0.182429  0.330076  1
  O  O27  1  0.599506  0.811277  0.332547  1
  O  O28  1  0.100550  0.317756  0.269298  1
  O  O29  1  0.401197  0.810678  0.332437  1
  O  O30  1  0.399363  0.181815  0.329958  1
  O  O31  1  0.774472  0.501802  0.332404  1
  O  O32  1  0.725831  0.999696  0.332076  1
  O  O33  1  0.225831  0.500488  0.332209  1
  O  O34  1  0.274472  0.998382  0.331835  1
  O  O35  1  0.500185  0.972297  0.252265  1
  O  O36  1  0.000185  0.527887  0.261530  1
  O  O37  1  0.731432  0.721273  0.426565  1
  O  O38  1  0.730069  0.280139  0.404298  1
  O  O39  1  0.769798  0.221366  0.477838  1
  O  O40  1  0.769310  0.780239  0.353063  1
  O  O41  1  0.269799  0.278818  0.404081  1
  O  O42  1  0.269310  0.719946  0.426347  1
  O  O43  1  0.231432  0.778912  0.352839  1
  O  O44  1  0.230068  0.220045  0.477616  1
  O  O45  1  0.901196  0.689507  0.395575  1
  O  O46  1  0.899363  0.318369  0.436051  1
  O  O47  1  0.600550  0.182429  0.496742  1
  O  O48  1  0.599506  0.811277  0.499213  1
  O  O49  1  0.100550  0.317756  0.435964  1
  O  O50  1  0.099506  0.688907  0.395485  1
  O  O51  1  0.401197  0.810678  0.499103  1
  O  O52  1  0.399363  0.181815  0.496625  1
  O  O53  1  0.774472  0.501802  0.499072  1
  O  O54  1  0.725831  0.999696  0.498743  1
  O  O55  1  0.225831  0.500488  0.498876  1
  O  O56  1  0.274472  0.998382  0.498501  1
  O  O57  1  0.500128  0.016424  0.343792  1
  O  O58  1  0.000127  0.483760  0.338348  1
  O  O59  1  0.500185  0.972297  0.418931  1
  O  O60  1  0.000185  0.527887  0.428196  1
  H  H61  1  0.731432  0.721273  0.229390  1
  H  H62  1  0.730069  0.280139  0.207122  1
  H  H63  1  0.269799  0.278818  0.206905  1
  H  H64  1  0.269310  0.719946  0.229173  1
  H  H65  1  0.500185  0.972297  0.221756  1
  H  H66  1  0.000185  0.527887  0.231021  1
  Si  Si67  1  0.794358  0.673009  0.543414  1
  Si  Si68  1  0.792338  0.330298  0.621122  1
  Si  Si69  1  0.707604  0.171086  0.511258  1
  Si  Si70  1  0.706307  0.828368  0.652645  1
  Si  Si71  1  0.207604  0.329098  0.620927  1
  Si  Si72  1  0.206307  0.671817  0.543221  1
  Si  Si73  1  0.294358  0.827175  0.652442  1
  Si  Si74  1  0.292339  0.169887  0.511054  1
  Si  Si75  1  0.500044  0.102594  0.645389  1
  Si  Si76  1  0.500270  0.884891  0.523901  1
  Si  Si77  1  0.000269  0.615293  0.562302  1
  Si  Si78  1  0.000044  0.397591  0.611222  1
  Si  Si79  1  0.794358  0.673009  0.710081  1
  Si  Si80  1  0.707604  0.171086  0.677925  1
  Si  Si81  1  0.206307  0.671817  0.709888  1
  Si  Si82  1  0.292339  0.169887  0.677720  1
  Si  Si83  1  0.500270  0.884891  0.690568  1
  Si  Si84  1  0.000269  0.615293  0.728968  1
  O  O85  1  0.731432  0.721273  0.593232  1
  O  O86  1  0.730069  0.280139  0.570964  1
  O  O87  1  0.769798  0.221366  0.644505  1
  O  O88  1  0.769310  0.780239  0.519729  1
  O  O89  1  0.269799  0.278818  0.570747  1
  O  O90  1  0.269310  0.719946  0.593014  1
  O  O91  1  0.231432  0.778912  0.519505  1
  O  O92  1  0.230068  0.220045  0.644282  1
  O  O93  1  0.901196  0.689507  0.562241  1
  O  O94  1  0.899363  0.318369  0.602717  1
  O  O95  1  0.600550  0.182429  0.663409  1
  O  O96  1  0.599506  0.811277  0.665880  1
  O  O97  1  0.100550  0.317756  0.602630  1
  O  O98  1  0.099506  0.688907  0.562152  1
  O  O99  1  0.401197  0.810678  0.665770  1
  O  O100  1  0.399363  0.181815  0.663292  1
  O  O101  1  0.774472  0.501802  0.665738  1
  O  O102  1  0.725831  0.999696  0.665410  1
  O  O103  1  0.225831  0.500488  0.665542  1
  O  O104  1  0.274472  0.998382  0.665169  1
  O  O105  1  0.500128  0.016424  0.510459  1
  O  O106  1  0.000127  0.483760  0.505015  1
  O  O107  1  0.500185  0.972297  0.585597  1
  O  O108  1  0.000185  0.527887  0.594863  1
  O  O109  1  0.731432  0.721273  0.759899  1
  O  O110  1  0.730069  0.280139  0.737631  1
  O  O111  1  0.769310  0.780239  0.686396  1
  O  O112  1  0.269799  0.278818  0.737414  1
  O  O113  1  0.269310  0.719946  0.759681  1
  O  O114  1  0.231432  0.778912  0.686173  1
  O  O115  1  0.901196  0.689507  0.728908  1
  O  O116  1  0.099506  0.688907  0.728819  1
  O  O117  1  0.500128  0.016424  0.677126  1
  O  O118  1  0.000127  0.483760  0.671681  1
  O  O119  1  0.500185  0.972297  0.752265  1
  O  O120  1  0.000185  0.527887  0.761530  1
  H  H121  1  0.731432  0.721273  0.790408  1
  H  H122  1  0.730069  0.280139  0.768139  1
  H  H123  1  0.269799  0.278818  0.767923  1
  H  H124  1  0.269310  0.719946  0.790189  1
  H  H125  1  0.500185  0.972297  0.782773  1
  H  H126  1  0.000185  0.527887  0.792038  1
