# generated using pymatgen
data_Si49(H4O51)2
_symmetry_space_group_name_H-M   'P 1'
_cell_length_a   13.27749269
_cell_length_b   13.28550072
_cell_length_c   51.03377431
_cell_angle_alpha   90.00000000
_cell_angle_beta   90.00000000
_cell_angle_gamma   90.00000000
_symmetry_Int_Tables_number   1
_chemical_formula_structural   Si49(H4O51)2
_chemical_formula_sum   'Si98 H16 O204'
_cell_volume   9002.26279875
_cell_formula_units_Z   2
loop_
 _symmetry_equiv_pos_site_id
 _symmetry_equiv_pos_as_xyz
  1  'x, y, z'
loop_
 _atom_site_type_symbol
 _atom_site_label
 _atom_site_symmetry_multiplicity
 _atom_site_fract_x
 _atom_site_fract_y
 _atom_site_fract_z
 _atom_site_occupancy
  O  O1  1  0.253726  0.154155  0.246632  1
  O  O2  1  0.095658  0.252659  0.234671  1
  O  O3  1  0.140399  0.091731  0.210072  1
  O  O4  1  0.368182  0.249407  0.165683  1
  O  O5  1  0.372538  0.258944  0.116102  1
  O  O6  1  0.189433  0.016572  0.165971  1
  O  O7  1  0.329627  0.094022  0.138418  1
  O  O8  1  0.244898  0.249511  0.203692  1
  O  O9  1  0.174352  0.017758  0.116687  1
  O  O10  1  0.497071  0.500772  0.228052  1
  O  O11  1  0.165322  0.496435  0.139700  1
  O  O12  1  0.407573  0.636087  0.202049  1
  O  O13  1  0.247332  0.594762  0.176619  1
  O  O14  1  0.403777  0.355784  0.206198  1
  O  O15  1  0.262523  0.405045  0.175338  1
  O  O16  1  0.021961  0.594131  0.224459  1
  O  O17  1  0.095693  0.485878  0.187464  1
  O  O18  1  0.488994  0.834747  0.141258  1
  O  O19  1  0.249813  0.867765  0.246624  1
  O  O20  1  0.091280  0.766946  0.236142  1
  O  O21  1  0.151837  0.902665  0.204669  1
  O  O22  1  0.345571  0.755093  0.166648  1
  O  O23  1  0.352206  0.739158  0.117355  1
  O  O24  1  0.006560  0.998884  0.184229  1
  O  O25  1  0.477090  0.682508  0.246841  1
  O  O26  1  0.305884  0.906192  0.138267  1
  O  O27  1  0.249598  0.739637  0.209381  1
  O  O28  1  0.511153  0.165572  0.140820  1
  O  O29  1  0.647385  0.261641  0.164945  1
  O  O30  1  0.760686  0.126391  0.246600  1
  O  O31  1  0.905646  0.240849  0.234355  1
  O  O32  1  0.859648  0.094500  0.204527  1
  O  O33  1  0.655074  0.244299  0.115610  1
  O  O34  1  0.694043  0.094015  0.144369  1
  O  O35  1  0.595854  0.173239  0.268459  1
  O  O36  1  0.743038  0.245415  0.207946  1
  O  O37  1  0.505406  0.321179  0.247177  1
  O  O38  1  0.833530  0.503686  0.142360  1
  O  O39  1  0.595903  0.647977  0.208697  1
  O  O40  1  0.737313  0.592988  0.178441  1
  O  O41  1  0.594381  0.364501  0.204407  1
  O  O42  1  0.758955  0.404259  0.180569  1
  O  O43  1  0.989745  0.406863  0.223791  1
  O  O44  1  0.908698  0.518803  0.189190  1
  O  O45  1  0.995006  0.334414  0.271073  1
  O  O46  1  0.664637  0.989915  0.271154  1
  O  O47  1  0.627748  0.741923  0.165834  1
  O  O48  1  0.756837  0.851779  0.247148  1
  O  O49  1  0.903197  0.740077  0.233985  1
  O  O50  1  0.870585  0.905051  0.209609  1
  O  O51  1  0.631414  0.750178  0.116187  1
  O  O52  1  0.670139  0.906313  0.143183  1
  O  O53  1  0.592424  0.807281  0.269541  1
  O  O54  1  0.825568  0.980686  0.165418  1
  O  O55  1  0.751594  0.757162  0.203789  1
  O  O56  1  0.810526  0.985607  0.116143  1
  O  O57  1  0.333915  0.010185  0.271736  1
  O  O58  1  0.243090  0.148416  0.296148  1
  O  O59  1  0.095722  0.259287  0.309038  1
  O  O60  1  0.129576  0.094795  0.333562  1
  O  O61  1  0.253726  0.154155  0.507529  1
  O  O62  1  0.095658  0.252659  0.495568  1
  O  O63  1  0.140399  0.091731  0.470968  1
  O  O64  1  0.368182  0.249407  0.426579  1
  O  O65  1  0.372538  0.258944  0.376999  1
  O  O66  1  0.408401  0.191033  0.274005  1
  O  O67  1  0.189433  0.016572  0.426868  1
  O  O68  1  0.329627  0.094022  0.399315  1
  O  O69  1  0.247120  0.243905  0.339371  1
  O  O70  1  0.244898  0.249511  0.464588  1
  O  O71  1  0.174352  0.017758  0.377584  1
  O  O72  1  0.497071  0.500772  0.488948  1
  O  O73  1  0.165322  0.496435  0.400596  1
  O  O74  1  0.407573  0.636087  0.462946  1
  O  O75  1  0.247332  0.594762  0.437516  1
  O  O76  1  0.403777  0.355784  0.467095  1
  O  O77  1  0.262523  0.405045  0.436235  1
  O  O78  1  0.403336  0.352423  0.334057  1
  O  O79  1  0.262694  0.408257  0.364526  1
  O  O80  1  0.406261  0.634392  0.339236  1
  O  O81  1  0.240115  0.596855  0.362605  1
  O  O82  1  0.021961  0.594131  0.485356  1
  O  O83  1  0.095693  0.485878  0.448361  1
  O  O84  1  0.090965  0.481794  0.353643  1
  O  O85  1  0.008765  0.593198  0.319120  1
  O  O86  1  0.005026  0.665896  0.271884  1
  O  O87  1  0.488994  0.834747  0.402155  1
  O  O88  1  0.239797  0.872652  0.296209  1
  O  O89  1  0.095558  0.757775  0.308647  1
  O  O90  1  0.140324  0.905120  0.338228  1
  O  O91  1  0.249813  0.867765  0.507521  1
  O  O92  1  0.091280  0.766946  0.497039  1
  O  O93  1  0.151837  0.902665  0.465566  1
  O  O94  1  0.345571  0.755093  0.427545  1
  O  O95  1  0.352206  0.739158  0.378252  1
  O  O96  1  0.006560  0.998884  0.445126  1
  O  O97  1  0.404793  0.828335  0.273793  1
  O  O98  1  0.477090  0.682508  0.507737  1
  O  O99  1  0.305884  0.906192  0.399163  1
  O  O100  1  0.489837  0.680113  0.296082  1
  O  O101  1  0.258215  0.754854  0.335027  1
  O  O102  1  0.249598  0.739637  0.470278  1
  O  O103  1  0.511153  0.165572  0.401717  1
  O  O104  1  0.647385  0.261641  0.425841  1
  O  O105  1  0.760686  0.126391  0.507497  1
  O  O106  1  0.905646  0.240849  0.495252  1
  O  O107  1  0.859648  0.094500  0.465424  1
  O  O108  1  0.749271  0.132170  0.296163  1
  O  O109  1  0.907470  0.233714  0.306581  1
  O  O110  1  0.848579  0.097707  0.338035  1
  O  O111  1  0.655074  0.244299  0.376507  1
  O  O112  1  0.694043  0.094015  0.405266  1
  O  O113  1  0.595854  0.173239  0.529356  1
  O  O114  1  0.743038  0.245415  0.468843  1
  O  O115  1  0.749296  0.259821  0.333488  1
  O  O116  1  0.523598  0.317095  0.296246  1
  O  O117  1  0.505406  0.321179  0.508074  1
  O  O118  1  0.993619  0.001271  0.358759  1
  O  O119  1  0.833530  0.503686  0.403257  1
  O  O120  1  0.503251  0.499243  0.314880  1
  O  O121  1  0.595903  0.647977  0.469594  1
  O  O122  1  0.737313  0.592988  0.439338  1
  O  O123  1  0.594381  0.364501  0.465304  1
  O  O124  1  0.758955  0.404259  0.441466  1
  O  O125  1  0.591606  0.363544  0.341187  1
  O  O126  1  0.752750  0.404418  0.366303  1
  O  O127  1  0.596612  0.645443  0.336188  1
  O  O128  1  0.736109  0.593895  0.367403  1
  O  O129  1  0.977577  0.405856  0.318531  1
  O  O130  1  0.989745  0.406863  0.484688  1
  O  O131  1  0.908698  0.518803  0.450087  1
  O  O132  1  0.903794  0.514001  0.355567  1
  O  O133  1  0.995006  0.334414  0.531970  1
  O  O134  1  0.664637  0.989915  0.532051  1
  O  O135  1  0.627748  0.741923  0.426731  1
  O  O136  1  0.756837  0.851779  0.508045  1
  O  O137  1  0.903197  0.740077  0.494882  1
  O  O138  1  0.870585  0.905051  0.470505  1
  O  O139  1  0.746473  0.847490  0.296663  1
  O  O140  1  0.905237  0.749043  0.308200  1
  O  O141  1  0.859708  0.908581  0.333229  1
  O  O142  1  0.631414  0.750178  0.377084  1
  O  O143  1  0.670139  0.906313  0.404080  1
  O  O144  1  0.592424  0.807281  0.530438  1
  O  O145  1  0.825568  0.980686  0.426314  1
  O  O146  1  0.751594  0.757162  0.464686  1
  O  O147  1  0.756266  0.750017  0.339352  1
  O  O148  1  0.810526  0.985607  0.377040  1
  O  O149  1  0.333915  0.010185  0.532633  1
  O  O150  1  0.243090  0.148416  0.557045  1
  O  O151  1  0.095722  0.259287  0.569934  1
  O  O152  1  0.129576  0.094795  0.594459  1
  O  O153  1  0.368182  0.249407  0.687476  1
  O  O154  1  0.372538  0.258944  0.637896  1
  O  O155  1  0.408401  0.191033  0.534902  1
  O  O156  1  0.189433  0.016572  0.687765  1
  O  O157  1  0.329627  0.094022  0.660212  1
  O  O158  1  0.247120  0.243905  0.600268  1
  O  O159  1  0.174352  0.017758  0.638481  1
  O  O160  1  0.165322  0.496435  0.661493  1
  O  O161  1  0.403336  0.352423  0.594953  1
  O  O162  1  0.262694  0.408257  0.625423  1
  O  O163  1  0.406261  0.634392  0.600133  1
  O  O164  1  0.240115  0.596855  0.623502  1
  O  O165  1  0.090965  0.481794  0.614540  1
  O  O166  1  0.008765  0.593198  0.580017  1
  O  O167  1  0.005026  0.665896  0.532781  1
  O  O168  1  0.488994  0.834747  0.663052  1
  O  O169  1  0.239797  0.872652  0.557105  1
  O  O170  1  0.095558  0.757775  0.569543  1
  O  O171  1  0.140324  0.905120  0.599125  1
  O  O172  1  0.345571  0.755093  0.688442  1
  O  O173  1  0.352206  0.739158  0.639149  1
  O  O174  1  0.404793  0.828335  0.534690  1
  O  O175  1  0.305884  0.906192  0.660060  1
  O  O176  1  0.489837  0.680113  0.556979  1
  O  O177  1  0.258215  0.754854  0.595924  1
  O  O178  1  0.511153  0.165572  0.662614  1
  O  O179  1  0.647385  0.261641  0.686738  1
  O  O180  1  0.749271  0.132170  0.557060  1
  O  O181  1  0.907470  0.233714  0.567478  1
  O  O182  1  0.848579  0.097707  0.598932  1
  O  O183  1  0.655074  0.244299  0.637403  1
  O  O184  1  0.694043  0.094015  0.666163  1
  O  O185  1  0.749296  0.259821  0.594384  1
  O  O186  1  0.523598  0.317095  0.557143  1
  O  O187  1  0.993619  0.001271  0.619656  1
  O  O188  1  0.833530  0.503686  0.664154  1
  O  O189  1  0.503251  0.499243  0.575777  1
  O  O190  1  0.591606  0.363544  0.602084  1
  O  O191  1  0.752750  0.404418  0.627200  1
  O  O192  1  0.596612  0.645443  0.597085  1
  O  O193  1  0.736109  0.593895  0.628300  1
  O  O194  1  0.977577  0.405856  0.579428  1
  O  O195  1  0.903794  0.514001  0.616464  1
  O  O196  1  0.627748  0.741923  0.687628  1
  O  O197  1  0.746473  0.847490  0.557560  1
  O  O198  1  0.905237  0.749043  0.569096  1
  O  O199  1  0.859708  0.908581  0.594126  1
  O  O200  1  0.631414  0.750178  0.637981  1
  O  O201  1  0.670139  0.906313  0.664977  1
  O  O202  1  0.825568  0.980686  0.687211  1
  O  O203  1  0.756266  0.750017  0.600249  1
  O  O204  1  0.810526  0.985607  0.637937  1
  Si  Si205  1  0.320217  0.314780  0.187703  1
  Si  Si206  1  0.183308  0.187104  0.223883  1
  Si  Si207  1  0.122093  0.002637  0.190713  1
  Si  Si208  1  0.395519  0.190538  0.140238  1
  Si  Si209  1  0.249798  0.008660  0.139903  1
  Si  Si210  1  0.494772  0.616580  0.221935  1
  Si  Si211  1  0.004527  0.501446  0.206229  1
  Si  Si212  1  0.190846  0.495436  0.169781  1
  Si  Si213  1  0.005194  0.689842  0.241702  1
  Si  Si214  1  0.373188  0.810945  0.140816  1
  Si  Si215  1  0.185802  0.819661  0.224332  1
  Si  Si216  1  0.312247  0.680816  0.188567  1
  Si  Si217  1  0.996503  0.310238  0.240918  1
  Si  Si218  1  0.626918  0.189342  0.141536  1
  Si  Si219  1  0.690910  0.105297  0.270594  1
  Si  Si220  1  0.686043  0.319218  0.189501  1
  Si  Si221  1  0.817448  0.176773  0.223291  1
  Si  Si222  1  0.508601  0.250417  0.271391  1
  Si  Si223  1  0.811106  0.504777  0.172612  1
  Si  Si224  1  0.500129  0.385217  0.221752  1
  Si  Si225  1  0.750141  0.991626  0.142225  1
  Si  Si226  1  0.604565  0.809611  0.141589  1
  Si  Si227  1  0.688233  0.874031  0.271147  1
  Si  Si228  1  0.678075  0.685195  0.189154  1
  Si  Si229  1  0.820655  0.813409  0.223655  1
  Si  Si230  1  0.890821  0.994874  0.190554  1
  Si  Si231  1  0.321459  0.315745  0.353780  1
  Si  Si232  1  0.320217  0.314780  0.448600  1
  Si  Si233  1  0.311427  0.126117  0.272112  1
  Si  Si234  1  0.183308  0.187104  0.484780  1
  Si  Si235  1  0.109351  0.004397  0.352403  1
  Si  Si236  1  0.122093  0.002637  0.451609  1
  Si  Si237  1  0.395519  0.190538  0.401135  1
  Si  Si238  1  0.178679  0.186804  0.319525  1
  Si  Si239  1  0.249798  0.008660  0.400800  1
  Si  Si240  1  0.494772  0.616580  0.482831  1
  Si  Si241  1  0.004527  0.501446  0.467126  1
  Si  Si242  1  0.190846  0.495436  0.430678  1
  Si  Si243  1  0.188197  0.495941  0.370358  1
  Si  Si244  1  0.499147  0.614824  0.321243  1
  Si  Si245  1  0.491005  0.749692  0.271622  1
  Si  Si246  1  0.308599  0.894744  0.272106  1
  Si  Si247  1  0.005194  0.689842  0.502599  1
  Si  Si248  1  0.373188  0.810945  0.401713  1
  Si  Si249  1  0.183276  0.822728  0.319606  1
  Si  Si250  1  0.185802  0.819661  0.485229  1
  Si  Si251  1  0.312247  0.680816  0.449463  1
  Si  Si252  1  0.314144  0.681080  0.353726  1
  Si  Si253  1  0.003595  0.689979  0.302038  1
  Si  Si254  1  0.994213  0.310253  0.301244  1
  Si  Si255  1  0.996503  0.310238  0.501815  1
  Si  Si256  1  0.626918  0.189342  0.402433  1
  Si  Si257  1  0.690910  0.105297  0.531491  1
  Si  Si258  1  0.686043  0.319218  0.450398  1
  Si  Si259  1  0.817448  0.176773  0.484188  1
  Si  Si260  1  0.813400  0.180363  0.318424  1
  Si  Si261  1  0.687329  0.318530  0.354465  1
  Si  Si262  1  0.508601  0.250417  0.532288  1
  Si  Si263  1  0.994759  0.498676  0.336722  1
  Si  Si264  1  0.808403  0.504167  0.373161  1
  Si  Si265  1  0.811106  0.504777  0.433509  1
  Si  Si266  1  0.505153  0.383427  0.321068  1
  Si  Si267  1  0.500129  0.385217  0.482649  1
  Si  Si268  1  0.679718  0.685035  0.355049  1
  Si  Si269  1  0.750141  0.991626  0.403122  1
  Si  Si270  1  0.604565  0.809611  0.402486  1
  Si  Si271  1  0.688233  0.874031  0.532044  1
  Si  Si272  1  0.817230  0.813515  0.319245  1
  Si  Si273  1  0.678075  0.685195  0.450051  1
  Si  Si274  1  0.820655  0.813409  0.484552  1
  Si  Si275  1  0.890821  0.994874  0.451450  1
  Si  Si276  1  0.878055  0.998365  0.352315  1
  Si  Si277  1  0.321459  0.315745  0.614677  1
  Si  Si278  1  0.311427  0.126117  0.533009  1
  Si  Si279  1  0.109351  0.004397  0.613300  1
  Si  Si280  1  0.395519  0.190538  0.662032  1
  Si  Si281  1  0.178679  0.186804  0.580421  1
  Si  Si282  1  0.249798  0.008660  0.661697  1
  Si  Si283  1  0.188197  0.495941  0.631255  1
  Si  Si284  1  0.499147  0.614824  0.582139  1
  Si  Si285  1  0.491005  0.749692  0.532519  1
  Si  Si286  1  0.308599  0.894744  0.533003  1
  Si  Si287  1  0.373188  0.810945  0.662609  1
  Si  Si288  1  0.183276  0.822728  0.580503  1
  Si  Si289  1  0.314144  0.681080  0.614623  1
  Si  Si290  1  0.003595  0.689979  0.562935  1
  Si  Si291  1  0.994213  0.310253  0.562141  1
  Si  Si292  1  0.626918  0.189342  0.663330  1
  Si  Si293  1  0.813400  0.180363  0.579321  1
  Si  Si294  1  0.687329  0.318530  0.615362  1
  Si  Si295  1  0.994759  0.498676  0.597619  1
  Si  Si296  1  0.808403  0.504167  0.634058  1
  Si  Si297  1  0.505153  0.383427  0.581965  1
  Si  Si298  1  0.679718  0.685035  0.615946  1
  Si  Si299  1  0.750141  0.991626  0.664019  1
  Si  Si300  1  0.604565  0.809611  0.663382  1
  Si  Si301  1  0.817230  0.813515  0.580142  1
  Si  Si302  1  0.878055  0.998365  0.613212  1
  H  H303  1  0.372538  0.258944  0.098467  1
  H  H304  1  0.174352  0.017758  0.099052  1
  H  H305  1  0.165322  0.496435  0.122064  1
  H  H306  1  0.352206  0.739158  0.099720  1
  H  H307  1  0.655074  0.244299  0.097974  1
  H  H308  1  0.833530  0.503686  0.124725  1
  H  H309  1  0.631414  0.750178  0.098552  1
  H  H310  1  0.810526  0.985607  0.098508  1
  H  H311  1  0.368182  0.249407  0.705112  1
  H  H312  1  0.189433  0.016572  0.705400  1
  H  H313  1  0.165322  0.496435  0.679129  1
  H  H314  1  0.345571  0.755093  0.706077  1
  H  H315  1  0.647385  0.261641  0.704374  1
  H  H316  1  0.833530  0.503686  0.681789  1
  H  H317  1  0.627748  0.741923  0.705263  1
  H  H318  1  0.825568  0.980686  0.704847  1
