# generated using pymatgen
data_Si24H2O49
_symmetry_space_group_name_H-M   'P 1'
_cell_length_a   20.04667794
_cell_length_b   13.37145907
_cell_length_c   61.89389911
_cell_angle_alpha   90.00000000
_cell_angle_beta   90.00000000
_cell_angle_gamma   90.00000000
_symmetry_Int_Tables_number   1
_chemical_formula_structural   Si24H2O49
_chemical_formula_sum   'Si192 H16 O392'
_cell_volume   16590.8659833
_cell_formula_units_Z   8
loop_
 _symmetry_equiv_pos_site_id
 _symmetry_equiv_pos_as_xyz
  1  'x, y, z'
loop_
 _atom_site_type_symbol
 _atom_site_label
 _atom_site_symmetry_multiplicity
 _atom_site_fract_x
 _atom_site_fract_y
 _atom_site_fract_z
 _atom_site_occupancy
  O  O1  1  0.122120  0.090113  0.127368  1
  O  O2  1  0.098872  0.909993  0.134902  1
  O  O3  1  0.248790  0.084994  0.125610  1
  O  O4  1  0.251105  0.584996  0.226985  1
  O  O5  1  0.093445  0.915129  0.175929  1
  O  O6  1  0.192418  0.254031  0.126286  1
  O  O7  1  0.307470  0.754037  0.226308  1
  O  O8  1  0.095531  0.746086  0.157673  1
  O  O9  1  0.193562  0.144701  0.159910  1
  O  O10  1  0.306331  0.644696  0.192685  1
  O  O11  1  0.199347  0.855419  0.158042  1
  O  O12  1  0.300545  0.355424  0.194558  1
  O  O13  1  0.198704  0.441469  0.135815  1
  O  O14  1  0.301185  0.941475  0.216781  1
  O  O15  1  0.124961  0.558651  0.159701  1
  O  O16  1  0.301030  0.348057  0.124009  1
  O  O17  1  0.198860  0.848066  0.228587  1
  O  O18  1  0.088513  0.652035  0.192847  1
  O  O19  1  0.213587  0.378404  0.095325  1
  O  O20  1  0.123022  0.083149  0.191377  1
  O  O21  1  0.296486  0.916978  0.135191  1
  O  O22  1  0.203398  0.416984  0.217405  1
  O  O23  1  0.194735  0.250065  0.194180  1
  O  O24  1  0.305158  0.750063  0.158416  1
  O  O25  1  0.248857  0.076670  0.192879  1
  O  O26  1  0.251032  0.576670  0.159716  1
  O  O27  1  0.301141  0.923457  0.175948  1
  O  O28  1  0.198757  0.423452  0.176648  1
  O  O29  1  0.302815  0.987305  0.095326  1
  O  O30  1  0.093090  0.935354  0.216451  1
  O  O31  1  0.125993  0.564779  0.227107  1
  O  O32  1  0.092105  0.750063  0.227421  1
  O  O33  1  0.087933  0.980631  0.095329  1
  O  O34  1  0.598869  0.409983  0.217698  1
  O  O35  1  0.377773  0.590127  0.225229  1
  O  O36  1  0.622136  0.590097  0.225232  1
  O  O37  1  0.401025  0.410009  0.217696  1
  O  O38  1  0.593440  0.415106  0.176671  1
  O  O39  1  0.406442  0.415132  0.176669  1
  O  O40  1  0.595538  0.246068  0.194929  1
  O  O41  1  0.404361  0.246097  0.194927  1
  O  O42  1  0.624950  0.058627  0.192899  1
  O  O43  1  0.374928  0.058662  0.192897  1
  O  O44  1  0.588508  0.152025  0.159754  1
  O  O45  1  0.411380  0.152050  0.159752  1
  O  O46  1  0.499941  0.121701  0.188075  1
  O  O47  1  0.376868  0.583144  0.161218  1
  O  O48  1  0.623031  0.583116  0.161222  1
  O  O49  1  0.499947  0.512805  0.159170  1
  O  O50  1  0.406801  0.435341  0.136146  1
  O  O51  1  0.625978  0.064740  0.125496  1
  O  O52  1  0.593090  0.435321  0.136149  1
  O  O53  1  0.373902  0.064769  0.125494  1
  O  O54  1  0.499943  0.122098  0.131295  1
  O  O55  1  0.611001  0.377971  0.095327  1
  O  O56  1  0.407786  0.250052  0.125175  1
  O  O57  1  0.592111  0.250031  0.125178  1
  O  O58  1  0.499952  0.519465  0.228774  1
  O  O59  1  0.388895  0.377994  0.095324  1
  O  O60  1  0.901021  0.909973  0.134905  1
  O  O61  1  0.877760  0.090085  0.127370  1
  O  O62  1  0.906444  0.915109  0.175932  1
  O  O63  1  0.748805  0.584968  0.226990  1
  O  O64  1  0.751090  0.084961  0.125613  1
  O  O65  1  0.904354  0.746067  0.157675  1
  O  O66  1  0.692434  0.754008  0.226311  1
  O  O67  1  0.807465  0.253998  0.126290  1
  O  O68  1  0.699347  0.355415  0.194559  1
  O  O69  1  0.800541  0.855406  0.158045  1
  O  O70  1  0.693579  0.644659  0.192688  1
  O  O71  1  0.806316  0.144662  0.159913  1
  O  O72  1  0.874939  0.558628  0.159704  1
  O  O73  1  0.698699  0.941447  0.216785  1
  O  O74  1  0.801198  0.441437  0.135818  1
  O  O75  1  0.911385  0.652022  0.192849  1
  O  O76  1  0.801035  0.848054  0.228590  1
  O  O77  1  0.698863  0.348044  0.124013  1
  O  O78  1  -0.000000  0.621694  0.164526  1
  O  O79  1  0.796499  0.416953  0.217407  1
  O  O80  1  0.703392  0.916949  0.135195  1
  O  O81  1  0.876856  0.083121  0.191381  1
  O  O82  1  0.805148  0.250036  0.194182  1
  O  O83  1  0.694738  0.750033  0.158420  1
  O  O84  1  0.801144  0.423428  0.176651  1
  O  O85  1  0.698745  0.923424  0.175952  1
  O  O86  1  0.748868  0.576640  0.159717  1
  O  O87  1  0.751020  0.076645  0.192883  1
  O  O88  1  0.873916  0.564745  0.227107  1
  O  O89  1  0.906808  0.935329  0.216453  1
  O  O90  1  0.907785  0.750038  0.227424  1
  O  O91  1  0.911958  0.980607  0.095331  1
  O  O92  1  0.786309  0.378375  0.095328  1
  O  O93  1  0.697064  0.987263  0.095330  1
  O  O94  1  0.000000  0.012812  0.193428  1
  O  O95  1  0.000000  0.622101  0.221307  1
  O  O96  1  0.000000  0.019446  0.123827  1
  O  O97  1  0.098877  0.909977  0.379645  1
  O  O98  1  0.122120  0.090099  0.387176  1
  O  O99  1  0.093455  0.915111  0.338618  1
  O  O100  1  0.248791  0.084981  0.388930  1
  O  O101  1  0.251107  0.584983  0.287556  1
  O  O102  1  0.095541  0.746070  0.356874  1
  O  O103  1  0.192419  0.254017  0.388255  1
  O  O104  1  0.307474  0.754025  0.288230  1
  O  O105  1  0.199355  0.855403  0.356504  1
  O  O106  1  0.300553  0.355391  0.319982  1
  O  O107  1  0.193559  0.144684  0.354631  1
  O  O108  1  0.306335  0.644699  0.321855  1
  O  O109  1  0.124973  0.558637  0.354839  1
  O  O110  1  0.198711  0.441453  0.378723  1
  O  O111  1  0.301190  0.941460  0.297761  1
  O  O112  1  0.088518  0.652037  0.321696  1
  O  O113  1  0.301033  0.348040  0.390530  1
  O  O114  1  0.198864  0.848054  0.285956  1
  O  O115  1  0.286307  0.878410  0.257271  1
  O  O116  1  0.296500  0.916970  0.379351  1
  O  O117  1  0.203411  0.416961  0.297134  1
  O  O118  1  0.123027  0.083124  0.323165  1
  O  O119  1  0.305167  0.750050  0.356126  1
  O  O120  1  0.194736  0.250045  0.320361  1
  O  O121  1  0.301143  0.923440  0.338594  1
  O  O122  1  0.198767  0.423439  0.337890  1
  O  O123  1  0.248864  0.076656  0.321664  1
  O  O124  1  0.251044  0.576654  0.354823  1
  O  O125  1  0.197089  0.487302  0.257270  1
  O  O126  1  0.125996  0.564753  0.287439  1
  O  O127  1  0.093089  0.935319  0.298095  1
  O  O128  1  0.110998  0.877998  0.257272  1
  O  O129  1  0.092113  0.750037  0.287120  1
  O  O130  1  0.622137  0.590077  0.289314  1
  O  O131  1  0.401024  0.409988  0.296842  1
  O  O132  1  0.598873  0.409960  0.296844  1
  O  O133  1  0.377777  0.590113  0.289312  1
  O  O134  1  0.406450  0.415115  0.337869  1
  O  O135  1  0.593451  0.415085  0.337871  1
  O  O136  1  0.404373  0.246075  0.319611  1
  O  O137  1  0.595547  0.246046  0.319613  1
  O  O138  1  0.374935  0.058641  0.321645  1
  O  O139  1  0.624960  0.058605  0.321649  1
  O  O140  1  0.411386  0.152036  0.354788  1
  O  O141  1  0.588513  0.152017  0.354791  1
  O  O142  1  0.499951  0.121678  0.326468  1
  O  O143  1  0.623040  0.583092  0.353323  1
  O  O144  1  0.376879  0.583133  0.353318  1
  O  O145  1  0.499955  0.512783  0.355369  1
  O  O146  1  0.593091  0.435296  0.378393  1
  O  O147  1  0.373904  0.064769  0.389048  1
  O  O148  1  0.406800  0.435333  0.378391  1
  O  O149  1  0.625980  0.064722  0.389048  1
  O  O150  1  0.499946  0.122086  0.383248  1
  O  O151  1  0.592117  0.250013  0.389368  1
  O  O152  1  0.407793  0.250049  0.389364  1
  O  O153  1  0.499954  0.519444  0.285769  1
  O  O154  1  0.587938  0.480623  0.257271  1
  O  O155  1  0.411963  0.480650  0.257270  1
  O  O156  1  0.877762  0.090066  0.387178  1
  O  O157  1  0.901024  0.909948  0.379647  1
  O  O158  1  0.748807  0.584947  0.287558  1
  O  O159  1  0.751091  0.084945  0.388934  1
  O  O160  1  0.906452  0.915085  0.338620  1
  O  O161  1  0.692435  0.753985  0.288234  1
  O  O162  1  0.807467  0.253980  0.388260  1
  O  O163  1  0.904360  0.746040  0.356876  1
  O  O164  1  0.693581  0.644651  0.321858  1
  O  O165  1  0.806321  0.144655  0.354635  1
  O  O166  1  0.699355  0.355392  0.319984  1
  O  O167  1  0.800548  0.855381  0.356506  1
  O  O168  1  0.698705  0.941420  0.297765  1
  O  O169  1  0.801205  0.441416  0.378727  1
  O  O170  1  0.874949  0.558600  0.354842  1
  O  O171  1  0.801037  0.848031  0.285958  1
  O  O172  1  0.698866  0.348033  0.390532  1
  O  O173  1  0.911392  0.652010  0.321698  1
  O  O174  1  -0.000000  0.621677  0.350020  1
  O  O175  1  0.876866  0.083099  0.323171  1
  O  O176  1  0.796510  0.416932  0.297137  1
  O  O177  1  0.703397  0.916927  0.379355  1
  O  O178  1  0.694745  0.750009  0.356129  1
  O  O179  1  0.805156  0.250012  0.320364  1
  O  O180  1  0.748877  0.576619  0.354827  1
  O  O181  1  0.751030  0.076619  0.321666  1
  O  O182  1  0.801149  0.423404  0.337894  1
  O  O183  1  0.698753  0.923403  0.338598  1
  O  O184  1  0.906807  0.935307  0.298098  1
  O  O185  1  0.873919  0.564732  0.287440  1
  O  O186  1  0.000000  0.622084  0.293239  1
  O  O187  1  0.907790  0.750023  0.287123  1
  O  O188  1  0.000000  0.019428  0.390720  1
  O  O189  1  0.713589  0.878374  0.257274  1
  O  O190  1  0.802828  0.487266  0.257273  1
  O  O191  1  0.888900  0.877978  0.257275  1
  O  O192  1  -0.000000  0.012783  0.321121  1
  O  O193  1  0.122120  0.090113  0.451257  1
  O  O194  1  0.098872  0.909993  0.458791  1
  O  O195  1  0.248790  0.084994  0.449499  1
  O  O196  1  0.251105  0.584996  0.550874  1
  O  O197  1  0.093445  0.915129  0.499818  1
  O  O198  1  0.192418  0.254031  0.450175  1
  O  O199  1  0.307470  0.754037  0.550198  1
  O  O200  1  0.095531  0.746086  0.481562  1
  O  O201  1  0.193562  0.144701  0.483800  1
  O  O202  1  0.306331  0.644696  0.516574  1
  O  O203  1  0.199347  0.855419  0.481931  1
  O  O204  1  0.300545  0.355424  0.518447  1
  O  O205  1  0.198704  0.441469  0.459704  1
  O  O206  1  0.301185  0.941475  0.540670  1
  O  O207  1  0.124961  0.558651  0.483590  1
  O  O208  1  0.301030  0.348057  0.447898  1
  O  O209  1  0.198860  0.848066  0.552476  1
  O  O210  1  0.088513  0.652035  0.516737  1
  O  O211  1  0.213587  0.378404  0.419214  1
  O  O212  1  0.123022  0.083149  0.515266  1
  O  O213  1  0.296486  0.916978  0.459080  1
  O  O214  1  0.203398  0.416984  0.541294  1
  O  O215  1  0.194735  0.250065  0.518069  1
  O  O216  1  0.305158  0.750063  0.482305  1
  O  O217  1  0.248857  0.076670  0.516768  1
  O  O218  1  0.251032  0.576670  0.483605  1
  O  O219  1  0.301141  0.923457  0.499837  1
  O  O220  1  0.198757  0.423452  0.500537  1
  O  O221  1  0.302815  0.987305  0.419215  1
  O  O222  1  0.093090  0.935354  0.540340  1
  O  O223  1  0.125993  0.564779  0.550996  1
  O  O224  1  0.092105  0.750063  0.551310  1
  O  O225  1  0.087933  0.980631  0.419218  1
  O  O226  1  0.598869  0.409983  0.541587  1
  O  O227  1  0.377773  0.590127  0.549118  1
  O  O228  1  0.622136  0.590097  0.549121  1
  O  O229  1  0.401025  0.410009  0.541585  1
  O  O230  1  0.593440  0.415106  0.500560  1
  O  O231  1  0.406442  0.415132  0.500558  1
  O  O232  1  0.595538  0.246068  0.518818  1
  O  O233  1  0.404361  0.246097  0.518817  1
  O  O234  1  0.624950  0.058627  0.516788  1
  O  O235  1  0.374928  0.058662  0.516786  1
  O  O236  1  0.588508  0.152025  0.483643  1
  O  O237  1  0.411380  0.152050  0.483641  1
  O  O238  1  0.499941  0.121701  0.511964  1
  O  O239  1  0.376868  0.583144  0.485107  1
  O  O240  1  0.623031  0.583116  0.485111  1
  O  O241  1  0.499947  0.512805  0.483059  1
  O  O242  1  0.406801  0.435341  0.460035  1
  O  O243  1  0.625978  0.064740  0.449385  1
  O  O244  1  0.593090  0.435321  0.460038  1
  O  O245  1  0.373902  0.064769  0.449383  1
  O  O246  1  0.499943  0.122098  0.455184  1
  O  O247  1  0.611001  0.377971  0.419216  1
  O  O248  1  0.407786  0.250052  0.449064  1
  O  O249  1  0.592111  0.250031  0.449067  1
  O  O250  1  0.499952  0.519465  0.552663  1
  O  O251  1  0.388895  0.377994  0.419214  1
  O  O252  1  0.901021  0.909973  0.458794  1
  O  O253  1  0.877760  0.090085  0.451259  1
  O  O254  1  0.906444  0.915109  0.499821  1
  O  O255  1  0.748805  0.584968  0.550879  1
  O  O256  1  0.751090  0.084961  0.449502  1
  O  O257  1  0.904354  0.746067  0.481564  1
  O  O258  1  0.692434  0.754008  0.550200  1
  O  O259  1  0.807465  0.253998  0.450179  1
  O  O260  1  0.699347  0.355415  0.518448  1
  O  O261  1  0.800541  0.855406  0.481934  1
  O  O262  1  0.693579  0.644659  0.516577  1
  O  O263  1  0.806316  0.144662  0.483803  1
  O  O264  1  0.874939  0.558628  0.483593  1
  O  O265  1  0.698699  0.941447  0.540675  1
  O  O266  1  0.801198  0.441437  0.459707  1
  O  O267  1  0.911385  0.652022  0.516738  1
  O  O268  1  0.801035  0.848054  0.552479  1
  O  O269  1  0.698863  0.348044  0.447902  1
  O  O270  1  -0.000000  0.621694  0.488415  1
  O  O271  1  0.796499  0.416953  0.541296  1
  O  O272  1  0.703392  0.916949  0.459084  1
  O  O273  1  0.876856  0.083121  0.515270  1
  O  O274  1  0.805148  0.250036  0.518071  1
  O  O275  1  0.694738  0.750033  0.482309  1
  O  O276  1  0.801144  0.423428  0.500540  1
  O  O277  1  0.698745  0.923424  0.499841  1
  O  O278  1  0.748868  0.576640  0.483607  1
  O  O279  1  0.751020  0.076645  0.516772  1
  O  O280  1  0.873916  0.564745  0.550996  1
  O  O281  1  0.906808  0.935329  0.540343  1
  O  O282  1  0.907785  0.750038  0.551313  1
  O  O283  1  0.911958  0.980607  0.419220  1
  O  O284  1  0.786309  0.378375  0.419217  1
  O  O285  1  0.697064  0.987263  0.419219  1
  O  O286  1  0.000000  0.012812  0.517317  1
  O  O287  1  -0.000000  0.622101  0.545196  1
  O  O288  1  -0.000000  0.019446  0.447716  1
  O  O289  1  0.098877  0.909977  0.703534  1
  O  O290  1  0.122120  0.090099  0.711065  1
  O  O291  1  0.093455  0.915111  0.662507  1
  O  O292  1  0.248791  0.084981  0.712819  1
  O  O293  1  0.251107  0.584983  0.611445  1
  O  O294  1  0.095541  0.746070  0.680763  1
  O  O295  1  0.192419  0.254017  0.712144  1
  O  O296  1  0.307474  0.754025  0.612119  1
  O  O297  1  0.199355  0.855403  0.680393  1
  O  O298  1  0.300553  0.355391  0.643871  1
  O  O299  1  0.193559  0.144684  0.678520  1
  O  O300  1  0.306335  0.644699  0.645744  1
  O  O301  1  0.124973  0.558637  0.678728  1
  O  O302  1  0.198711  0.441453  0.702612  1
  O  O303  1  0.301190  0.941460  0.621650  1
  O  O304  1  0.088518  0.652037  0.645585  1
  O  O305  1  0.301033  0.348040  0.714419  1
  O  O306  1  0.198864  0.848054  0.609845  1
  O  O307  1  0.286307  0.878410  0.581160  1
  O  O308  1  0.296500  0.916970  0.703240  1
  O  O309  1  0.203411  0.416961  0.621023  1
  O  O310  1  0.123027  0.083124  0.647054  1
  O  O311  1  0.305167  0.750050  0.680015  1
  O  O312  1  0.194736  0.250045  0.644250  1
  O  O313  1  0.301143  0.923440  0.662483  1
  O  O314  1  0.198767  0.423439  0.661780  1
  O  O315  1  0.248864  0.076656  0.645553  1
  O  O316  1  0.251044  0.576654  0.678712  1
  O  O317  1  0.197089  0.487302  0.581159  1
  O  O318  1  0.125996  0.564753  0.611328  1
  O  O319  1  0.093089  0.935319  0.621984  1
  O  O320  1  0.110998  0.877998  0.581161  1
  O  O321  1  0.092113  0.750037  0.611009  1
  O  O322  1  0.622137  0.590077  0.613203  1
  O  O323  1  0.401024  0.409988  0.620731  1
  O  O324  1  0.598873  0.409960  0.620733  1
  O  O325  1  0.377777  0.590113  0.613201  1
  O  O326  1  0.406450  0.415115  0.661758  1
  O  O327  1  0.593451  0.415085  0.661760  1
  O  O328  1  0.404373  0.246075  0.643501  1
  O  O329  1  0.595547  0.246046  0.643503  1
  O  O330  1  0.374935  0.058641  0.645534  1
  O  O331  1  0.624960  0.058605  0.645538  1
  O  O332  1  0.411386  0.152036  0.678678  1
  O  O333  1  0.588513  0.152017  0.678680  1
  O  O334  1  0.499951  0.121678  0.650357  1
  O  O335  1  0.623040  0.583092  0.677212  1
  O  O336  1  0.376879  0.583133  0.677207  1
  O  O337  1  0.499955  0.512783  0.679259  1
  O  O338  1  0.593091  0.435296  0.702283  1
  O  O339  1  0.373904  0.064769  0.712937  1
  O  O340  1  0.406800  0.435333  0.702280  1
  O  O341  1  0.625980  0.064722  0.712938  1
  O  O342  1  0.499946  0.122086  0.707137  1
  O  O343  1  0.592117  0.250013  0.713258  1
  O  O344  1  0.407793  0.250049  0.713253  1
  O  O345  1  0.499954  0.519444  0.609658  1
  O  O346  1  0.587938  0.480623  0.581160  1
  O  O347  1  0.411963  0.480650  0.581159  1
  O  O348  1  0.877762  0.090066  0.711067  1
  O  O349  1  0.901024  0.909948  0.703536  1
  O  O350  1  0.748807  0.584947  0.611447  1
  O  O351  1  0.751091  0.084945  0.712824  1
  O  O352  1  0.906452  0.915085  0.662509  1
  O  O353  1  0.692435  0.753985  0.612123  1
  O  O354  1  0.807467  0.253980  0.712149  1
  O  O355  1  0.904360  0.746040  0.680765  1
  O  O356  1  0.693581  0.644651  0.645747  1
  O  O357  1  0.806321  0.144655  0.678524  1
  O  O358  1  0.699355  0.355392  0.643873  1
  O  O359  1  0.800548  0.855381  0.680395  1
  O  O360  1  0.698705  0.941420  0.621654  1
  O  O361  1  0.801205  0.441416  0.702616  1
  O  O362  1  0.874949  0.558600  0.678731  1
  O  O363  1  0.801037  0.848031  0.609848  1
  O  O364  1  0.698866  0.348033  0.714421  1
  O  O365  1  0.911392  0.652010  0.645587  1
  O  O366  1  0.000000  0.621677  0.673909  1
  O  O367  1  0.876866  0.083099  0.647060  1
  O  O368  1  0.796510  0.416932  0.621027  1
  O  O369  1  0.703397  0.916927  0.703244  1
  O  O370  1  0.694745  0.750009  0.680018  1
  O  O371  1  0.805156  0.250012  0.644253  1
  O  O372  1  0.748877  0.576619  0.678716  1
  O  O373  1  0.751030  0.076619  0.645555  1
  O  O374  1  0.801149  0.423404  0.661783  1
  O  O375  1  0.698753  0.923403  0.662487  1
  O  O376  1  0.906807  0.935307  0.621987  1
  O  O377  1  0.873919  0.564732  0.611329  1
  O  O378  1  0.000000  0.622084  0.617129  1
  O  O379  1  0.907790  0.750023  0.611012  1
  O  O380  1  0.000000  0.019428  0.714609  1
  O  O381  1  0.713589  0.878374  0.581164  1
  O  O382  1  0.802828  0.487266  0.581162  1
  O  O383  1  0.888900  0.877978  0.581164  1
  O  O384  1  0.000000  0.012783  0.645010  1
  O  O385  1  0.213587  0.378404  0.743103  1
  O  O386  1  0.302815  0.987305  0.743105  1
  O  O387  1  0.087933  0.980631  0.743107  1
  O  O388  1  0.611001  0.377971  0.743105  1
  O  O389  1  0.388895  0.377994  0.743103  1
  O  O390  1  0.911958  0.980607  0.743109  1
  O  O391  1  0.786309  0.378375  0.743107  1
  O  O392  1  0.697064  0.987263  0.743108  1
  Si  Si393  1  0.307406  -0.000000  0.194911  1
  Si  Si394  1  0.192485  0.500060  0.157685  1
  Si  Si395  1  0.187853  0.144015  0.134807  1
  Si  Si396  1  0.312039  0.644020  0.217788  1
  Si  Si397  1  0.121840  0.856102  0.156194  1
  Si  Si398  1  0.223954  0.357553  0.120109  1
  Si  Si399  1  0.275936  0.857559  0.232487  1
  Si  Si400  1  0.076468  0.642555  0.167883  1
  Si  Si401  1  0.188392  0.140792  0.185026  1
  Si  Si402  1  0.311498  0.640788  0.167570  1
  Si  Si403  1  0.276888  0.859335  0.156364  1
  Si  Si404  1  0.223003  0.359337  0.196233  1
  Si  Si405  1  0.076624  0.989579  0.194610  1
  Si  Si406  1  0.306467  0.010545  0.120162  1
  Si  Si407  1  0.193428  0.510548  0.232435  1
  Si  Si408  1  0.121848  0.855556  0.232470  1
  Si  Si409  1  0.076526  0.644559  0.217791  1
  Si  Si410  1  0.076698  -0.000000  0.120188  1
  Si  Si411  1  0.423197  0.500064  0.232410  1
  Si  Si412  1  0.576705  0.500042  0.232412  1
  Si  Si413  1  0.621840  0.356088  0.196407  1
  Si  Si414  1  0.378051  0.356113  0.196406  1
  Si  Si415  1  0.576463  0.142543  0.184718  1
  Si  Si416  1  0.423423  0.142566  0.184716  1
  Si  Si417  1  0.423266  0.489573  0.157986  1
  Si  Si418  1  0.576627  0.489554  0.157989  1
  Si  Si419  1  0.378043  0.355547  0.120127  1
  Si  Si420  1  0.576520  0.144538  0.134810  1
  Si  Si421  1  0.621851  0.355528  0.120129  1
  Si  Si422  1  0.423367  0.144556  0.134808  1
  Si  Si423  1  0.807417  0.500034  0.157687  1
  Si  Si424  1  0.692473  0.000000  0.194915  1
  Si  Si425  1  0.923190  -0.000000  0.120190  1
  Si  Si426  1  0.878047  0.856084  0.156196  1
  Si  Si427  1  0.687871  0.643989  0.217791  1
  Si  Si428  1  0.812026  0.143980  0.134810  1
  Si  Si429  1  0.923428  0.642540  0.167885  1
  Si  Si430  1  0.723959  0.857533  0.232490  1
  Si  Si431  1  0.775939  0.357526  0.120112  1
  Si  Si432  1  0.776889  0.359313  0.196235  1
  Si  Si433  1  0.722999  0.859309  0.156368  1
  Si  Si434  1  0.688402  0.640756  0.167573  1
  Si  Si435  1  0.811486  0.140761  0.185028  1
  Si  Si436  1  0.806482  0.510515  0.232437  1
  Si  Si437  1  0.693412  0.010511  0.120165  1
  Si  Si438  1  0.923263  0.989561  0.194612  1
  Si  Si439  1  0.923374  0.644541  0.217792  1
  Si  Si440  1  0.878048  0.855535  0.232473  1
  Si  Si441  1  0.307411  -0.000000  0.319632  1
  Si  Si442  1  0.192496  0.500046  0.356853  1
  Si  Si443  1  0.121850  0.856086  0.358354  1
  Si  Si444  1  0.187852  0.143999  0.379734  1
  Si  Si445  1  0.312043  0.644010  0.296752  1
  Si  Si446  1  0.076476  0.642544  0.346660  1
  Si  Si447  1  0.223957  0.357540  0.394430  1
  Si  Si448  1  0.275939  0.857549  0.282054  1
  Si  Si449  1  0.276898  0.859321  0.358179  1
  Si  Si450  1  0.223011  0.359314  0.318307  1
  Si  Si451  1  0.188395  0.140773  0.329516  1
  Si  Si452  1  0.311508  0.640779  0.346970  1
  Si  Si453  1  0.306472  0.010540  0.394379  1
  Si  Si454  1  0.193432  0.510533  0.282107  1
  Si  Si455  1  0.076629  0.989551  0.319936  1
  Si  Si456  1  0.076531  0.644541  0.296753  1
  Si  Si457  1  0.121851  0.855537  0.282074  1
  Si  Si458  1  0.076700  -0.000000  0.394358  1
  Si  Si459  1  0.423199  0.500049  0.282130  1
  Si  Si460  1  0.378058  0.356088  0.318133  1
  Si  Si461  1  0.621849  0.356066  0.318134  1
  Si  Si462  1  0.423432  0.142546  0.329825  1
  Si  Si463  1  0.576472  0.142525  0.329827  1
  Si  Si464  1  0.576634  0.489530  0.356553  1
  Si  Si465  1  0.423272  0.489557  0.356551  1
  Si  Si466  1  0.621854  0.355514  0.394415  1
  Si  Si467  1  0.423372  0.144549  0.379732  1
  Si  Si468  1  0.378045  0.355541  0.394412  1
  Si  Si469  1  0.576524  0.144523  0.379734  1
  Si  Si470  1  0.576707  0.500025  0.282131  1
  Si  Si471  1  0.807425  0.500010  0.356857  1
  Si  Si472  1  0.692483  0.000000  0.319635  1
  Si  Si473  1  0.687872  0.643968  0.296755  1
  Si  Si474  1  0.812029  0.143964  0.379739  1
  Si  Si475  1  0.878054  0.856057  0.358355  1
  Si  Si476  1  0.723961  0.857514  0.282058  1
  Si  Si477  1  0.775943  0.357513  0.394434  1
  Si  Si478  1  0.923436  0.642519  0.346662  1
  Si  Si479  1  0.688410  0.640736  0.346973  1
  Si  Si480  1  0.811494  0.140742  0.329520  1
  Si  Si481  1  0.776898  0.359289  0.318310  1
  Si  Si482  1  0.723005  0.859285  0.358182  1
  Si  Si483  1  0.923268  0.989534  0.319939  1
  Si  Si484  1  0.806486  0.510502  0.282109  1
  Si  Si485  1  0.693413  0.010496  0.394383  1
  Si  Si486  1  0.878049  0.855520  0.282077  1
  Si  Si487  1  0.923379  0.644526  0.296755  1
  Si  Si488  1  0.923191  0.000000  0.394360  1
  Si  Si489  1  0.307406  -0.000000  0.518800  1
  Si  Si490  1  0.192485  0.500060  0.481574  1
  Si  Si491  1  0.187853  0.144015  0.458696  1
  Si  Si492  1  0.312039  0.644020  0.541677  1
  Si  Si493  1  0.121840  0.856102  0.480083  1
  Si  Si494  1  0.223954  0.357553  0.443998  1
  Si  Si495  1  0.275936  0.857559  0.556376  1
  Si  Si496  1  0.076468  0.642555  0.491772  1
  Si  Si497  1  0.188392  0.140792  0.508915  1
  Si  Si498  1  0.311498  0.640788  0.491459  1
  Si  Si499  1  0.276888  0.859335  0.480253  1
  Si  Si500  1  0.223003  0.359337  0.520122  1
  Si  Si501  1  0.076624  0.989579  0.518499  1
  Si  Si502  1  0.306467  0.010545  0.444051  1
  Si  Si503  1  0.193428  0.510548  0.556324  1
  Si  Si504  1  0.121848  0.855556  0.556359  1
  Si  Si505  1  0.076526  0.644559  0.541680  1
  Si  Si506  1  0.076698  -0.000000  0.444077  1
  Si  Si507  1  0.423197  0.500064  0.556299  1
  Si  Si508  1  0.576705  0.500042  0.556301  1
  Si  Si509  1  0.621840  0.356088  0.520296  1
  Si  Si510  1  0.378051  0.356113  0.520295  1
  Si  Si511  1  0.576463  0.142543  0.508607  1
  Si  Si512  1  0.423423  0.142566  0.508605  1
  Si  Si513  1  0.423266  0.489573  0.481875  1
  Si  Si514  1  0.576627  0.489554  0.481878  1
  Si  Si515  1  0.378043  0.355547  0.444016  1
  Si  Si516  1  0.576520  0.144538  0.458699  1
  Si  Si517  1  0.621851  0.355528  0.444019  1
  Si  Si518  1  0.423367  0.144556  0.458698  1
  Si  Si519  1  0.807417  0.500034  0.481576  1
  Si  Si520  1  0.692473  0.000000  0.518804  1
  Si  Si521  1  0.923190  0.000000  0.444079  1
  Si  Si522  1  0.878047  0.856084  0.480085  1
  Si  Si523  1  0.687871  0.643989  0.541681  1
  Si  Si524  1  0.812026  0.143980  0.458699  1
  Si  Si525  1  0.923428  0.642540  0.491774  1
  Si  Si526  1  0.723959  0.857533  0.556379  1
  Si  Si527  1  0.775939  0.357526  0.444001  1
  Si  Si528  1  0.776889  0.359313  0.520124  1
  Si  Si529  1  0.722999  0.859309  0.480258  1
  Si  Si530  1  0.688402  0.640756  0.491462  1
  Si  Si531  1  0.811486  0.140761  0.508918  1
  Si  Si532  1  0.806482  0.510515  0.556326  1
  Si  Si533  1  0.693412  0.010511  0.444054  1
  Si  Si534  1  0.923263  0.989561  0.518501  1
  Si  Si535  1  0.923374  0.644541  0.541681  1
  Si  Si536  1  0.878048  0.855535  0.556362  1
  Si  Si537  1  0.307411  0.000000  0.643521  1
  Si  Si538  1  0.192496  0.500046  0.680742  1
  Si  Si539  1  0.121850  0.856086  0.682243  1
  Si  Si540  1  0.187852  0.143999  0.703623  1
  Si  Si541  1  0.312043  0.644010  0.620641  1
  Si  Si542  1  0.076476  0.642544  0.670550  1
  Si  Si543  1  0.223957  0.357540  0.718319  1
  Si  Si544  1  0.275939  0.857549  0.605943  1
  Si  Si545  1  0.276898  0.859321  0.682068  1
  Si  Si546  1  0.223011  0.359314  0.642196  1
  Si  Si547  1  0.188395  0.140773  0.653405  1
  Si  Si548  1  0.311508  0.640779  0.670859  1
  Si  Si549  1  0.306472  0.010540  0.718268  1
  Si  Si550  1  0.193432  0.510533  0.605996  1
  Si  Si551  1  0.076629  0.989551  0.643825  1
  Si  Si552  1  0.076531  0.644541  0.620642  1
  Si  Si553  1  0.121851  0.855537  0.605963  1
  Si  Si554  1  0.076700  -0.000000  0.718247  1
  Si  Si555  1  0.423199  0.500049  0.606019  1
  Si  Si556  1  0.378058  0.356088  0.642022  1
  Si  Si557  1  0.621849  0.356066  0.642023  1
  Si  Si558  1  0.423432  0.142546  0.653714  1
  Si  Si559  1  0.576472  0.142525  0.653716  1
  Si  Si560  1  0.576634  0.489530  0.680442  1
  Si  Si561  1  0.423272  0.489557  0.680440  1
  Si  Si562  1  0.621854  0.355514  0.718304  1
  Si  Si563  1  0.423372  0.144549  0.703621  1
  Si  Si564  1  0.378045  0.355541  0.718301  1
  Si  Si565  1  0.576524  0.144523  0.703623  1
  Si  Si566  1  0.576707  0.500025  0.606020  1
  Si  Si567  1  0.807425  0.500010  0.680746  1
  Si  Si568  1  0.692483  0.000000  0.643524  1
  Si  Si569  1  0.687872  0.643968  0.620644  1
  Si  Si570  1  0.812029  0.143964  0.703628  1
  Si  Si571  1  0.878054  0.856057  0.682245  1
  Si  Si572  1  0.723961  0.857514  0.605947  1
  Si  Si573  1  0.775943  0.357513  0.718323  1
  Si  Si574  1  0.923436  0.642519  0.670551  1
  Si  Si575  1  0.688410  0.640736  0.670862  1
  Si  Si576  1  0.811494  0.140742  0.653409  1
  Si  Si577  1  0.776898  0.359289  0.642199  1
  Si  Si578  1  0.723005  0.859285  0.682071  1
  Si  Si579  1  0.923268  0.989534  0.643828  1
  Si  Si580  1  0.806486  0.510502  0.605998  1
  Si  Si581  1  0.693413  0.010496  0.718272  1
  Si  Si582  1  0.878049  0.855520  0.605966  1
  Si  Si583  1  0.923379  0.644526  0.620644  1
  Si  Si584  1  0.923191  0.000000  0.718249  1
  H  H585  1  0.213587  0.378404  0.080784  1
  H  H586  1  0.302815  0.987305  0.080785  1
  H  H587  1  0.087933  0.980631  0.080788  1
  H  H588  1  0.611001  0.377971  0.080786  1
  H  H589  1  0.388895  0.377994  0.080783  1
  H  H590  1  0.911958  0.980607  0.080790  1
  H  H591  1  0.786309  0.378375  0.080787  1
  H  H592  1  0.697064  0.987263  0.080789  1
  H  H593  1  0.213587  0.378404  0.757644  1
  H  H594  1  0.302815  0.987305  0.757646  1
  H  H595  1  0.087933  0.980631  0.757648  1
  H  H596  1  0.611001  0.377971  0.757646  1
  H  H597  1  0.388895  0.377994  0.757644  1
  H  H598  1  0.911958  0.980607  0.757650  1
  H  H599  1  0.786309  0.378375  0.757648  1
  H  H600  1  0.697064  0.987263  0.757649  1
