# generated using pymatgen
data_Si28H2O57
_symmetry_space_group_name_H-M   'P 1'
_cell_length_a   18.24638661
_cell_length_b   18.24573394
_cell_length_c   62.31658068
_cell_angle_alpha   90.00000000
_cell_angle_beta   90.00000000
_cell_angle_gamma   90.00000000
_symmetry_Int_Tables_number   1
_chemical_formula_structural   Si28H2O57
_chemical_formula_sum   'Si224 H16 O456'
_cell_volume   20746.3559901
_cell_formula_units_Z   8
loop_
 _symmetry_equiv_pos_site_id
 _symmetry_equiv_pos_as_xyz
  1  'x, y, z'
loop_
 _atom_site_type_symbol
 _atom_site_label
 _atom_site_symmetry_multiplicity
 _atom_site_fract_x
 _atom_site_fract_y
 _atom_site_fract_z
 _atom_site_occupancy
  O  O1  1  0.876801  0.258297  0.159540  1
  O  O2  1  0.741746  0.123221  0.159540  1
  O  O3  1  0.241741  0.376719  0.192361  1
  O  O4  1  0.376801  0.241644  0.192359  1
  O  O5  1  0.949756  0.242138  0.124917  1
  O  O6  1  0.757902  0.050272  0.124916  1
  O  O7  1  0.826382  0.314704  0.125482  1
  O  O8  1  0.685331  0.173641  0.125484  1
  O  O9  1  0.822708  0.177325  0.131068  1
  O  O10  1  0.951697  0.243514  0.193280  1
  O  O11  1  0.756522  0.048329  0.193281  1
  O  O12  1  0.256522  0.451615  0.158620  1
  O  O13  1  0.451695  0.256433  0.158620  1
  O  O14  1  0.825452  0.313802  0.193541  1
  O  O15  1  0.686236  0.174567  0.193541  1
  O  O16  1  0.186236  0.325378  0.158359  1
  O  O17  1  0.325448  0.186144  0.158358  1
  O  O18  1  0.824279  0.175754  0.187614  1
  O  O19  1  0.324278  0.324192  0.164287  1
  O  O20  1  0.088755  0.253043  0.134905  1
  O  O21  1  0.253094  0.088672  0.134905  1
  O  O22  1  0.045524  0.230840  0.094680  1
  O  O23  1  0.034784  0.134562  0.123903  1
  O  O24  1  0.134597  0.034752  0.123895  1
  O  O25  1  0.188088  0.188015  0.157226  1
  O  O26  1  0.688090  0.311929  0.194674  1
  O  O27  1  0.081674  0.252318  0.175780  1
  O  O28  1  0.252373  0.081589  0.175780  1
  O  O29  1  0.752374  0.418356  0.176120  1
  O  O30  1  0.581674  0.247626  0.176119  1
  O  O31  1  0.038041  0.136414  0.192308  1
  O  O32  1  0.136458  0.038007  0.192313  1
  O  O33  1  0.636458  0.461938  0.159587  1
  O  O34  1  0.538042  0.363530  0.159592  1
  O  O35  1  0.746008  0.427520  0.135470  1
  O  O36  1  0.572507  0.254004  0.135470  1
  O  O37  1  0.065243  0.065178  0.158273  1
  O  O38  1  0.565245  0.434761  0.193628  1
  O  O39  1  0.690707  0.309317  0.122515  1
  O  O40  1  0.618354  0.239487  0.094679  1
  O  O41  1  0.230901  0.045440  0.094679  1
  O  O42  1  0.760529  0.381675  0.094678  1
  O  O43  1  0.500020  0.499975  0.163678  1
  O  O44  1  0.257915  0.449678  0.287463  1
  O  O45  1  0.449771  0.257820  0.287460  1
  O  O46  1  0.257904  0.449669  0.226984  1
  O  O47  1  0.449758  0.257807  0.226982  1
  O  O48  1  0.185346  0.326308  0.288022  1
  O  O49  1  0.326397  0.185251  0.288023  1
  O  O50  1  0.185333  0.326302  0.226419  1
  O  O51  1  0.326384  0.185239  0.226417  1
  O  O52  1  0.322722  0.322626  0.293612  1
  O  O53  1  0.322710  0.322617  0.220832  1
  O  O54  1  0.753119  0.411263  0.297445  1
  O  O55  1  0.588772  0.246899  0.297444  1
  O  O56  1  0.753099  0.411272  0.216995  1
  O  O57  1  0.588756  0.246902  0.216994  1
  O  O58  1  0.730903  0.454497  0.257221  1
  O  O59  1  0.545525  0.269099  0.257220  1
  O  O60  1  0.634624  0.465202  0.286443  1
  O  O61  1  0.534815  0.365385  0.286441  1
  O  O62  1  0.634601  0.465191  0.228005  1
  O  O63  1  0.534788  0.365382  0.227999  1
  O  O64  1  0.072510  0.245941  0.216429  1
  O  O65  1  0.246010  0.072423  0.216429  1
  O  O66  1  0.072525  0.245949  0.298015  1
  O  O67  1  0.246031  0.072433  0.298014  1
  O  O68  1  0.500022  0.499971  0.223398  1
  O  O69  1  0.190708  0.190626  0.229385  1
  O  O70  1  0.190720  0.190632  0.285058  1
  O  O71  1  0.118353  0.260450  0.257222  1
  O  O72  1  0.260532  0.118266  0.257221  1
  O  O73  1  0.500042  0.499968  0.291046  1
  O  O74  1  0.241746  0.376712  0.322083  1
  O  O75  1  0.376816  0.241646  0.322082  1
  O  O76  1  0.876809  0.258293  0.354902  1
  O  O77  1  0.741747  0.123222  0.354903  1
  O  O78  1  0.949773  0.242118  0.389523  1
  O  O79  1  0.757917  0.050256  0.389523  1
  O  O80  1  0.826397  0.314684  0.388963  1
  O  O81  1  0.685351  0.173626  0.388964  1
  O  O82  1  0.822725  0.177309  0.383373  1
  O  O83  1  0.256537  0.451613  0.355823  1
  O  O84  1  0.451718  0.256429  0.355819  1
  O  O85  1  0.951716  0.243502  0.321166  1
  O  O86  1  0.756537  0.048319  0.321164  1
  O  O87  1  0.186254  0.325375  0.356087  1
  O  O88  1  0.325471  0.186148  0.356085  1
  O  O89  1  0.825470  0.313787  0.320898  1
  O  O90  1  0.686254  0.174558  0.320898  1
  O  O91  1  0.324297  0.324192  0.350156  1
  O  O92  1  0.824296  0.175741  0.326829  1
  O  O93  1  0.088773  0.253038  0.379541  1
  O  O94  1  0.253120  0.088673  0.379539  1
  O  O95  1  0.500046  0.499965  0.350767  1
  O  O96  1  0.034817  0.134552  0.390544  1
  O  O97  1  0.134625  0.034733  0.390542  1
  O  O98  1  0.688109  0.311921  0.319765  1
  O  O99  1  0.188108  0.188014  0.357219  1
  O  O100  1  0.752397  0.418342  0.338320  1
  O  O101  1  0.581696  0.247620  0.338319  1
  O  O102  1  0.081694  0.252314  0.338666  1
  O  O103  1  0.252397  0.081594  0.338664  1
  O  O104  1  0.636487  0.461934  0.354853  1
  O  O105  1  0.538075  0.363520  0.354853  1
  O  O106  1  0.038073  0.136412  0.322133  1
  O  O107  1  0.136487  0.038000  0.322131  1
  O  O108  1  0.746032  0.427501  0.378970  1
  O  O109  1  0.572528  0.253979  0.378969  1
  O  O110  1  0.565258  0.434749  0.320816  1
  O  O111  1  0.065259  0.065184  0.356169  1
  O  O112  1  0.690719  0.309303  0.391926  1
  O  O113  1  0.123251  0.741630  0.159540  1
  O  O114  1  0.258299  0.876712  0.159541  1
  O  O115  1  0.758299  0.623228  0.192360  1
  O  O116  1  0.623247  0.758309  0.192361  1
  O  O117  1  0.050281  0.757806  0.124920  1
  O  O118  1  0.242133  0.949677  0.124919  1
  O  O119  1  0.173662  0.685247  0.125478  1
  O  O120  1  0.314701  0.826309  0.125481  1
  O  O121  1  0.177326  0.822622  0.131070  1
  O  O122  1  0.048337  0.756422  0.193276  1
  O  O123  1  0.243512  0.951611  0.193280  1
  O  O124  1  0.743513  0.548333  0.158620  1
  O  O125  1  0.548338  0.743519  0.158624  1
  O  O126  1  0.174585  0.686137  0.193545  1
  O  O127  1  0.313796  0.825374  0.193545  1
  O  O128  1  0.813796  0.674569  0.158356  1
  O  O129  1  0.674585  0.813805  0.158358  1
  O  O130  1  0.175754  0.824184  0.187614  1
  O  O131  1  0.675755  0.675758  0.164288  1
  O  O132  1  0.911278  0.746903  0.134902  1
  O  O133  1  0.746939  0.911277  0.134904  1
  O  O134  1  0.965252  0.865383  0.123899  1
  O  O135  1  0.865441  0.965197  0.123898  1
  O  O136  1  0.811946  0.811931  0.157223  1
  O  O137  1  0.311946  0.688012  0.194679  1
  O  O138  1  0.918358  0.747624  0.175777  1
  O  O139  1  0.747666  0.918356  0.175779  1
  O  O140  1  0.247665  0.581585  0.176124  1
  O  O141  1  0.418362  0.752319  0.176126  1
  O  O142  1  0.961990  0.863522  0.192308  1
  O  O143  1  0.863580  0.961938  0.192311  1
  O  O144  1  0.363580  0.538007  0.159590  1
  O  O145  1  0.461990  0.636421  0.159592  1
  O  O146  1  0.254030  0.572434  0.135474  1
  O  O147  1  0.427526  0.745961  0.135476  1
  O  O148  1  0.934802  0.934755  0.158273  1
  O  O149  1  0.434804  0.565190  0.193628  1
  O  O150  1  0.381707  0.760455  0.094682  1
  O  O151  1  0.309339  0.690632  0.122517  1
  O  O152  1  0.239533  0.618262  0.094679  1
  O  O153  1  0.954538  0.769097  0.094678  1
  O  O154  1  0.769160  0.954500  0.094679  1
  O  O155  1  -0.000000  -0.000000  0.188224  1
  O  O156  1  -0.000000  -0.000000  0.128503  1
  O  O157  1  0.742177  0.550260  0.287459  1
  O  O158  1  0.550315  0.742118  0.287460  1
  O  O159  1  0.742137  0.550267  0.226982  1
  O  O160  1  0.550282  0.742135  0.226982  1
  O  O161  1  0.814740  0.673635  0.288024  1
  O  O162  1  0.673685  0.814685  0.288025  1
  O  O163  1  0.814704  0.673635  0.226420  1
  O  O164  1  0.673662  0.814696  0.226422  1
  O  O165  1  0.677364  0.677308  0.293612  1
  O  O166  1  0.677327  0.677320  0.220832  1
  O  O167  1  0.246968  0.588676  0.297448  1
  O  O168  1  0.411321  0.753039  0.297451  1
  O  O169  1  0.246942  0.588666  0.216999  1
  O  O170  1  0.411278  0.753038  0.217001  1
  O  O171  1  0.269160  0.545437  0.257223  1
  O  O172  1  0.454538  0.730842  0.257224  1
  O  O173  1  0.365461  0.534744  0.286440  1
  O  O174  1  0.465273  0.634555  0.286443  1
  O  O175  1  0.365443  0.534743  0.228003  1
  O  O176  1  0.465253  0.634558  0.228002  1
  O  O177  1  0.927528  0.753987  0.216426  1
  O  O178  1  0.754032  0.927511  0.216429  1
  O  O179  1  0.927562  0.754000  0.298011  1
  O  O180  1  0.754049  0.927507  0.298015  1
  O  O181  1  0.809338  0.809311  0.229384  1
  O  O182  1  0.809359  0.809312  0.285058  1
  O  O183  1  0.881707  0.739487  0.257219  1
  O  O184  1  0.739531  0.881676  0.257222  1
  O  O185  1  0.758338  0.623212  0.322083  1
  O  O186  1  0.623266  0.758280  0.322084  1
  O  O187  1  0.123265  0.741655  0.354903  1
  O  O188  1  0.258333  0.876721  0.354903  1
  O  O189  1  0.050317  0.757817  0.389527  1
  O  O190  1  0.242178  0.949676  0.389526  1
  O  O191  1  0.173687  0.685246  0.388960  1
  O  O192  1  0.314741  0.826301  0.388961  1
  O  O193  1  0.177365  0.822625  0.383374  1
  O  O194  1  0.743554  0.548317  0.355822  1
  O  O195  1  0.548376  0.743494  0.355824  1
  O  O196  1  0.048376  0.756437  0.321161  1
  O  O197  1  0.243554  0.951617  0.321163  1
  O  O198  1  0.813841  0.674557  0.356084  1
  O  O199  1  0.674618  0.813784  0.356085  1
  O  O200  1  0.174618  0.686146  0.320903  1
  O  O201  1  0.313840  0.825377  0.320903  1
  O  O202  1  0.675797  0.675739  0.350156  1
  O  O203  1  0.175795  0.824194  0.326829  1
  O  O204  1  0.911323  0.746897  0.379536  1
  O  O205  1  0.746969  0.911256  0.379539  1
  O  O206  1  0.000000  0.000000  0.326219  1
  O  O207  1  0.965276  0.865383  0.390542  1
  O  O208  1  0.865462  0.965191  0.390546  1
  O  O209  1  0.311980  0.688015  0.319770  1
  O  O210  1  0.811981  0.811918  0.357217  1
  O  O211  1  0.247694  0.581590  0.338323  1
  O  O212  1  0.418395  0.752313  0.338326  1
  O  O213  1  0.918396  0.747620  0.338661  1
  O  O214  1  0.747692  0.918343  0.338665  1
  O  O215  1  0.363605  0.537994  0.354854  1
  O  O216  1  0.462017  0.636407  0.354854  1
  O  O217  1  0.962019  0.863526  0.322133  1
  O  O218  1  0.863602  0.961935  0.322131  1
  O  O219  1  0.254058  0.572426  0.378972  1
  O  O220  1  0.427564  0.745936  0.378976  1
  O  O221  1  0.434826  0.565182  0.320816  1
  O  O222  1  0.934824  0.934756  0.356170  1
  O  O223  1  0.309361  0.690625  0.391929  1
  O  O224  1  0.000000  0.000000  0.385940  1
  O  O225  1  0.876801  0.258297  0.484625  1
  O  O226  1  0.741746  0.123221  0.484625  1
  O  O227  1  0.241741  0.376719  0.517445  1
  O  O228  1  0.376801  0.241644  0.517444  1
  O  O229  1  0.949756  0.242138  0.450002  1
  O  O230  1  0.757902  0.050272  0.450000  1
  O  O231  1  0.826382  0.314704  0.450567  1
  O  O232  1  0.685331  0.173641  0.450568  1
  O  O233  1  0.822708  0.177325  0.456152  1
  O  O234  1  0.951697  0.243514  0.518364  1
  O  O235  1  0.756522  0.048329  0.518365  1
  O  O236  1  0.256522  0.451615  0.483705  1
  O  O237  1  0.451695  0.256433  0.483704  1
  O  O238  1  0.825452  0.313802  0.518626  1
  O  O239  1  0.686236  0.174567  0.518625  1
  O  O240  1  0.186236  0.325378  0.483444  1
  O  O241  1  0.325448  0.186144  0.483443  1
  O  O242  1  0.824279  0.175754  0.512699  1
  O  O243  1  0.324278  0.324192  0.489371  1
  O  O244  1  0.088755  0.253043  0.459989  1
  O  O245  1  0.253094  0.088672  0.459990  1
  O  O246  1  0.045524  0.230840  0.419765  1
  O  O247  1  0.034784  0.134562  0.448987  1
  O  O248  1  0.134597  0.034752  0.448980  1
  O  O249  1  0.188088  0.188015  0.482310  1
  O  O250  1  0.688090  0.311929  0.519758  1
  O  O251  1  0.081674  0.252318  0.500865  1
  O  O252  1  0.252373  0.081589  0.500865  1
  O  O253  1  0.752374  0.418356  0.501205  1
  O  O254  1  0.581674  0.247626  0.501204  1
  O  O255  1  0.038041  0.136414  0.517393  1
  O  O256  1  0.136458  0.038007  0.517398  1
  O  O257  1  0.636458  0.461938  0.484672  1
  O  O258  1  0.538042  0.363530  0.484677  1
  O  O259  1  0.746008  0.427520  0.460555  1
  O  O260  1  0.572507  0.254004  0.460555  1
  O  O261  1  0.065243  0.065178  0.483358  1
  O  O262  1  0.565245  0.434761  0.518712  1
  O  O263  1  0.690707  0.309317  0.447600  1
  O  O264  1  0.618354  0.239487  0.419763  1
  O  O265  1  0.230901  0.045440  0.419764  1
  O  O266  1  0.760529  0.381675  0.419763  1
  O  O267  1  0.500020  0.499975  0.488763  1
  O  O268  1  0.257915  0.449678  0.612547  1
  O  O269  1  0.449771  0.257820  0.612544  1
  O  O270  1  0.257904  0.449669  0.552069  1
  O  O271  1  0.449758  0.257807  0.552067  1
  O  O272  1  0.185346  0.326308  0.613107  1
  O  O273  1  0.326397  0.185251  0.613107  1
  O  O274  1  0.185333  0.326302  0.551504  1
  O  O275  1  0.326384  0.185239  0.551502  1
  O  O276  1  0.322722  0.322626  0.618697  1
  O  O277  1  0.322710  0.322617  0.545916  1
  O  O278  1  0.753119  0.411263  0.622530  1
  O  O279  1  0.588772  0.246899  0.622528  1
  O  O280  1  0.753099  0.411272  0.542079  1
  O  O281  1  0.588756  0.246902  0.542079  1
  O  O282  1  0.730903  0.454497  0.582305  1
  O  O283  1  0.545525  0.269099  0.582304  1
  O  O284  1  0.634624  0.465202  0.611527  1
  O  O285  1  0.534815  0.365385  0.611525  1
  O  O286  1  0.634601  0.465191  0.553089  1
  O  O287  1  0.534788  0.365382  0.553084  1
  O  O288  1  0.072510  0.245941  0.541514  1
  O  O289  1  0.246010  0.072423  0.541514  1
  O  O290  1  0.072525  0.245949  0.623100  1
  O  O291  1  0.246031  0.072433  0.623099  1
  O  O292  1  0.500022  0.499971  0.548482  1
  O  O293  1  0.190708  0.190626  0.554469  1
  O  O294  1  0.190720  0.190632  0.610143  1
  O  O295  1  0.118353  0.260450  0.582306  1
  O  O296  1  0.260532  0.118266  0.582306  1
  O  O297  1  0.500042  0.499968  0.616130  1
  O  O298  1  0.241746  0.376712  0.647168  1
  O  O299  1  0.376816  0.241646  0.647167  1
  O  O300  1  0.876809  0.258293  0.679987  1
  O  O301  1  0.741747  0.123222  0.679987  1
  O  O302  1  0.949773  0.242118  0.714608  1
  O  O303  1  0.757917  0.050256  0.714607  1
  O  O304  1  0.826397  0.314684  0.714048  1
  O  O305  1  0.685351  0.173626  0.714049  1
  O  O306  1  0.822725  0.177309  0.708457  1
  O  O307  1  0.256537  0.451613  0.680907  1
  O  O308  1  0.451718  0.256429  0.680904  1
  O  O309  1  0.951716  0.243502  0.646250  1
  O  O310  1  0.756537  0.048319  0.646249  1
  O  O311  1  0.186254  0.325375  0.681171  1
  O  O312  1  0.325471  0.186148  0.681169  1
  O  O313  1  0.825470  0.313787  0.645983  1
  O  O314  1  0.686254  0.174558  0.645983  1
  O  O315  1  0.324297  0.324192  0.675240  1
  O  O316  1  0.824296  0.175741  0.651914  1
  O  O317  1  0.088773  0.253038  0.704625  1
  O  O318  1  0.253120  0.088673  0.704624  1
  O  O319  1  0.500046  0.499965  0.675851  1
  O  O320  1  0.034817  0.134552  0.715629  1
  O  O321  1  0.134625  0.034733  0.715626  1
  O  O322  1  0.688109  0.311921  0.644849  1
  O  O323  1  0.188108  0.188014  0.682304  1
  O  O324  1  0.752397  0.418342  0.663405  1
  O  O325  1  0.581696  0.247620  0.663404  1
  O  O326  1  0.081694  0.252314  0.663750  1
  O  O327  1  0.252397  0.081594  0.663748  1
  O  O328  1  0.636487  0.461934  0.679938  1
  O  O329  1  0.538075  0.363520  0.679937  1
  O  O330  1  0.038073  0.136412  0.647217  1
  O  O331  1  0.136487  0.038000  0.647216  1
  O  O332  1  0.746032  0.427501  0.704054  1
  O  O333  1  0.572528  0.253979  0.704054  1
  O  O334  1  0.565258  0.434749  0.645901  1
  O  O335  1  0.065259  0.065184  0.681254  1
  O  O336  1  0.690719  0.309303  0.717011  1
  O  O337  1  0.123251  0.741630  0.484625  1
  O  O338  1  0.258299  0.876712  0.484626  1
  O  O339  1  0.758299  0.623228  0.517445  1
  O  O340  1  0.623247  0.758309  0.517446  1
  O  O341  1  0.050281  0.757806  0.450005  1
  O  O342  1  0.242133  0.949677  0.450004  1
  O  O343  1  0.173662  0.685247  0.450563  1
  O  O344  1  0.314701  0.826309  0.450565  1
  O  O345  1  0.177326  0.822622  0.456155  1
  O  O346  1  0.048337  0.756422  0.518361  1
  O  O347  1  0.243512  0.951611  0.518364  1
  O  O348  1  0.743513  0.548333  0.483704  1
  O  O349  1  0.548338  0.743519  0.483709  1
  O  O350  1  0.174585  0.686137  0.518629  1
  O  O351  1  0.313796  0.825374  0.518630  1
  O  O352  1  0.813796  0.674569  0.483441  1
  O  O353  1  0.674585  0.813805  0.483443  1
  O  O354  1  0.175754  0.824184  0.512699  1
  O  O355  1  0.675755  0.675758  0.489372  1
  O  O356  1  0.911278  0.746903  0.459986  1
  O  O357  1  0.746939  0.911277  0.459988  1
  O  O358  1  0.965252  0.865383  0.448984  1
  O  O359  1  0.865441  0.965197  0.448983  1
  O  O360  1  0.811946  0.811931  0.482307  1
  O  O361  1  0.311946  0.688012  0.519763  1
  O  O362  1  0.918358  0.747624  0.500861  1
  O  O363  1  0.747666  0.918356  0.500864  1
  O  O364  1  0.247665  0.581585  0.501208  1
  O  O365  1  0.418362  0.752319  0.501210  1
  O  O366  1  0.961990  0.863522  0.517393  1
  O  O367  1  0.863580  0.961938  0.517396  1
  O  O368  1  0.363580  0.538007  0.484674  1
  O  O369  1  0.461990  0.636421  0.484677  1
  O  O370  1  0.254030  0.572434  0.460558  1
  O  O371  1  0.427526  0.745961  0.460561  1
  O  O372  1  0.934802  0.934755  0.483357  1
  O  O373  1  0.434804  0.565190  0.518713  1
  O  O374  1  0.381707  0.760455  0.419767  1
  O  O375  1  0.309339  0.690632  0.447602  1
  O  O376  1  0.239533  0.618262  0.419764  1
  O  O377  1  0.954538  0.769097  0.419762  1
  O  O378  1  0.769160  0.954500  0.419763  1
  O  O379  1  -0.000000  0.000000  0.513308  1
  O  O380  1  0.000000  0.000000  0.453587  1
  O  O381  1  0.742177  0.550260  0.612544  1
  O  O382  1  0.550315  0.742118  0.612545  1
  O  O383  1  0.742137  0.550267  0.552067  1
  O  O384  1  0.550282  0.742135  0.552066  1
  O  O385  1  0.814740  0.673635  0.613109  1
  O  O386  1  0.673685  0.814685  0.613110  1
  O  O387  1  0.814704  0.673635  0.551505  1
  O  O388  1  0.673662  0.814696  0.551507  1
  O  O389  1  0.677364  0.677308  0.618697  1
  O  O390  1  0.677327  0.677320  0.545916  1
  O  O391  1  0.246968  0.588676  0.622533  1
  O  O392  1  0.411321  0.753039  0.622536  1
  O  O393  1  0.246942  0.588666  0.542083  1
  O  O394  1  0.411278  0.753038  0.542086  1
  O  O395  1  0.269160  0.545437  0.582308  1
  O  O396  1  0.454538  0.730842  0.582309  1
  O  O397  1  0.365461  0.534744  0.611525  1
  O  O398  1  0.465273  0.634555  0.611528  1
  O  O399  1  0.365443  0.534743  0.553087  1
  O  O400  1  0.465253  0.634558  0.553087  1
  O  O401  1  0.927528  0.753987  0.541511  1
  O  O402  1  0.754032  0.927511  0.541513  1
  O  O403  1  0.927562  0.754000  0.623096  1
  O  O404  1  0.754049  0.927507  0.623100  1
  O  O405  1  0.809338  0.809311  0.554469  1
  O  O406  1  0.809359  0.809312  0.610142  1
  O  O407  1  0.881707  0.739487  0.582304  1
  O  O408  1  0.739531  0.881676  0.582307  1
  O  O409  1  0.758338  0.623212  0.647167  1
  O  O410  1  0.623266  0.758280  0.647169  1
  O  O411  1  0.123265  0.741655  0.679987  1
  O  O412  1  0.258333  0.876721  0.679987  1
  O  O413  1  0.050317  0.757817  0.714612  1
  O  O414  1  0.242178  0.949676  0.714610  1
  O  O415  1  0.173687  0.685246  0.714045  1
  O  O416  1  0.314741  0.826301  0.714045  1
  O  O417  1  0.177365  0.822625  0.708459  1
  O  O418  1  0.743554  0.548317  0.680907  1
  O  O419  1  0.548376  0.743494  0.680909  1
  O  O420  1  0.048376  0.756437  0.646246  1
  O  O421  1  0.243554  0.951617  0.646247  1
  O  O422  1  0.813841  0.674557  0.681168  1
  O  O423  1  0.674618  0.813784  0.681169  1
  O  O424  1  0.174618  0.686146  0.645987  1
  O  O425  1  0.313840  0.825377  0.645987  1
  O  O426  1  0.675797  0.675739  0.675241  1
  O  O427  1  0.175795  0.824194  0.651913  1
  O  O428  1  0.911323  0.746897  0.704621  1
  O  O429  1  0.746969  0.911256  0.704624  1
  O  O430  1  0.000000  0.000000  0.651303  1
  O  O431  1  0.965276  0.865383  0.715627  1
  O  O432  1  0.865462  0.965191  0.715630  1
  O  O433  1  0.311980  0.688015  0.644854  1
  O  O434  1  0.811981  0.811918  0.682302  1
  O  O435  1  0.247694  0.581590  0.663407  1
  O  O436  1  0.418395  0.752313  0.663411  1
  O  O437  1  0.918396  0.747620  0.663745  1
  O  O438  1  0.747692  0.918343  0.663749  1
  O  O439  1  0.363605  0.537994  0.679939  1
  O  O440  1  0.462017  0.636407  0.679939  1
  O  O441  1  0.962019  0.863526  0.647218  1
  O  O442  1  0.863602  0.961935  0.647215  1
  O  O443  1  0.254058  0.572426  0.704056  1
  O  O444  1  0.427564  0.745936  0.704060  1
  O  O445  1  0.434826  0.565182  0.645901  1
  O  O446  1  0.934824  0.934756  0.681254  1
  O  O447  1  0.309361  0.690625  0.717014  1
  O  O448  1  0.000000  0.000000  0.711024  1
  O  O449  1  0.045524  0.230840  0.744849  1
  O  O450  1  0.618354  0.239487  0.744848  1
  O  O451  1  0.230901  0.045440  0.744849  1
  O  O452  1  0.760529  0.381675  0.744847  1
  O  O453  1  0.381707  0.760455  0.744851  1
  O  O454  1  0.239533  0.618262  0.744849  1
  O  O455  1  0.954538  0.769097  0.744847  1
  O  O456  1  0.769160  0.954500  0.744848  1
  Si  Si457  1  0.559553  0.440440  0.168599  1
  Si  Si458  1  0.871048  0.248234  0.134728  1
  Si  Si459  1  0.751805  0.128981  0.134728  1
  Si  Si460  1  0.871411  0.247750  0.184389  1
  Si  Si461  1  0.752290  0.128614  0.184389  1
  Si  Si462  1  0.252289  0.371330  0.167512  1
  Si  Si463  1  0.371409  0.252194  0.167510  1
  Si  Si464  1  0.030060  0.218637  0.119292  1
  Si  Si465  1  0.218671  0.029989  0.119290  1
  Si  Si466  1  0.135579  0.256085  0.156175  1
  Si  Si467  1  0.256149  0.135496  0.156175  1
  Si  Si468  1  0.756151  0.364448  0.195725  1
  Si  Si469  1  0.635579  0.243860  0.195724  1
  Si  Si470  1  0.034680  0.221676  0.194876  1
  Si  Si471  1  0.221717  0.034606  0.194877  1
  Si  Si472  1  0.721716  0.465338  0.157023  1
  Si  Si473  1  0.534678  0.278268  0.157024  1
  Si  Si474  1  0.757515  0.362163  0.119338  1
  Si  Si475  1  0.637865  0.242504  0.119338  1
  Si  Si476  1  0.059358  0.059314  0.133269  1
  Si  Si477  1  0.059552  0.059502  0.183303  1
  Si  Si478  1  0.251815  0.370965  0.297271  1
  Si  Si479  1  0.371063  0.251717  0.297270  1
  Si  Si480  1  0.251805  0.370961  0.217173  1
  Si  Si481  1  0.371049  0.251708  0.217171  1
  Si  Si482  1  0.718696  0.469950  0.281832  1
  Si  Si483  1  0.530075  0.281309  0.281832  1
  Si  Si484  1  0.718676  0.469952  0.232610  1
  Si  Si485  1  0.530061  0.281306  0.232609  1
  Si  Si486  1  0.137866  0.257438  0.232562  1
  Si  Si487  1  0.257517  0.137780  0.232562  1
  Si  Si488  1  0.137876  0.257443  0.281881  1
  Si  Si489  1  0.257530  0.137788  0.281880  1
  Si  Si490  1  0.559383  0.440628  0.295812  1
  Si  Si491  1  0.559361  0.440629  0.218632  1
  Si  Si492  1  0.637878  0.242490  0.395104  1
  Si  Si493  1  0.059579  0.059501  0.331139  1
  Si  Si494  1  0.559579  0.440431  0.345846  1
  Si  Si495  1  0.059384  0.059308  0.381173  1
  Si  Si496  1  0.871063  0.248220  0.379714  1
  Si  Si497  1  0.751818  0.128969  0.379715  1
  Si  Si498  1  0.252304  0.371326  0.346932  1
  Si  Si499  1  0.371430  0.252196  0.346931  1
  Si  Si500  1  0.871428  0.247738  0.330053  1
  Si  Si501  1  0.752303  0.128607  0.330053  1
  Si  Si502  1  0.030075  0.218628  0.395153  1
  Si  Si503  1  0.218697  0.029986  0.395152  1
  Si  Si504  1  0.756172  0.364437  0.318715  1
  Si  Si505  1  0.635598  0.243853  0.318713  1
  Si  Si506  1  0.135597  0.256082  0.358271  1
  Si  Si507  1  0.256172  0.135499  0.358269  1
  Si  Si508  1  0.721746  0.465325  0.357418  1
  Si  Si509  1  0.534703  0.278257  0.357416  1
  Si  Si510  1  0.034701  0.221675  0.319569  1
  Si  Si511  1  0.221746  0.034610  0.319566  1
  Si  Si512  1  0.757529  0.362148  0.395104  1
  Si  Si513  1  0.440486  0.559509  0.168599  1
  Si  Si514  1  0.128994  0.751708  0.134728  1
  Si  Si515  1  0.248231  0.870966  0.134729  1
  Si  Si516  1  0.128626  0.752185  0.184389  1
  Si  Si517  1  0.247745  0.871323  0.184390  1
  Si  Si518  1  0.747745  0.628619  0.167511  1
  Si  Si519  1  0.628626  0.747757  0.167512  1
  Si  Si520  1  0.969982  0.781306  0.119290  1
  Si  Si521  1  0.781369  0.969958  0.119290  1
  Si  Si522  1  0.864454  0.743861  0.156171  1
  Si  Si523  1  0.743886  0.864451  0.156173  1
  Si  Si524  1  0.243886  0.635492  0.195729  1
  Si  Si525  1  0.364455  0.756082  0.195730  1
  Si  Si526  1  0.965354  0.778259  0.194873  1
  Si  Si527  1  0.778322  0.965334  0.194877  1
  Si  Si528  1  0.278321  0.534610  0.157025  1
  Si  Si529  1  0.465355  0.721685  0.157028  1
  Si  Si530  1  0.242532  0.637785  0.119338  1
  Si  Si531  1  0.362177  0.757448  0.119341  1
  Si  Si532  1  0.940682  0.940628  0.133269  1
  Si  Si533  1  0.940486  0.940435  0.183302  1
  Si  Si534  1  0.440683  0.559314  0.218632  1
  Si  Si535  1  0.748273  0.628969  0.297271  1
  Si  Si536  1  0.629023  0.748215  0.297272  1
  Si  Si537  1  0.748233  0.628978  0.217172  1
  Si  Si538  1  0.628993  0.748234  0.217173  1
  Si  Si539  1  0.281387  0.529989  0.281834  1
  Si  Si540  1  0.470007  0.718631  0.281835  1
  Si  Si541  1  0.281371  0.529983  0.232612  1
  Si  Si542  1  0.469982  0.718635  0.232612  1
  Si  Si543  1  0.862178  0.742496  0.232561  1
  Si  Si544  1  0.742532  0.862158  0.232563  1
  Si  Si545  1  0.862202  0.742501  0.281880  1
  Si  Si546  1  0.742547  0.862154  0.281881  1
  Si  Si547  1  0.440702  0.559310  0.295812  1
  Si  Si548  1  0.440512  0.559498  0.345846  1
  Si  Si549  1  0.940510  0.940436  0.331140  1
  Si  Si550  1  0.940703  0.940628  0.381174  1
  Si  Si551  1  0.362203  0.757437  0.395107  1
  Si  Si552  1  0.129023  0.751717  0.379715  1
  Si  Si553  1  0.248272  0.870965  0.379715  1
  Si  Si554  1  0.747789  0.628604  0.346932  1
  Si  Si555  1  0.628660  0.747732  0.346933  1
  Si  Si556  1  0.128659  0.752200  0.330053  1
  Si  Si557  1  0.247786  0.871331  0.330054  1
  Si  Si558  1  0.970009  0.781306  0.395152  1
  Si  Si559  1  0.781388  0.969946  0.395152  1
  Si  Si560  1  0.243917  0.635499  0.318718  1
  Si  Si561  1  0.364494  0.756081  0.318720  1
  Si  Si562  1  0.864496  0.743853  0.358267  1
  Si  Si563  1  0.743917  0.864433  0.358269  1
  Si  Si564  1  0.278347  0.534605  0.357419  1
  Si  Si565  1  0.465390  0.721668  0.357422  1
  Si  Si566  1  0.965390  0.778265  0.319565  1
  Si  Si567  1  0.778343  0.965326  0.319567  1
  Si  Si568  1  0.242551  0.637781  0.395105  1
  Si  Si569  1  0.559553  0.440440  0.493683  1
  Si  Si570  1  0.871048  0.248234  0.459813  1
  Si  Si571  1  0.751805  0.128981  0.459813  1
  Si  Si572  1  0.871411  0.247750  0.509474  1
  Si  Si573  1  0.752290  0.128614  0.509474  1
  Si  Si574  1  0.252289  0.371330  0.492596  1
  Si  Si575  1  0.371409  0.252194  0.492595  1
  Si  Si576  1  0.030060  0.218637  0.444376  1
  Si  Si577  1  0.218671  0.029989  0.444375  1
  Si  Si578  1  0.135579  0.256085  0.481260  1
  Si  Si579  1  0.256149  0.135496  0.481260  1
  Si  Si580  1  0.756151  0.364448  0.520809  1
  Si  Si581  1  0.635579  0.243860  0.520809  1
  Si  Si582  1  0.034680  0.221676  0.519961  1
  Si  Si583  1  0.221717  0.034606  0.519961  1
  Si  Si584  1  0.721716  0.465338  0.482108  1
  Si  Si585  1  0.534678  0.278268  0.482108  1
  Si  Si586  1  0.757515  0.362163  0.444422  1
  Si  Si587  1  0.637865  0.242504  0.444423  1
  Si  Si588  1  0.059358  0.059314  0.458354  1
  Si  Si589  1  0.059552  0.059502  0.508387  1
  Si  Si590  1  0.251815  0.370965  0.622356  1
  Si  Si591  1  0.371063  0.251717  0.622355  1
  Si  Si592  1  0.251805  0.370961  0.542258  1
  Si  Si593  1  0.371049  0.251708  0.542256  1
  Si  Si594  1  0.718696  0.469950  0.606917  1
  Si  Si595  1  0.530075  0.281309  0.606916  1
  Si  Si596  1  0.718676  0.469952  0.557695  1
  Si  Si597  1  0.530061  0.281306  0.557693  1
  Si  Si598  1  0.137866  0.257438  0.557647  1
  Si  Si599  1  0.257517  0.137780  0.557647  1
  Si  Si600  1  0.137876  0.257443  0.606965  1
  Si  Si601  1  0.257530  0.137788  0.606965  1
  Si  Si602  1  0.559383  0.440628  0.620896  1
  Si  Si603  1  0.559361  0.440629  0.543717  1
  Si  Si604  1  0.637878  0.242490  0.720189  1
  Si  Si605  1  0.059579  0.059501  0.656224  1
  Si  Si606  1  0.559579  0.440431  0.670930  1
  Si  Si607  1  0.059384  0.059308  0.706258  1
  Si  Si608  1  0.871063  0.248220  0.704799  1
  Si  Si609  1  0.751818  0.128969  0.704799  1
  Si  Si610  1  0.252304  0.371326  0.672017  1
  Si  Si611  1  0.371430  0.252196  0.672016  1
  Si  Si612  1  0.871428  0.247738  0.655138  1
  Si  Si613  1  0.752303  0.128607  0.655138  1
  Si  Si614  1  0.030075  0.218628  0.720237  1
  Si  Si615  1  0.218697  0.029986  0.720237  1
  Si  Si616  1  0.756172  0.364437  0.643800  1
  Si  Si617  1  0.635598  0.243853  0.643798  1
  Si  Si618  1  0.135597  0.256082  0.683355  1
  Si  Si619  1  0.256172  0.135499  0.683354  1
  Si  Si620  1  0.721746  0.465325  0.682502  1
  Si  Si621  1  0.534703  0.278257  0.682501  1
  Si  Si622  1  0.034701  0.221675  0.644653  1
  Si  Si623  1  0.221746  0.034610  0.644651  1
  Si  Si624  1  0.757529  0.362148  0.720189  1
  Si  Si625  1  0.440486  0.559509  0.493683  1
  Si  Si626  1  0.128994  0.751708  0.459813  1
  Si  Si627  1  0.248231  0.870966  0.459814  1
  Si  Si628  1  0.128626  0.752185  0.509474  1
  Si  Si629  1  0.247745  0.871323  0.509475  1
  Si  Si630  1  0.747745  0.628619  0.492596  1
  Si  Si631  1  0.628626  0.747757  0.492597  1
  Si  Si632  1  0.969982  0.781306  0.444375  1
  Si  Si633  1  0.781369  0.969958  0.444375  1
  Si  Si634  1  0.864454  0.743861  0.481256  1
  Si  Si635  1  0.743886  0.864451  0.481258  1
  Si  Si636  1  0.243886  0.635492  0.520813  1
  Si  Si637  1  0.364455  0.756082  0.520815  1
  Si  Si638  1  0.965354  0.778259  0.519958  1
  Si  Si639  1  0.778322  0.965334  0.519961  1
  Si  Si640  1  0.278321  0.534610  0.482110  1
  Si  Si641  1  0.465355  0.721685  0.482113  1
  Si  Si642  1  0.242532  0.637785  0.444423  1
  Si  Si643  1  0.362177  0.757448  0.444425  1
  Si  Si644  1  0.940682  0.940628  0.458353  1
  Si  Si645  1  0.940486  0.940435  0.508387  1
  Si  Si646  1  0.440683  0.559314  0.543717  1
  Si  Si647  1  0.748273  0.628969  0.622355  1
  Si  Si648  1  0.629023  0.748215  0.622356  1
  Si  Si649  1  0.748233  0.628978  0.542257  1
  Si  Si650  1  0.628993  0.748234  0.542258  1
  Si  Si651  1  0.281387  0.529989  0.606919  1
  Si  Si652  1  0.470007  0.718631  0.606920  1
  Si  Si653  1  0.281371  0.529983  0.557696  1
  Si  Si654  1  0.469982  0.718635  0.557696  1
  Si  Si655  1  0.862178  0.742496  0.557646  1
  Si  Si656  1  0.742532  0.862158  0.557648  1
  Si  Si657  1  0.862202  0.742501  0.606964  1
  Si  Si658  1  0.742547  0.862154  0.606966  1
  Si  Si659  1  0.440702  0.559310  0.620896  1
  Si  Si660  1  0.440512  0.559498  0.670930  1
  Si  Si661  1  0.940510  0.940436  0.656225  1
  Si  Si662  1  0.940703  0.940628  0.706258  1
  Si  Si663  1  0.362203  0.757437  0.720191  1
  Si  Si664  1  0.129023  0.751717  0.704799  1
  Si  Si665  1  0.248272  0.870965  0.704799  1
  Si  Si666  1  0.747789  0.628604  0.672016  1
  Si  Si667  1  0.628660  0.747732  0.672017  1
  Si  Si668  1  0.128659  0.752200  0.655138  1
  Si  Si669  1  0.247786  0.871331  0.655138  1
  Si  Si670  1  0.970009  0.781306  0.720236  1
  Si  Si671  1  0.781388  0.969946  0.720237  1
  Si  Si672  1  0.243917  0.635499  0.643803  1
  Si  Si673  1  0.364494  0.756081  0.643805  1
  Si  Si674  1  0.864496  0.743853  0.683351  1
  Si  Si675  1  0.743917  0.864433  0.683353  1
  Si  Si676  1  0.278347  0.534605  0.682504  1
  Si  Si677  1  0.465390  0.721668  0.682506  1
  Si  Si678  1  0.965390  0.778265  0.644649  1
  Si  Si679  1  0.778343  0.965326  0.644652  1
  Si  Si680  1  0.242551  0.637781  0.720189  1
  H  H681  1  0.045524  0.230840  0.080238  1
  H  H682  1  0.618354  0.239487  0.080236  1
  H  H683  1  0.230901  0.045440  0.080237  1
  H  H684  1  0.760529  0.381675  0.080236  1
  H  H685  1  0.381707  0.760455  0.080240  1
  H  H686  1  0.239533  0.618262  0.080237  1
  H  H687  1  0.954538  0.769097  0.080235  1
  H  H688  1  0.769160  0.954500  0.080236  1
  H  H689  1  0.045524  0.230840  0.759292  1
  H  H690  1  0.618354  0.239487  0.759290  1
  H  H691  1  0.230901  0.045440  0.759291  1
  H  H692  1  0.760529  0.381675  0.759290  1
  H  H693  1  0.381707  0.760455  0.759294  1
  H  H694  1  0.239533  0.618262  0.759291  1
  H  H695  1  0.954538  0.769097  0.759289  1
  H  H696  1  0.769160  0.954500  0.759290  1
