# generated using pymatgen
data_Si8H2O17
_symmetry_space_group_name_H-M   'P 1'
_cell_length_a   14.04855121
_cell_length_b   9.74334908
_cell_length_c   35.84898472
_cell_angle_alpha   90.00000000
_cell_angle_beta   90.00000000
_cell_angle_gamma   90.00000000
_symmetry_Int_Tables_number   1
_chemical_formula_structural   Si8H2O17
_chemical_formula_sum   'Si32 H8 O68'
_cell_volume   4907.00682458
_cell_formula_units_Z   4
loop_
 _symmetry_equiv_pos_site_id
 _symmetry_equiv_pos_as_xyz
  1  'x, y, z'
loop_
 _atom_site_type_symbol
 _atom_site_label
 _atom_site_symmetry_multiplicity
 _atom_site_fract_x
 _atom_site_fract_y
 _atom_site_fract_z
 _atom_site_occupancy
  O  O1  1  0.170085  0.177787  0.231277  1
  O  O2  1  0.670095  0.677721  0.427230  1
  O  O3  1  0.170094  0.177741  0.489766  1
  O  O4  1  0.670093  0.677758  0.293830  1
  O  O5  1  0.829646  0.177722  0.489768  1
  O  O6  1  0.329661  0.677786  0.293831  1
  O  O7  1  0.829639  0.177757  0.231279  1
  O  O8  1  0.329663  0.677741  0.427231  1
  O  O9  1  0.829663  0.822329  0.489772  1
  O  O10  1  0.329638  0.322395  0.293824  1
  O  O11  1  0.829661  0.822366  0.231289  1
  O  O12  1  0.329646  0.322349  0.427219  1
  O  O13  1  0.170093  0.822394  0.231289  1
  O  O14  1  0.670093  0.322329  0.427221  1
  O  O15  1  0.170095  0.822350  0.489772  1
  O  O16  1  0.670085  0.322365  0.293826  1
  O  O17  1  0.289409  -0.000000  0.211147  1
  O  O18  1  0.789414  0.500028  0.407089  1
  O  O19  1  0.118690  -0.000000  0.443014  1
  O  O20  1  0.618685  0.500060  0.247073  1
  O  O21  1  0.710335  -0.000000  0.509906  1
  O  O22  1  0.210330  0.500104  0.313964  1
  O  O23  1  0.881054  -0.000000  0.278039  1
  O  O24  1  0.381058  0.500030  0.473980  1
  O  O25  1  0.289414  -0.000000  0.509906  1
  O  O26  1  0.789409  0.500064  0.313964  1
  O  O27  1  0.118685  -0.000000  0.278038  1
  O  O28  1  0.618690  0.500011  0.473981  1
  O  O29  1  0.710330  -0.000000  0.211147  1
  O  O30  1  0.210335  0.500055  0.407088  1
  O  O31  1  0.881058  -0.000000  0.443014  1
  O  O32  1  0.381054  0.500092  0.247072  1
  O  O33  1  0.249895  0.187708  0.164579  1
  O  O34  1  0.749887  0.687684  0.360530  1
  O  O35  1  0.000000  0.187665  0.458509  1
  O  O36  1  0.499878  0.687707  0.262569  1
  O  O37  1  0.749835  0.187680  0.164581  1
  O  O38  1  0.249871  0.687711  0.360531  1
  O  O39  1  0.000000  0.187711  0.262534  1
  O  O40  1  0.499879  0.687661  0.458494  1
  O  O41  1  0.749871  0.812400  0.164589  1
  O  O42  1  0.249835  0.312431  0.360521  1
  O  O43  1  -0.000000  0.812450  0.262552  1
  O  O44  1  0.499870  0.312401  0.458476  1
  O  O45  1  0.249887  0.812428  0.164589  1
  O  O46  1  0.749894  0.312404  0.360523  1
  O  O47  1  -0.000000  0.812404  0.458510  1
  O  O48  1  0.499861  0.312447  0.262568  1
  O  O49  1  0.344024  0.250096  0.225660  1
  O  O50  1  0.844036  0.750021  0.421608  1
  O  O51  1  0.155705  0.250052  0.421603  1
  O  O52  1  0.655723  0.750053  0.225666  1
  O  O53  1  0.655701  0.249999  0.495382  1
  O  O54  1  0.155727  0.750118  0.299455  1
  O  O55  1  0.844028  0.250076  0.299441  1
  O  O56  1  0.344032  0.750029  0.495395  1
  O  O57  1  0.344035  0.250028  0.495381  1
  O  O58  1  0.844031  0.750073  0.299453  1
  O  O59  1  0.155694  0.250120  0.299438  1
  O  O60  1  0.655728  0.750002  0.495395  1
  O  O61  1  0.655697  0.250052  0.225663  1
  O  O62  1  0.155724  0.750048  0.421609  1
  O  O63  1  0.844031  0.250023  0.421603  1
  O  O64  1  0.344035  0.750099  0.225668  1
  O  O65  1  0.249895  0.187708  0.556463  1
  O  O66  1  0.749835  0.187680  0.556465  1
  O  O67  1  0.749871  0.812400  0.556472  1
  O  O68  1  0.249887  0.812428  0.556473  1
  Si  Si69  1  0.264146  0.157807  0.207549  1
  Si  Si70  1  0.764149  0.657748  0.403498  1
  Si  Si71  1  0.109515  0.157764  0.452913  1
  Si  Si72  1  0.609521  0.657779  0.256975  1
  Si  Si73  1  0.735588  0.157736  0.513498  1
  Si  Si74  1  0.235605  0.657818  0.317562  1
  Si  Si75  1  0.890218  0.157790  0.268132  1
  Si  Si76  1  0.390233  0.657754  0.464086  1
  Si  Si77  1  0.264151  0.157761  0.513496  1
  Si  Si78  1  0.764149  0.657783  0.317562  1
  Si  Si79  1  0.109508  0.157819  0.268131  1
  Si  Si80  1  0.609524  0.657735  0.464085  1
  Si  Si81  1  0.735580  0.157772  0.207550  1
  Si  Si82  1  0.235608  0.657772  0.403498  1
  Si  Si83  1  0.890226  0.157745  0.452914  1
  Si  Si84  1  0.390231  0.657808  0.256975  1
  Si  Si85  1  0.735607  0.842299  0.513503  1
  Si  Si86  1  0.235581  0.342380  0.317554  1
  Si  Si87  1  0.890230  0.842352  0.268144  1
  Si  Si88  1  0.390225  0.342316  0.464073  1
  Si  Si89  1  0.264147  0.842369  0.207556  1
  Si  Si90  1  0.764153  0.342310  0.403492  1
  Si  Si91  1  0.109523  0.842327  0.452917  1
  Si  Si92  1  0.609508  0.342341  0.256972  1
  Si  Si93  1  0.735607  0.842334  0.207556  1
  Si  Si94  1  0.235586  0.342333  0.403491  1
  Si  Si95  1  0.890233  0.842308  0.452916  1
  Si  Si96  1  0.390219  0.342371  0.256971  1
  Si  Si97  1  0.264150  0.842323  0.513504  1
  Si  Si98  1  0.764144  0.342345  0.317556  1
  Si  Si99  1  0.109522  0.842381  0.268144  1
  Si  Si100  1  0.609514  0.342297  0.464075  1
  H  H101  1  0.249895  0.187708  0.139474  1
  H  H102  1  0.749835  0.187680  0.139476  1
  H  H103  1  0.749871  0.812400  0.139483  1
  H  H104  1  0.249887  0.812428  0.139484  1
  H  H105  1  0.249895  0.187708  0.581568  1
  H  H106  1  0.749835  0.187680  0.581570  1
  H  H107  1  0.749871  0.812400  0.581577  1
  H  H108  1  0.249887  0.812428  0.581578  1
