# generated using pymatgen
data_Si7H2O15
_symmetry_space_group_name_H-M   'P 1'
_cell_length_a   5.08294294
_cell_length_b   28.91631813
_cell_length_c   38.65040750
_cell_angle_alpha   56.28201059
_cell_angle_beta   90.00000000
_cell_angle_gamma   90.00000000
_symmetry_Int_Tables_number   1
_chemical_formula_structural   Si7H2O15
_chemical_formula_sum   'Si28 H8 O60'
_cell_volume   4725.2056404
_cell_formula_units_Z   4
loop_
 _symmetry_equiv_pos_site_id
 _symmetry_equiv_pos_as_xyz
  1  'x, y, z'
loop_
 _atom_site_type_symbol
 _atom_site_label
 _atom_site_symmetry_multiplicity
 _atom_site_fract_x
 _atom_site_fract_y
 _atom_site_fract_z
 _atom_site_occupancy
  O  O1  1  0.987772  0.002331  0.297340  1
  O  O2  1  0.487756  0.502339  0.297333  1
  O  O3  1  0.249192  0.911544  0.325944  1
  O  O4  1  0.748849  0.411520  0.325940  1
  O  O5  1  0.749433  0.908629  0.326805  1
  O  O6  1  0.249085  0.408660  0.326799  1
  O  O7  1  0.993584  0.073233  0.313973  1
  O  O8  1  0.493637  0.573237  0.313970  1
  O  O9  1  0.747387  0.096340  0.248714  1
  O  O10  1  0.247321  0.596336  0.248725  1
  O  O11  1  0.249115  0.093900  0.250221  1
  O  O12  1  0.749056  0.593926  0.250205  1
  O  O13  1  0.990488  0.338187  0.317365  1
  O  O14  1  0.490634  0.838182  0.317372  1
  O  O15  1  0.987701  0.670333  0.304036  1
  O  O16  1  0.487543  0.170330  0.304038  1
  O  O17  1  0.989220  0.662755  0.178813  1
  O  O18  1  0.489082  0.162739  0.178815  1
  O  O19  1  0.989078  0.337181  0.193439  1
  O  O20  1  0.489199  0.837171  0.193445  1
  O  O21  1  0.990816  0.678535  0.236126  1
  O  O22  1  0.490734  0.178517  0.236131  1
  O  O23  1  0.273383  0.744095  0.245628  1
  O  O24  1  0.772629  0.244180  0.245592  1
  O  O25  1  0.769763  0.753239  0.242265  1
  O  O26  1  0.268995  0.253152  0.242281  1
  O  O27  1  0.998806  0.292383  0.275330  1
  O  O28  1  0.499095  0.792385  0.275333  1
  O  O29  1  0.277851  0.254976  0.341585  1
  O  O30  1  0.778149  0.754990  0.341587  1
  O  O31  1  0.987717  0.997584  0.391609  1
  O  O32  1  0.487779  0.497588  0.391603  1
  O  O33  1  0.249077  0.088370  0.363005  1
  O  O34  1  0.749042  0.588395  0.363000  1
  O  O35  1  0.749334  0.091293  0.362137  1
  O  O36  1  0.249282  0.591274  0.362141  1
  O  O37  1  0.993675  0.926685  0.374974  1
  O  O38  1  0.493518  0.426688  0.374969  1
  O  O39  1  0.747429  0.903571  0.440229  1
  O  O40  1  0.247285  0.403593  0.440220  1
  O  O41  1  0.249160  0.906014  0.438728  1
  O  O42  1  0.749022  0.406008  0.438727  1
  O  O43  1  0.990636  0.661737  0.371576  1
  O  O44  1  0.490483  0.161735  0.371575  1
  O  O45  1  0.987511  0.329588  0.384905  1
  O  O46  1  0.487756  0.829590  0.384911  1
  O  O47  1  0.989220  0.662755  0.495500  1
  O  O48  1  0.489082  0.162739  0.495502  1
  O  O49  1  0.989078  0.337181  0.510126  1
  O  O50  1  0.489199  0.837171  0.510131  1
  O  O51  1  0.990727  0.321402  0.452810  1
  O  O52  1  0.490821  0.821386  0.452822  1
  O  O53  1  0.272642  0.255745  0.443346  1
  O  O54  1  0.773503  0.755841  0.443315  1
  O  O55  1  0.769016  0.246764  0.446662  1
  O  O56  1  0.269885  0.746672  0.446681  1
  O  O57  1  0.000000  0.707538  0.413613  1
  O  O58  1  0.498808  0.207537  0.413611  1
  O  O59  1  0.278149  0.744929  0.347359  1
  O  O60  1  0.777848  0.244946  0.347356  1
  Si  Si61  1  0.994873  0.938089  0.330356  1
  Si  Si62  1  0.494636  0.438094  0.330349  1
  Si  Si63  1  0.994238  0.066744  0.276419  1
  Si  Si64  1  0.494235  0.566750  0.276416  1
  Si  Si65  1  0.994274  0.373340  0.337104  1
  Si  Si66  1  0.494523  0.873337  0.337109  1
  Si  Si67  1  0.993935  0.631543  0.227790  1
  Si  Si68  1  0.493932  0.131531  0.227790  1
  Si  Si69  1  0.006621  0.712455  0.256250  1
  Si  Si70  1  0.506146  0.212449  0.256248  1
  Si  Si71  1  0.006434  0.283243  0.239046  1
  Si  Si72  1  0.506914  0.783239  0.239051  1
  Si  Si73  1  0.011066  0.282280  0.319555  1
  Si  Si74  1  0.511333  0.782280  0.319558  1
  Si  Si75  1  0.994751  0.061828  0.358592  1
  Si  Si76  1  0.494790  0.561832  0.358589  1
  Si  Si77  1  0.994285  0.933173  0.412528  1
  Si  Si78  1  0.494180  0.433176  0.412522  1
  Si  Si79  1  0.994438  0.626584  0.351836  1
  Si  Si80  1  0.494388  0.126584  0.351836  1
  Si  Si81  1  0.993878  0.368390  0.461150  1
  Si  Si82  1  0.493982  0.868381  0.461155  1
  Si  Si83  1  0.006150  0.287473  0.432692  1
  Si  Si84  1  0.506697  0.787468  0.432696  1
  Si  Si85  1  0.006987  0.716685  0.449894  1
  Si  Si86  1  0.506441  0.216678  0.449895  1
  Si  Si87  1  0.011334  0.717641  0.369388  1
  Si  Si88  1  0.511065  0.217641  0.369385  1
  H  H89  1  0.989220  0.662755  0.155528  1
  H  H90  1  0.489082  0.162739  0.155530  1
  H  H91  1  0.989078  0.337181  0.170153  1
  H  H92  1  0.489199  0.837171  0.170159  1
  H  H93  1  0.989220  0.662755  0.518786  1
  H  H94  1  0.489082  0.162739  0.518788  1
  H  H95  1  0.989078  0.337181  0.533411  1
  H  H96  1  0.489199  0.837171  0.533417  1
