# generated using pymatgen
data_Si51(HO26)4
_symmetry_space_group_name_H-M   'P 1'
_cell_length_a   13.22666398
_cell_length_b   15.58156643
_cell_length_c   65.08319002
_cell_angle_alpha   90.00000000
_cell_angle_beta   120.00000000
_cell_angle_gamma   90.00000000
_symmetry_Int_Tables_number   1
_chemical_formula_structural   Si51(HO26)4
_chemical_formula_sum   'Si102 H8 O208'
_cell_volume   11616.1149036
_cell_formula_units_Z   2
loop_
 _symmetry_equiv_pos_site_id
 _symmetry_equiv_pos_as_xyz
  1  'x, y, z'
loop_
 _atom_site_type_symbol
 _atom_site_label
 _atom_site_symmetry_multiplicity
 _atom_site_fract_x
 _atom_site_fract_y
 _atom_site_fract_z
 _atom_site_occupancy
  O  O1  1  0.617494  0.051817  0.102538  1
  O  O2  1  0.617494  0.448288  0.102538  1
  O  O3  1  0.774100  0.014450  0.148247  1
  O  O4  1  0.430879  0.013951  0.152402  1
  O  O5  1  0.362331  0.051835  0.184168  1
  O  O6  1  0.860669  0.034190  0.192812  1
  O  O7  1  0.563727  0.033665  0.134866  1
  O  O8  1  0.575223  0.034215  0.195128  1
  O  O9  1  0.679530  0.164233  0.135973  1
  O  O10  1  0.464381  0.164223  0.171426  1
  O  O11  1  0.657030  0.250053  0.194618  1
  O  O12  1  0.775594  0.250053  0.176057  1
  O  O13  1  0.565711  0.250053  0.151959  1
  O  O14  1  0.205064  0.514115  0.194078  1
  O  O15  1  0.774100  0.485657  0.148247  1
  O  O16  1  0.430879  0.486155  0.152402  1
  O  O17  1  0.777301  0.609382  0.174460  1
  O  O18  1  0.556886  0.610127  0.151811  1
  O  O19  1  0.665773  0.609299  0.196587  1
  O  O20  1  0.362330  0.448270  0.184168  1
  O  O21  1  0.980173  0.551569  0.180158  1
  O  O22  1  0.382237  0.552142  0.110556  1
  O  O23  1  0.860668  0.465916  0.192812  1
  O  O24  1  0.563727  0.466442  0.134866  1
  O  O25  1  0.575223  0.465891  0.195128  1
  O  O26  1  0.145353  0.664305  0.200911  1
  O  O27  1  0.679531  0.335873  0.135973  1
  O  O28  1  0.464381  0.335883  0.171426  1
  O  O29  1  0.205064  0.985989  0.194078  1
  O  O30  1  0.777301  0.890725  0.174460  1
  O  O31  1  0.556886  0.889979  0.151811  1
  O  O32  1  0.665774  0.890807  0.196587  1
  O  O33  1  0.980173  0.948537  0.180158  1
  O  O34  1  0.382237  0.947964  0.110556  1
  O  O35  1  0.145352  0.835800  0.200910  1
  O  O36  1  0.669007  0.750053  0.174805  1
  O  O37  1  0.794589  0.014554  0.222149  1
  O  O38  1  0.222481  0.109071  0.241786  1
  O  O39  1  0.442863  0.109834  0.264443  1
  O  O40  1  0.333932  0.109891  0.219656  1
  O  O41  1  0.019583  0.051484  0.236058  1
  O  O42  1  0.617494  0.051817  0.305700  1
  O  O43  1  0.854523  0.164384  0.215232  1
  O  O44  1  0.330763  0.250052  0.242003  1
  O  O45  1  0.225570  0.514667  0.267995  1
  O  O46  1  0.568716  0.514174  0.263830  1
  O  O47  1  0.794589  0.485552  0.222149  1
  O  O48  1  0.222480  0.391033  0.241786  1
  O  O49  1  0.442863  0.390270  0.264443  1
  O  O50  1  0.333932  0.390214  0.219656  1
  O  O51  1  0.019582  0.448621  0.236058  1
  O  O52  1  0.617494  0.448288  0.305700  1
  O  O53  1  0.637208  0.551420  0.232045  1
  O  O54  1  0.139060  0.534381  0.223406  1
  O  O55  1  0.435969  0.533875  0.281392  1
  O  O56  1  0.424288  0.533809  0.221085  1
  O  O57  1  0.320107  0.664370  0.280207  1
  O  O58  1  0.535067  0.664163  0.244668  1
  O  O59  1  0.854522  0.335722  0.215232  1
  O  O60  1  0.225570  0.985437  0.267995  1
  O  O61  1  0.568717  0.985930  0.263830  1
  O  O62  1  0.637208  0.948685  0.232045  1
  O  O63  1  0.139060  0.965723  0.223406  1
  O  O64  1  0.435969  0.966229  0.281392  1
  O  O65  1  0.424289  0.966295  0.221085  1
  O  O66  1  0.320108  0.835734  0.280207  1
  O  O67  1  0.535067  0.835941  0.244668  1
  O  O68  1  0.342622  0.750053  0.221516  1
  O  O69  1  0.224049  0.750053  0.240075  1
  O  O70  1  0.433948  0.750052  0.264173  1
  O  O71  1  0.774100  0.014450  0.351409  1
  O  O72  1  0.430879  0.013951  0.355564  1
  O  O73  1  0.362331  0.051835  0.387330  1
  O  O74  1  0.860669  0.034190  0.395975  1
  O  O75  1  0.563727  0.033665  0.338028  1
  O  O76  1  0.575223  0.034215  0.398290  1
  O  O77  1  0.679530  0.164233  0.339136  1
  O  O78  1  0.464381  0.164223  0.374588  1
  O  O79  1  0.657030  0.250053  0.397781  1
  O  O80  1  0.775594  0.250053  0.379219  1
  O  O81  1  0.565711  0.250053  0.355121  1
  O  O82  1  0.205064  0.514115  0.397241  1
  O  O83  1  0.774100  0.485657  0.351409  1
  O  O84  1  0.430879  0.486155  0.355564  1
  O  O85  1  0.777301  0.609382  0.377622  1
  O  O86  1  0.556886  0.610127  0.354973  1
  O  O87  1  0.665773  0.609299  0.399749  1
  O  O88  1  0.362330  0.448270  0.387330  1
  O  O89  1  0.980173  0.551569  0.383320  1
  O  O90  1  0.382237  0.552142  0.313718  1
  O  O91  1  0.860668  0.465916  0.395975  1
  O  O92  1  0.563727  0.466442  0.338028  1
  O  O93  1  0.575223  0.465891  0.398290  1
  O  O94  1  0.145353  0.664305  0.404073  1
  O  O95  1  0.679531  0.335873  0.339136  1
  O  O96  1  0.464381  0.335883  0.374588  1
  O  O97  1  0.205064  0.985989  0.397240  1
  O  O98  1  0.777301  0.890725  0.377622  1
  O  O99  1  0.556886  0.889979  0.354973  1
  O  O100  1  0.665774  0.890807  0.399749  1
  O  O101  1  0.980173  0.948537  0.383320  1
  O  O102  1  0.382237  0.947964  0.313718  1
  O  O103  1  0.145352  0.835800  0.404073  1
  O  O104  1  0.669007  0.750053  0.377967  1
  O  O105  1  0.794589  0.014554  0.425311  1
  O  O106  1  0.222481  0.109071  0.444948  1
  O  O107  1  0.442863  0.109834  0.467605  1
  O  O108  1  0.333932  0.109891  0.422818  1
  O  O109  1  0.019583  0.051484  0.439220  1
  O  O110  1  0.617494  0.051817  0.508863  1
  O  O111  1  0.854523  0.164384  0.418394  1
  O  O112  1  0.330763  0.250052  0.445165  1
  O  O113  1  0.225570  0.514667  0.471158  1
  O  O114  1  0.568716  0.514174  0.466992  1
  O  O115  1  0.794589  0.485552  0.425311  1
  O  O116  1  0.222480  0.391033  0.444948  1
  O  O117  1  0.442863  0.390270  0.467605  1
  O  O118  1  0.333932  0.390214  0.422818  1
  O  O119  1  0.019582  0.448621  0.439220  1
  O  O120  1  0.617494  0.448288  0.508863  1
  O  O121  1  0.637208  0.551420  0.435207  1
  O  O122  1  0.139060  0.534381  0.426569  1
  O  O123  1  0.435969  0.533875  0.484554  1
  O  O124  1  0.424288  0.533809  0.424247  1
  O  O125  1  0.320107  0.664370  0.483369  1
  O  O126  1  0.535067  0.664163  0.447830  1
  O  O127  1  0.854522  0.335722  0.418394  1
  O  O128  1  0.225570  0.985437  0.471158  1
  O  O129  1  0.568717  0.985930  0.466992  1
  O  O130  1  0.637208  0.948685  0.435207  1
  O  O131  1  0.139060  0.965723  0.426569  1
  O  O132  1  0.435969  0.966229  0.484554  1
  O  O133  1  0.424289  0.966295  0.424247  1
  O  O134  1  0.320108  0.835734  0.483370  1
  O  O135  1  0.535067  0.835941  0.447830  1
  O  O136  1  0.342622  0.750053  0.424678  1
  O  O137  1  0.224049  0.750053  0.443237  1
  O  O138  1  0.433948  0.750052  0.467335  1
  O  O139  1  0.774100  0.014450  0.554571  1
  O  O140  1  0.430879  0.013951  0.558726  1
  O  O141  1  0.362331  0.051835  0.590493  1
  O  O142  1  0.860669  0.034190  0.599137  1
  O  O143  1  0.563727  0.033665  0.541190  1
  O  O144  1  0.575223  0.034215  0.601452  1
  O  O145  1  0.679530  0.164233  0.542298  1
  O  O146  1  0.464381  0.164223  0.577750  1
  O  O147  1  0.657030  0.250053  0.600943  1
  O  O148  1  0.775594  0.250053  0.582381  1
  O  O149  1  0.565711  0.250053  0.558284  1
  O  O150  1  0.205064  0.514115  0.600403  1
  O  O151  1  0.774100  0.485657  0.554571  1
  O  O152  1  0.430879  0.486155  0.558726  1
  O  O153  1  0.777301  0.609382  0.580784  1
  O  O154  1  0.556886  0.610127  0.558135  1
  O  O155  1  0.665773  0.609299  0.602911  1
  O  O156  1  0.362330  0.448270  0.590493  1
  O  O157  1  0.980173  0.551569  0.586483  1
  O  O158  1  0.382237  0.552142  0.516880  1
  O  O159  1  0.860668  0.465916  0.599137  1
  O  O160  1  0.563727  0.466442  0.541191  1
  O  O161  1  0.575223  0.465891  0.601452  1
  O  O162  1  0.145353  0.664305  0.607235  1
  O  O163  1  0.679531  0.335873  0.542298  1
  O  O164  1  0.464381  0.335883  0.577750  1
  O  O165  1  0.205064  0.985989  0.600403  1
  O  O166  1  0.777301  0.890725  0.580784  1
  O  O167  1  0.556886  0.889979  0.558135  1
  O  O168  1  0.665774  0.890807  0.602911  1
  O  O169  1  0.980173  0.948537  0.586483  1
  O  O170  1  0.382237  0.947964  0.516881  1
  O  O171  1  0.145352  0.835800  0.607235  1
  O  O172  1  0.669007  0.750053  0.581129  1
  O  O173  1  0.794589  0.014554  0.628473  1
  O  O174  1  0.222481  0.109071  0.648110  1
  O  O175  1  0.442863  0.109834  0.670767  1
  O  O176  1  0.333932  0.109891  0.625980  1
  O  O177  1  0.019583  0.051484  0.642382  1
  O  O178  1  0.617494  0.051817  0.712025  1
  O  O179  1  0.854523  0.164384  0.621556  1
  O  O180  1  0.330763  0.250052  0.648328  1
  O  O181  1  0.225570  0.514667  0.674320  1
  O  O182  1  0.568716  0.514174  0.670155  1
  O  O183  1  0.794589  0.485552  0.628473  1
  O  O184  1  0.222480  0.391033  0.648110  1
  O  O185  1  0.442863  0.390270  0.670767  1
  O  O186  1  0.333932  0.390214  0.625980  1
  O  O187  1  0.019582  0.448621  0.642382  1
  O  O188  1  0.617494  0.448288  0.712025  1
  O  O189  1  0.637208  0.551420  0.638369  1
  O  O190  1  0.139060  0.534381  0.629731  1
  O  O191  1  0.435969  0.533875  0.687716  1
  O  O192  1  0.424288  0.533809  0.627410  1
  O  O193  1  0.320107  0.664370  0.686531  1
  O  O194  1  0.535067  0.664163  0.650992  1
  O  O195  1  0.854522  0.335722  0.621556  1
  O  O196  1  0.225570  0.985437  0.674320  1
  O  O197  1  0.568717  0.985930  0.670155  1
  O  O198  1  0.637208  0.948685  0.638369  1
  O  O199  1  0.139060  0.965723  0.629731  1
  O  O200  1  0.435969  0.966229  0.687716  1
  O  O201  1  0.424289  0.966295  0.627409  1
  O  O202  1  0.320108  0.835734  0.686532  1
  O  O203  1  0.535067  0.835941  0.650992  1
  O  O204  1  0.342622  0.750053  0.627840  1
  O  O205  1  0.224049  0.750053  0.646400  1
  O  O206  1  0.433948  0.750052  0.670497  1
  O  O207  1  0.382237  0.552142  0.720043  1
  O  O208  1  0.382237  0.947964  0.720043  1
  Si  Si209  1  0.328129  0.031019  0.203674  1
  Si  Si210  1  0.661837  0.065890  0.129778  1
  Si  Si211  1  0.451898  0.065897  0.175121  1
  Si  Si212  1  0.792961  0.250053  0.202350  1
  Si  Si213  1  0.677718  0.250053  0.148433  1
  Si  Si214  1  0.527637  0.250053  0.171844  1
  Si  Si215  1  0.328129  0.469086  0.203674  1
  Si  Si216  1  0.850107  0.530615  0.173264  1
  Si  Si217  1  0.478175  0.531253  0.137008  1
  Si  Si218  1  0.114261  0.566024  0.198346  1
  Si  Si219  1  0.661838  0.434217  0.129778  1
  Si  Si220  1  0.451898  0.434208  0.175121  1
  Si  Si221  1  0.666946  0.649471  0.174345  1
  Si  Si222  1  0.850108  0.969491  0.173264  1
  Si  Si223  1  0.478175  0.968853  0.137008  1
  Si  Si224  1  0.114261  0.934080  0.198346  1
  Si  Si225  1  0.666946  0.850636  0.174345  1
  Si  Si226  1  0.149635  0.030366  0.242970  1
  Si  Si227  1  0.521532  0.030995  0.279245  1
  Si  Si228  1  0.885557  0.066100  0.217855  1
  Si  Si229  1  0.332827  0.149470  0.241969  1
  Si  Si230  1  0.149635  0.469738  0.242970  1
  Si  Si231  1  0.521532  0.469109  0.279245  1
  Si  Si232  1  0.671489  0.530515  0.212554  1
  Si  Si233  1  0.337833  0.566093  0.286472  1
  Si  Si234  1  0.547536  0.565768  0.241051  1
  Si  Si235  1  0.885556  0.434006  0.217854  1
  Si  Si236  1  0.332827  0.350634  0.241969  1
  Si  Si237  1  0.671489  0.969591  0.212554  1
  Si  Si238  1  0.337834  0.934011  0.286472  1
  Si  Si239  1  0.547536  0.934337  0.241051  1
  Si  Si240  1  0.206702  0.750052  0.213780  1
  Si  Si241  1  0.321932  0.750052  0.267699  1
  Si  Si242  1  0.472000  0.750052  0.244282  1
  Si  Si243  1  0.328129  0.031019  0.406836  1
  Si  Si244  1  0.661837  0.065890  0.332940  1
  Si  Si245  1  0.451898  0.065897  0.378283  1
  Si  Si246  1  0.792961  0.250053  0.405512  1
  Si  Si247  1  0.677718  0.250053  0.351595  1
  Si  Si248  1  0.527637  0.250053  0.375006  1
  Si  Si249  1  0.328129  0.469086  0.406836  1
  Si  Si250  1  0.850107  0.530615  0.376426  1
  Si  Si251  1  0.478175  0.531253  0.340170  1
  Si  Si252  1  0.114261  0.566024  0.401509  1
  Si  Si253  1  0.661838  0.434217  0.332940  1
  Si  Si254  1  0.451898  0.434208  0.378283  1
  Si  Si255  1  0.666946  0.649471  0.377507  1
  Si  Si256  1  0.850108  0.969491  0.376426  1
  Si  Si257  1  0.478175  0.968853  0.340170  1
  Si  Si258  1  0.114261  0.934080  0.401508  1
  Si  Si259  1  0.666946  0.850636  0.377507  1
  Si  Si260  1  0.149635  0.030366  0.446133  1
  Si  Si261  1  0.521532  0.030995  0.482407  1
  Si  Si262  1  0.885557  0.066100  0.421017  1
  Si  Si263  1  0.332827  0.149470  0.445131  1
  Si  Si264  1  0.149635  0.469738  0.446133  1
  Si  Si265  1  0.521532  0.469109  0.482407  1
  Si  Si266  1  0.671489  0.530515  0.415717  1
  Si  Si267  1  0.337833  0.566093  0.489634  1
  Si  Si268  1  0.547536  0.565768  0.444213  1
  Si  Si269  1  0.885556  0.434006  0.421017  1
  Si  Si270  1  0.332827  0.350634  0.445131  1
  Si  Si271  1  0.671489  0.969591  0.415717  1
  Si  Si272  1  0.337834  0.934011  0.489634  1
  Si  Si273  1  0.547536  0.934337  0.444213  1
  Si  Si274  1  0.206702  0.750052  0.416942  1
  Si  Si275  1  0.321932  0.750052  0.470862  1
  Si  Si276  1  0.472000  0.750052  0.447444  1
  Si  Si277  1  0.328129  0.031019  0.609998  1
  Si  Si278  1  0.661837  0.065890  0.536103  1
  Si  Si279  1  0.451898  0.065897  0.581445  1
  Si  Si280  1  0.792961  0.250053  0.608674  1
  Si  Si281  1  0.677718  0.250053  0.554757  1
  Si  Si282  1  0.527637  0.250053  0.578168  1
  Si  Si283  1  0.328129  0.469086  0.609998  1
  Si  Si284  1  0.850107  0.530615  0.579588  1
  Si  Si285  1  0.478175  0.531253  0.543333  1
  Si  Si286  1  0.114261  0.566024  0.604671  1
  Si  Si287  1  0.661838  0.434217  0.536103  1
  Si  Si288  1  0.451898  0.434208  0.581445  1
  Si  Si289  1  0.666946  0.649471  0.580669  1
  Si  Si290  1  0.850108  0.969491  0.579588  1
  Si  Si291  1  0.478175  0.968853  0.543333  1
  Si  Si292  1  0.114261  0.934080  0.604671  1
  Si  Si293  1  0.666946  0.850636  0.580669  1
  Si  Si294  1  0.149635  0.030366  0.649295  1
  Si  Si295  1  0.521532  0.030995  0.685569  1
  Si  Si296  1  0.885557  0.066100  0.624179  1
  Si  Si297  1  0.332827  0.149470  0.648293  1
  Si  Si298  1  0.149635  0.469738  0.649295  1
  Si  Si299  1  0.521532  0.469109  0.685569  1
  Si  Si300  1  0.671489  0.530515  0.618879  1
  Si  Si301  1  0.337833  0.566093  0.692796  1
  Si  Si302  1  0.547536  0.565768  0.647376  1
  Si  Si303  1  0.885556  0.434006  0.624179  1
  Si  Si304  1  0.332827  0.350634  0.648293  1
  Si  Si305  1  0.671489  0.969591  0.618879  1
  Si  Si306  1  0.337834  0.934011  0.692796  1
  Si  Si307  1  0.547536  0.934337  0.647376  1
  Si  Si308  1  0.206702  0.750052  0.620105  1
  Si  Si309  1  0.321932  0.750052  0.674024  1
  Si  Si310  1  0.472000  0.750052  0.650607  1
  H  H311  1  0.617494  0.051817  0.088710  1
  H  H312  1  0.617494  0.448288  0.088710  1
  H  H313  1  0.382237  0.552142  0.096727  1
  H  H314  1  0.382237  0.947964  0.096728  1
  H  H315  1  0.617494  0.051817  0.725853  1
  H  H316  1  0.617494  0.448288  0.725853  1
  H  H317  1  0.382237  0.552142  0.733871  1
  H  H318  1  0.382237  0.947964  0.733871  1
