# generated using pymatgen
data_Si36H2O73
_symmetry_space_group_name_H-M   'P 1'
_cell_length_a   19.86970473
_cell_length_b   7.45570403
_cell_length_c   76.39285844
_cell_angle_alpha   90.00000000
_cell_angle_beta   90.00000000
_cell_angle_gamma   90.00000000
_symmetry_Int_Tables_number   1
_chemical_formula_structural   Si36H2O73
_chemical_formula_sum   'Si144 H8 O292'
_cell_volume   11317.0395451
_cell_formula_units_Z   4
loop_
 _symmetry_equiv_pos_site_id
 _symmetry_equiv_pos_as_xyz
  1  'x, y, z'
loop_
 _atom_site_type_symbol
 _atom_site_label
 _atom_site_symmetry_multiplicity
 _atom_site_fract_x
 _atom_site_fract_y
 _atom_site_fract_z
 _atom_site_occupancy
  O  O1  1  0.000000  0.000000  0.146404  1
  O  O2  1  0.499926  -0.000000  0.265374  1
  O  O3  1  0.000000  0.000000  0.246277  1
  O  O4  1  0.499946  -0.000000  0.127304  1
  O  O5  1  -0.000000  0.500049  0.146405  1
  O  O6  1  0.499928  0.500213  0.265377  1
  O  O7  1  -0.000000  0.500226  0.246276  1
  O  O8  1  0.499945  0.500056  0.127303  1
  O  O9  1  0.082414  0.250068  0.154726  1
  O  O10  1  0.582802  0.250187  0.273539  1
  O  O11  1  0.082379  0.250201  0.237952  1
  O  O12  1  0.582827  0.250059  0.119139  1
  O  O13  1  0.917484  0.750060  0.154726  1
  O  O14  1  0.417044  0.750206  0.273540  1
  O  O15  1  0.917463  0.750182  0.237950  1
  O  O16  1  0.417068  0.750073  0.119139  1
  O  O17  1  0.096934  0.922039  0.166548  1
  O  O18  1  0.596357  0.922355  0.285624  1
  O  O19  1  0.096905  0.922161  0.226130  1
  O  O20  1  0.596365  0.922239  0.107055  1
  O  O21  1  0.902944  0.422023  0.166545  1
  O  O22  1  0.403512  0.422377  0.285628  1
  O  O23  1  0.902962  0.422140  0.226128  1
  O  O24  1  0.403509  0.422253  0.107057  1
  O  O25  1  0.902952  0.078216  0.226127  1
  O  O26  1  0.403521  0.077901  0.107053  1
  O  O27  1  0.902950  0.078095  0.166550  1
  O  O28  1  0.403499  0.078023  0.285624  1
  O  O29  1  0.096927  0.578239  0.226131  1
  O  O30  1  0.596357  0.577885  0.107050  1
  O  O31  1  0.096921  0.578109  0.166552  1
  O  O32  1  0.596373  0.578002  0.285622  1
  O  O33  1  0.123495  -0.000000  0.134926  1
  O  O34  1  0.623306  0.995605  0.253935  1
  O  O35  1  0.123467  -0.000000  0.257753  1
  O  O36  1  0.623328  0.995478  0.138744  1
  O  O37  1  0.876403  0.499088  0.134922  1
  O  O38  1  0.376549  0.495599  0.253939  1
  O  O39  1  0.876383  0.499210  0.257751  1
  O  O40  1  0.376571  0.495510  0.138747  1
  O  O41  1  0.876364  0.001159  0.257750  1
  O  O42  1  0.376568  0.004649  0.138744  1
  O  O43  1  0.876396  0.001027  0.134927  1
  O  O44  1  0.376540  0.004788  0.253936  1
  O  O45  1  0.123476  0.501163  0.257756  1
  O  O46  1  0.623324  0.504645  0.138741  1
  O  O47  1  0.123491  0.501065  0.134928  1
  O  O48  1  0.623301  0.504771  0.253932  1
  O  O49  1  0.305030  0.250068  0.153047  1
  O  O50  1  0.809128  0.250211  0.272643  1
  O  O51  1  0.305006  0.250220  0.239632  1
  O  O52  1  0.809122  0.250047  0.120040  1
  O  O53  1  0.694857  0.750044  0.153048  1
  O  O54  1  0.190742  0.750227  0.272639  1
  O  O55  1  0.694864  0.750200  0.239635  1
  O  O56  1  0.190765  0.750062  0.120039  1
  O  O57  1  0.250351  0.994861  0.136609  1
  O  O58  1  0.749516  0.005459  0.256074  1
  O  O59  1  0.250314  0.994980  0.256059  1
  O  O60  1  0.749552  0.005287  0.136621  1
  O  O61  1  0.749546  0.494812  0.136616  1
  O  O62  1  0.250329  0.505456  0.256066  1
  O  O63  1  0.749521  0.494955  0.256068  1
  O  O64  1  0.250352  0.505298  0.136614  1
  O  O65  1  0.304113  0.920563  0.165768  1
  O  O66  1  0.803897  0.920021  0.284907  1
  O  O67  1  0.304117  0.920715  0.226906  1
  O  O68  1  0.803879  0.919863  0.107779  1
  O  O69  1  0.695753  0.420540  0.165770  1
  O  O70  1  0.195987  0.420047  0.284905  1
  O  O71  1  0.695755  0.420692  0.226908  1
  O  O72  1  0.195992  0.419884  0.107778  1
  O  O73  1  0.695764  0.079700  0.226912  1
  O  O74  1  0.195983  0.080249  0.107773  1
  O  O75  1  0.695753  0.079547  0.165774  1
  O  O76  1  0.195988  0.080411  0.284900  1
  O  O77  1  0.304122  0.579727  0.226911  1
  O  O78  1  0.803878  0.580227  0.107776  1
  O  O79  1  0.304118  0.579572  0.165773  1
  O  O80  1  0.803891  0.580393  0.284902  1
  O  O81  1  0.394255  0.250136  0.077236  1
  O  O82  1  0.893646  0.250154  0.196338  1
  O  O83  1  0.605618  0.750131  0.077232  1
  O  O84  1  0.106229  0.750157  0.196341  1
  O  O85  1  0.299043  0.250057  0.099147  1
  O  O86  1  0.798347  0.250203  0.218194  1
  O  O87  1  0.299039  0.250226  0.293536  1
  O  O88  1  0.798340  0.250056  0.174487  1
  O  O89  1  0.700827  0.750058  0.099145  1
  O  O90  1  0.201528  0.750215  0.218195  1
  O  O91  1  0.700836  0.750206  0.293533  1
  O  O92  1  0.201531  0.750062  0.174487  1
  O  O93  1  0.203933  0.250142  0.077235  1
  O  O94  1  0.703095  0.250118  0.196341  1
  O  O95  1  0.795942  0.750105  0.077236  1
  O  O96  1  0.296776  0.750146  0.196340  1
  O  O97  1  0.000000  0.000000  0.384614  1
  O  O98  1  0.499926  -0.000000  0.503584  1
  O  O99  1  -0.000000  -0.000000  0.484487  1
  O  O100  1  0.499946  -0.000000  0.365514  1
  O  O101  1  -0.000000  0.500049  0.384614  1
  O  O102  1  0.499928  0.500213  0.503586  1
  O  O103  1  -0.000000  0.500226  0.484486  1
  O  O104  1  0.499945  0.500056  0.365513  1
  O  O105  1  0.082414  0.250068  0.392936  1
  O  O106  1  0.582802  0.250187  0.511748  1
  O  O107  1  0.082379  0.250201  0.476161  1
  O  O108  1  0.582827  0.250059  0.357348  1
  O  O109  1  0.917484  0.750060  0.392935  1
  O  O110  1  0.417044  0.750206  0.511749  1
  O  O111  1  0.917463  0.750182  0.476160  1
  O  O112  1  0.417068  0.750073  0.357349  1
  O  O113  1  0.096934  0.922039  0.404758  1
  O  O114  1  0.596357  0.922355  0.523834  1
  O  O115  1  0.096905  0.922161  0.464339  1
  O  O116  1  0.596365  0.922239  0.345264  1
  O  O117  1  0.902944  0.422023  0.404755  1
  O  O118  1  0.403512  0.422377  0.523838  1
  O  O119  1  0.902962  0.422140  0.464338  1
  O  O120  1  0.403509  0.422253  0.345267  1
  O  O121  1  0.902952  0.078216  0.464336  1
  O  O122  1  0.403521  0.077901  0.345263  1
  O  O123  1  0.902950  0.078095  0.404760  1
  O  O124  1  0.403499  0.078023  0.523833  1
  O  O125  1  0.096927  0.578239  0.464341  1
  O  O126  1  0.596357  0.577885  0.345260  1
  O  O127  1  0.096921  0.578109  0.404762  1
  O  O128  1  0.596373  0.578002  0.523832  1
  O  O129  1  0.123495  -0.000000  0.373135  1
  O  O130  1  0.623306  0.995605  0.492145  1
  O  O131  1  0.123467  -0.000000  0.495963  1
  O  O132  1  0.623328  0.995478  0.376954  1
  O  O133  1  0.876403  0.499088  0.373132  1
  O  O134  1  0.376549  0.495599  0.492148  1
  O  O135  1  0.876383  0.499210  0.495961  1
  O  O136  1  0.376571  0.495510  0.376957  1
  O  O137  1  0.876364  0.001159  0.495959  1
  O  O138  1  0.376568  0.004649  0.376953  1
  O  O139  1  0.876396  0.001027  0.373136  1
  O  O140  1  0.376540  0.004788  0.492145  1
  O  O141  1  0.123476  0.501163  0.495966  1
  O  O142  1  0.623324  0.504645  0.376951  1
  O  O143  1  0.123491  0.501065  0.373138  1
  O  O144  1  0.623301  0.504771  0.492141  1
  O  O145  1  0.305030  0.250068  0.391257  1
  O  O146  1  0.809128  0.250211  0.510852  1
  O  O147  1  0.305006  0.250220  0.477842  1
  O  O148  1  0.809122  0.250047  0.358250  1
  O  O149  1  0.694857  0.750044  0.391257  1
  O  O150  1  0.190742  0.750227  0.510849  1
  O  O151  1  0.694864  0.750200  0.477845  1
  O  O152  1  0.190765  0.750062  0.358249  1
  O  O153  1  0.250351  0.994861  0.374818  1
  O  O154  1  0.749516  0.005459  0.494284  1
  O  O155  1  0.250314  0.994980  0.494269  1
  O  O156  1  0.749552  0.005287  0.374830  1
  O  O157  1  0.749546  0.494812  0.374826  1
  O  O158  1  0.250329  0.505456  0.494276  1
  O  O159  1  0.749521  0.494955  0.494277  1
  O  O160  1  0.250352  0.505298  0.374824  1
  O  O161  1  0.304113  0.920563  0.403978  1
  O  O162  1  0.803897  0.920021  0.523117  1
  O  O163  1  0.304117  0.920715  0.465116  1
  O  O164  1  0.803879  0.919863  0.345989  1
  O  O165  1  0.695753  0.420540  0.403980  1
  O  O166  1  0.195987  0.420047  0.523115  1
  O  O167  1  0.695755  0.420692  0.465118  1
  O  O168  1  0.195992  0.419884  0.345988  1
  O  O169  1  0.695764  0.079700  0.465122  1
  O  O170  1  0.195983  0.080249  0.345983  1
  O  O171  1  0.695753  0.079547  0.403984  1
  O  O172  1  0.195988  0.080411  0.523110  1
  O  O173  1  0.304122  0.579727  0.465120  1
  O  O174  1  0.803878  0.580227  0.345986  1
  O  O175  1  0.304118  0.579572  0.403983  1
  O  O176  1  0.803891  0.580393  0.523112  1
  O  O177  1  0.394255  0.250136  0.315446  1
  O  O178  1  0.893646  0.250154  0.434548  1
  O  O179  1  0.605618  0.750131  0.315442  1
  O  O180  1  0.106229  0.750157  0.434551  1
  O  O181  1  0.299043  0.250057  0.337357  1
  O  O182  1  0.798347  0.250203  0.456403  1
  O  O183  1  0.299039  0.250226  0.531745  1
  O  O184  1  0.798340  0.250056  0.412697  1
  O  O185  1  0.700827  0.750058  0.337355  1
  O  O186  1  0.201528  0.750215  0.456404  1
  O  O187  1  0.700836  0.750206  0.531743  1
  O  O188  1  0.201531  0.750062  0.412697  1
  O  O189  1  0.203933  0.250142  0.315445  1
  O  O190  1  0.703095  0.250118  0.434551  1
  O  O191  1  0.795942  0.750105  0.315446  1
  O  O192  1  0.296776  0.750146  0.434549  1
  O  O193  1  -0.000000  -0.000000  0.622824  1
  O  O194  1  0.499926  -0.000000  0.741793  1
  O  O195  1  -0.000000  0.000000  0.722696  1
  O  O196  1  0.499946  -0.000000  0.603723  1
  O  O197  1  -0.000000  0.500049  0.622824  1
  O  O198  1  0.499928  0.500213  0.741796  1
  O  O199  1  -0.000000  0.500226  0.722695  1
  O  O200  1  0.499945  0.500056  0.603723  1
  O  O201  1  0.082414  0.250068  0.631146  1
  O  O202  1  0.582802  0.250187  0.749958  1
  O  O203  1  0.082379  0.250201  0.714371  1
  O  O204  1  0.582827  0.250059  0.595558  1
  O  O205  1  0.917484  0.750060  0.631145  1
  O  O206  1  0.417044  0.750206  0.749959  1
  O  O207  1  0.917463  0.750182  0.714370  1
  O  O208  1  0.417068  0.750073  0.595558  1
  O  O209  1  0.096934  0.922039  0.642967  1
  O  O210  1  0.596357  0.922355  0.762044  1
  O  O211  1  0.096905  0.922161  0.702549  1
  O  O212  1  0.596365  0.922239  0.583474  1
  O  O213  1  0.902944  0.422023  0.642965  1
  O  O214  1  0.403512  0.422377  0.762048  1
  O  O215  1  0.902962  0.422140  0.702548  1
  O  O216  1  0.403509  0.422253  0.583476  1
  O  O217  1  0.902952  0.078216  0.702546  1
  O  O218  1  0.403521  0.077901  0.583473  1
  O  O219  1  0.902950  0.078095  0.642970  1
  O  O220  1  0.403499  0.078023  0.762043  1
  O  O221  1  0.096927  0.578239  0.702551  1
  O  O222  1  0.596357  0.577885  0.583470  1
  O  O223  1  0.096921  0.578109  0.642972  1
  O  O224  1  0.596373  0.578002  0.762041  1
  O  O225  1  0.123495  -0.000000  0.611345  1
  O  O226  1  0.623306  0.995605  0.730354  1
  O  O227  1  0.123467  -0.000000  0.734172  1
  O  O228  1  0.623328  0.995478  0.615163  1
  O  O229  1  0.876403  0.499088  0.611342  1
  O  O230  1  0.376549  0.495599  0.730358  1
  O  O231  1  0.876383  0.499210  0.734171  1
  O  O232  1  0.376571  0.495510  0.615167  1
  O  O233  1  0.876364  0.001159  0.734169  1
  O  O234  1  0.376568  0.004649  0.615163  1
  O  O235  1  0.876396  0.001027  0.611346  1
  O  O236  1  0.376540  0.004788  0.730355  1
  O  O237  1  0.123476  0.501163  0.734175  1
  O  O238  1  0.623324  0.504645  0.615160  1
  O  O239  1  0.123491  0.501065  0.611347  1
  O  O240  1  0.623301  0.504771  0.730351  1
  O  O241  1  0.305030  0.250068  0.629466  1
  O  O242  1  0.809128  0.250211  0.749062  1
  O  O243  1  0.305006  0.250220  0.716051  1
  O  O244  1  0.809122  0.250047  0.596459  1
  O  O245  1  0.694857  0.750044  0.629467  1
  O  O246  1  0.190742  0.750227  0.749059  1
  O  O247  1  0.694864  0.750200  0.716055  1
  O  O248  1  0.190765  0.750062  0.596459  1
  O  O249  1  0.250351  0.994861  0.613028  1
  O  O250  1  0.749516  0.005459  0.732494  1
  O  O251  1  0.250314  0.994980  0.732479  1
  O  O252  1  0.749552  0.005287  0.613040  1
  O  O253  1  0.749546  0.494812  0.613035  1
  O  O254  1  0.250329  0.505456  0.732486  1
  O  O255  1  0.749521  0.494955  0.732487  1
  O  O256  1  0.250352  0.505298  0.613034  1
  O  O257  1  0.304113  0.920563  0.642187  1
  O  O258  1  0.803897  0.920021  0.761326  1
  O  O259  1  0.304117  0.920715  0.703325  1
  O  O260  1  0.803879  0.919863  0.584198  1
  O  O261  1  0.695753  0.420540  0.642190  1
  O  O262  1  0.195987  0.420047  0.761325  1
  O  O263  1  0.695755  0.420692  0.703327  1
  O  O264  1  0.195992  0.419884  0.584198  1
  O  O265  1  0.695764  0.079700  0.703331  1
  O  O266  1  0.195983  0.080249  0.584193  1
  O  O267  1  0.695753  0.079547  0.642193  1
  O  O268  1  0.195988  0.080411  0.761319  1
  O  O269  1  0.304122  0.579727  0.703330  1
  O  O270  1  0.803878  0.580227  0.584196  1
  O  O271  1  0.304118  0.579572  0.642192  1
  O  O272  1  0.803891  0.580393  0.761321  1
  O  O273  1  0.394255  0.250136  0.553655  1
  O  O274  1  0.893646  0.250154  0.672757  1
  O  O275  1  0.605618  0.750131  0.553652  1
  O  O276  1  0.106229  0.750157  0.672760  1
  O  O277  1  0.299043  0.250057  0.575566  1
  O  O278  1  0.798347  0.250203  0.694613  1
  O  O279  1  0.299039  0.250226  0.769955  1
  O  O280  1  0.798340  0.250056  0.650906  1
  O  O281  1  0.700827  0.750058  0.575564  1
  O  O282  1  0.201528  0.750215  0.694614  1
  O  O283  1  0.700836  0.750206  0.769952  1
  O  O284  1  0.201531  0.750062  0.650906  1
  O  O285  1  0.203933  0.250142  0.553655  1
  O  O286  1  0.703095  0.250118  0.672761  1
  O  O287  1  0.795942  0.750105  0.553656  1
  O  O288  1  0.296776  0.750146  0.672759  1
  O  O289  1  0.394255  0.250136  0.791865  1
  O  O290  1  0.605618  0.750131  0.791861  1
  O  O291  1  0.203933  0.250142  0.791864  1
  O  O292  1  0.795942  0.750105  0.791865  1
  Si  Si293  1  0.075674  0.043650  0.150674  1
  Si  Si294  1  0.575660  0.043483  0.269646  1
  Si  Si295  1  0.075646  0.043780  0.242003  1
  Si  Si296  1  0.575680  0.043362  0.123033  1
  Si  Si297  1  0.924215  0.543641  0.150673  1
  Si  Si298  1  0.424196  0.543503  0.269649  1
  Si  Si299  1  0.924205  0.543766  0.242003  1
  Si  Si300  1  0.424212  0.543374  0.123034  1
  Si  Si301  1  0.924192  0.956602  0.242002  1
  Si  Si302  1  0.424213  0.956775  0.123032  1
  Si  Si303  1  0.924215  0.956485  0.150676  1
  Si  Si304  1  0.424192  0.956903  0.269645  1
  Si  Si305  1  0.075663  0.456623  0.242005  1
  Si  Si306  1  0.575677  0.456762  0.123030  1
  Si  Si307  1  0.075674  0.456491  0.150677  1
  Si  Si308  1  0.575661  0.456888  0.269645  1
  Si  Si309  1  0.309837  0.043632  0.149053  1
  Si  Si310  1  0.810665  0.043990  0.268315  1
  Si  Si311  1  0.309820  0.043779  0.243623  1
  Si  Si312  1  0.810670  0.043830  0.124370  1
  Si  Si313  1  0.690045  0.543608  0.149054  1
  Si  Si314  1  0.189198  0.544003  0.268312  1
  Si  Si315  1  0.690035  0.543758  0.243624  1
  Si  Si316  1  0.189215  0.543848  0.124370  1
  Si  Si317  1  0.690042  0.956638  0.243628  1
  Si  Si318  1  0.189212  0.956285  0.124366  1
  Si  Si319  1  0.690047  0.956485  0.149057  1
  Si  Si320  1  0.189194  0.956444  0.268309  1
  Si  Si321  1  0.309825  0.456653  0.243626  1
  Si  Si322  1  0.810672  0.456268  0.124368  1
  Si  Si323  1  0.309843  0.456511  0.149057  1
  Si  Si324  1  0.810664  0.456424  0.268311  1
  Si  Si325  1  0.377095  0.250083  0.097367  1
  Si  Si326  1  0.876386  0.250188  0.216456  1
  Si  Si327  1  0.377089  0.250191  0.295314  1
  Si  Si328  1  0.876380  0.250074  0.176220  1
  Si  Si329  1  0.622777  0.750073  0.097364  1
  Si  Si330  1  0.123488  0.750204  0.216459  1
  Si  Si331  1  0.622785  0.750178  0.295311  1
  Si  Si332  1  0.123492  0.750083  0.176222  1
  Si  Si333  1  0.220876  0.250081  0.097378  1
  Si  Si334  1  0.720162  0.250185  0.216492  1
  Si  Si335  1  0.220870  0.250210  0.295301  1
  Si  Si336  1  0.720157  0.250059  0.176191  1
  Si  Si337  1  0.778996  0.750056  0.097380  1
  Si  Si338  1  0.279712  0.750201  0.216490  1
  Si  Si339  1  0.779005  0.750189  0.295302  1
  Si  Si340  1  0.279714  0.750084  0.176189  1
  Si  Si341  1  0.075674  0.043650  0.388884  1
  Si  Si342  1  0.575660  0.043483  0.507856  1
  Si  Si343  1  0.075646  0.043780  0.480213  1
  Si  Si344  1  0.575680  0.043362  0.361243  1
  Si  Si345  1  0.924215  0.543641  0.388883  1
  Si  Si346  1  0.424196  0.543503  0.507859  1
  Si  Si347  1  0.924205  0.543766  0.480212  1
  Si  Si348  1  0.424212  0.543374  0.361244  1
  Si  Si349  1  0.924192  0.956602  0.480212  1
  Si  Si350  1  0.424213  0.956775  0.361241  1
  Si  Si351  1  0.924215  0.956485  0.388886  1
  Si  Si352  1  0.424192  0.956903  0.507855  1
  Si  Si353  1  0.075663  0.456623  0.480214  1
  Si  Si354  1  0.575677  0.456762  0.361240  1
  Si  Si355  1  0.075674  0.456491  0.388887  1
  Si  Si356  1  0.575661  0.456888  0.507854  1
  Si  Si357  1  0.309837  0.043632  0.387262  1
  Si  Si358  1  0.810665  0.043990  0.506524  1
  Si  Si359  1  0.309820  0.043779  0.481832  1
  Si  Si360  1  0.810670  0.043830  0.362580  1
  Si  Si361  1  0.690045  0.543608  0.387264  1
  Si  Si362  1  0.189198  0.544003  0.506522  1
  Si  Si363  1  0.690035  0.543758  0.481834  1
  Si  Si364  1  0.189215  0.543848  0.362580  1
  Si  Si365  1  0.690042  0.956638  0.481837  1
  Si  Si366  1  0.189212  0.956285  0.362576  1
  Si  Si367  1  0.690047  0.956485  0.387267  1
  Si  Si368  1  0.189194  0.956444  0.506519  1
  Si  Si369  1  0.309825  0.456653  0.481836  1
  Si  Si370  1  0.810672  0.456268  0.362578  1
  Si  Si371  1  0.309843  0.456511  0.387267  1
  Si  Si372  1  0.810664  0.456424  0.506520  1
  Si  Si373  1  0.377095  0.250083  0.335577  1
  Si  Si374  1  0.876386  0.250188  0.454666  1
  Si  Si375  1  0.377089  0.250191  0.533524  1
  Si  Si376  1  0.876380  0.250074  0.414430  1
  Si  Si377  1  0.622777  0.750073  0.335574  1
  Si  Si378  1  0.123488  0.750204  0.454669  1
  Si  Si379  1  0.622785  0.750178  0.533521  1
  Si  Si380  1  0.123492  0.750083  0.414432  1
  Si  Si381  1  0.220876  0.250081  0.335588  1
  Si  Si382  1  0.720162  0.250185  0.454702  1
  Si  Si383  1  0.220870  0.250210  0.533511  1
  Si  Si384  1  0.720157  0.250059  0.414400  1
  Si  Si385  1  0.778996  0.750056  0.335589  1
  Si  Si386  1  0.279712  0.750201  0.454700  1
  Si  Si387  1  0.779005  0.750189  0.533512  1
  Si  Si388  1  0.279714  0.750084  0.414399  1
  Si  Si389  1  0.075674  0.043650  0.627094  1
  Si  Si390  1  0.575660  0.043483  0.746066  1
  Si  Si391  1  0.075646  0.043780  0.718423  1
  Si  Si392  1  0.575680  0.043362  0.599452  1
  Si  Si393  1  0.924215  0.543641  0.627093  1
  Si  Si394  1  0.424196  0.543503  0.746069  1
  Si  Si395  1  0.924205  0.543766  0.718422  1
  Si  Si396  1  0.424212  0.543374  0.599453  1
  Si  Si397  1  0.924192  0.956602  0.718422  1
  Si  Si398  1  0.424213  0.956775  0.599451  1
  Si  Si399  1  0.924215  0.956485  0.627096  1
  Si  Si400  1  0.424192  0.956903  0.746065  1
  Si  Si401  1  0.075663  0.456623  0.718424  1
  Si  Si402  1  0.575677  0.456762  0.599449  1
  Si  Si403  1  0.075674  0.456491  0.627097  1
  Si  Si404  1  0.575661  0.456888  0.746064  1
  Si  Si405  1  0.309837  0.043632  0.625472  1
  Si  Si406  1  0.810665  0.043990  0.744734  1
  Si  Si407  1  0.309820  0.043779  0.720042  1
  Si  Si408  1  0.810670  0.043830  0.600790  1
  Si  Si409  1  0.690045  0.543608  0.625474  1
  Si  Si410  1  0.189198  0.544003  0.744732  1
  Si  Si411  1  0.690035  0.543758  0.720043  1
  Si  Si412  1  0.189215  0.543848  0.600790  1
  Si  Si413  1  0.690042  0.956638  0.720047  1
  Si  Si414  1  0.189212  0.956285  0.600785  1
  Si  Si415  1  0.690047  0.956485  0.625477  1
  Si  Si416  1  0.189194  0.956444  0.744728  1
  Si  Si417  1  0.309825  0.456653  0.720046  1
  Si  Si418  1  0.810672  0.456268  0.600787  1
  Si  Si419  1  0.309843  0.456511  0.625476  1
  Si  Si420  1  0.810664  0.456424  0.744730  1
  Si  Si421  1  0.377095  0.250083  0.573787  1
  Si  Si422  1  0.876386  0.250188  0.692876  1
  Si  Si423  1  0.377089  0.250191  0.771734  1
  Si  Si424  1  0.876380  0.250074  0.652639  1
  Si  Si425  1  0.622777  0.750073  0.573783  1
  Si  Si426  1  0.123488  0.750204  0.692879  1
  Si  Si427  1  0.622785  0.750178  0.771730  1
  Si  Si428  1  0.123492  0.750083  0.652642  1
  Si  Si429  1  0.220876  0.250081  0.573798  1
  Si  Si430  1  0.720162  0.250185  0.692911  1
  Si  Si431  1  0.220870  0.250210  0.771720  1
  Si  Si432  1  0.720157  0.250059  0.652610  1
  Si  Si433  1  0.778996  0.750056  0.573799  1
  Si  Si434  1  0.279712  0.750201  0.692909  1
  Si  Si435  1  0.779005  0.750189  0.771722  1
  Si  Si436  1  0.279714  0.750084  0.652608  1
  H  H437  1  0.394255  0.250136  0.065455  1
  H  H438  1  0.605618  0.750131  0.065451  1
  H  H439  1  0.203933  0.250142  0.065454  1
  H  H440  1  0.795942  0.750105  0.065455  1
  H  H441  1  0.394255  0.250136  0.803646  1
  H  H442  1  0.605618  0.750131  0.803643  1
  H  H443  1  0.203933  0.250142  0.803645  1
  H  H444  1  0.795942  0.750105  0.803647  1
