# generated using pymatgen
data_Si16H2O33
_symmetry_space_group_name_H-M   'P 1'
_cell_length_a   7.06595653
_cell_length_b   7.06598947
_cell_length_c   56.12750819
_cell_angle_alpha   90.00000000
_cell_angle_beta   90.00000000
_cell_angle_gamma   90.00000000
_symmetry_Int_Tables_number   1
_chemical_formula_structural   Si16H2O33
_chemical_formula_sum   'Si32 H4 O66'
_cell_volume   2802.33279389
_cell_formula_units_Z   2
loop_
 _symmetry_equiv_pos_site_id
 _symmetry_equiv_pos_as_xyz
  1  'x, y, z'
loop_
 _atom_site_type_symbol
 _atom_site_label
 _atom_site_symmetry_multiplicity
 _atom_site_fract_x
 _atom_site_fract_y
 _atom_site_fract_z
 _atom_site_occupancy
  O  O1  1  0.018143  0.499834  0.105120  1
  O  O2  1  0.981787  0.000000  0.105118  1
  O  O3  1  -0.000000  0.249835  0.138063  1
  O  O4  1  0.500154  0.749752  0.290962  1
  O  O5  1  0.500184  0.249820  0.367412  1
  O  O6  1  -0.000000  0.749773  0.214513  1
  O  O7  1  -0.000000  0.749834  0.377973  1
  O  O8  1  0.499772  0.249751  0.225074  1
  O  O9  1  0.499742  0.749820  0.148624  1
  O  O10  1  -0.000000  0.249774  0.301523  1
  O  O11  1  0.821389  0.572274  0.142124  1
  O  O12  1  0.321793  0.072180  0.295054  1
  O  O13  1  0.178536  0.072274  0.373912  1
  O  O14  1  0.678133  0.572180  0.220982  1
  O  O15  1  0.678533  0.427313  0.295019  1
  O  O16  1  0.178129  0.927407  0.142151  1
  O  O17  1  0.321393  0.927313  0.221017  1
  O  O18  1  0.821796  0.427407  0.373885  1
  O  O19  1  0.177313  0.571460  0.144563  1
  O  O20  1  0.677739  0.071389  0.297441  1
  O  O21  1  0.822612  0.071460  0.371473  1
  O  O22  1  0.322186  0.571389  0.218596  1
  O  O23  1  0.322606  0.428130  0.297457  1
  O  O24  1  0.822179  0.928201  0.144537  1
  O  O25  1  0.677319  0.928130  0.218578  1
  O  O26  1  0.177746  0.428201  0.371499  1
  O  O27  1  0.018143  0.499834  0.410918  1
  O  O28  1  0.518143  0.000000  0.258021  1
  O  O29  1  0.250094  0.231647  0.334480  1
  O  O30  1  0.749834  0.731646  0.181556  1
  O  O31  1  0.481787  0.499784  0.258015  1
  O  O32  1  0.981787  0.000000  0.410916  1
  O  O33  1  0.249834  0.767999  0.181581  1
  O  O34  1  0.750094  0.267999  0.334456  1
  O  O35  1  -0.000000  0.249835  0.443862  1
  O  O36  1  0.500154  0.749752  0.596761  1
  O  O37  1  0.500184  0.249820  0.673211  1
  O  O38  1  -0.000000  0.749773  0.520311  1
  O  O39  1  -0.000000  0.749834  0.683771  1
  O  O40  1  0.499772  0.249751  0.530872  1
  O  O41  1  0.499742  0.749820  0.454422  1
  O  O42  1  -0.000000  0.249774  0.607321  1
  O  O43  1  0.821389  0.572274  0.447922  1
  O  O44  1  0.321793  0.072180  0.600852  1
  O  O45  1  0.178536  0.072274  0.679710  1
  O  O46  1  0.678133  0.572180  0.526780  1
  O  O47  1  0.678533  0.427313  0.600818  1
  O  O48  1  0.178129  0.927407  0.447949  1
  O  O49  1  0.321393  0.927313  0.526815  1
  O  O50  1  0.821796  0.427407  0.679684  1
  O  O51  1  0.177313  0.571460  0.450361  1
  O  O52  1  0.677739  0.071389  0.603239  1
  O  O53  1  0.822612  0.071460  0.677272  1
  O  O54  1  0.322186  0.571389  0.524394  1
  O  O55  1  0.322606  0.428130  0.603256  1
  O  O56  1  0.822179  0.928201  0.450335  1
  O  O57  1  0.677319  0.928130  0.524377  1
  O  O58  1  0.177746  0.428201  0.677297  1
  O  O59  1  0.018143  0.499834  0.716716  1
  O  O60  1  0.518143  0.000000  0.563819  1
  O  O61  1  0.250094  0.231647  0.640278  1
  O  O62  1  0.749834  0.731646  0.487355  1
  O  O63  1  0.481787  0.499784  0.563814  1
  O  O64  1  0.981787  -0.000000  0.716714  1
  O  O65  1  0.249834  0.767999  0.487379  1
  O  O66  1  0.750094  0.267999  0.640254  1
  Si  Si67  1  0.003717  0.467735  0.132586  1
  Si  Si68  1  0.504033  0.967659  0.285489  1
  Si  Si69  1  0.282265  0.245918  0.361946  1
  Si  Si70  1  0.781858  0.745862  0.209025  1
  Si  Si71  1  0.496208  0.531856  0.285482  1
  Si  Si72  1  0.995892  0.031932  0.132586  1
  Si  Si73  1  0.217664  0.753686  0.209046  1
  Si  Si74  1  0.718071  0.253742  0.361925  1
  Si  Si75  1  0.004035  0.531933  0.383450  1
  Si  Si76  1  0.503719  0.031856  0.230554  1
  Si  Si77  1  0.717660  0.745918  0.154090  1
  Si  Si78  1  0.218068  0.245863  0.307010  1
  Si  Si79  1  0.495894  0.467659  0.230547  1
  Si  Si80  1  0.996211  0.967735  0.383450  1
  Si  Si81  1  0.782261  0.253687  0.306990  1
  Si  Si82  1  0.281853  0.753742  0.154112  1
  Si  Si83  1  0.003717  0.467735  0.438384  1
  Si  Si84  1  0.504033  0.967659  0.591287  1
  Si  Si85  1  0.282265  0.245918  0.667744  1
  Si  Si86  1  0.781858  0.745862  0.514824  1
  Si  Si87  1  0.496208  0.531856  0.591280  1
  Si  Si88  1  0.995892  0.031932  0.438385  1
  Si  Si89  1  0.217664  0.753686  0.514845  1
  Si  Si90  1  0.718071  0.253742  0.667723  1
  Si  Si91  1  0.004035  0.531933  0.689248  1
  Si  Si92  1  0.503719  0.031856  0.536352  1
  Si  Si93  1  0.717660  0.745918  0.459888  1
  Si  Si94  1  0.218068  0.245863  0.612809  1
  Si  Si95  1  0.495894  0.467659  0.536346  1
  Si  Si96  1  0.996211  0.967735  0.689248  1
  Si  Si97  1  0.782261  0.253687  0.612788  1
  Si  Si98  1  0.281853  0.753742  0.459910  1
  H  H99  1  0.018143  0.499834  0.089085  1
  H  H100  1  0.981787  0.000000  0.089083  1
  H  H101  1  0.018143  0.499834  0.732751  1
  H  H102  1  0.981787  0.000000  0.732749  1
