# generated using pymatgen
data_Si24H2O49
_symmetry_space_group_name_H-M   'P 1'
_cell_length_a   14.04855121
_cell_length_b   9.74334908
_cell_length_c   63.94622364
_cell_angle_alpha   90.00000000
_cell_angle_beta   90.00000000
_cell_angle_gamma   90.00000000
_symmetry_Int_Tables_number   1
_chemical_formula_structural   Si24H2O49
_chemical_formula_sum   'Si96 H8 O196'
_cell_volume   8752.95516018
_cell_formula_units_Z   4
loop_
 _symmetry_equiv_pos_site_id
 _symmetry_equiv_pos_as_xyz
  1  'x, y, z'
loop_
 _atom_site_type_symbol
 _atom_site_label
 _atom_site_symmetry_multiplicity
 _atom_site_fract_x
 _atom_site_fract_y
 _atom_site_fract_z
 _atom_site_occupancy
  O  O1  1  0.170085  0.177787  0.129657  1
  O  O2  1  0.670095  0.677721  0.239510  1
  O  O3  1  0.170094  0.177741  0.274568  1
  O  O4  1  0.670093  0.677758  0.164724  1
  O  O5  1  0.829646  0.177722  0.274569  1
  O  O6  1  0.329661  0.677786  0.164725  1
  O  O7  1  0.829639  0.177757  0.129658  1
  O  O8  1  0.329663  0.677741  0.239511  1
  O  O9  1  0.829663  0.822329  0.274572  1
  O  O10  1  0.329638  0.322395  0.164721  1
  O  O11  1  0.829661  0.822366  0.129663  1
  O  O12  1  0.329646  0.322349  0.239504  1
  O  O13  1  0.170093  0.822394  0.129663  1
  O  O14  1  0.670093  0.322329  0.239505  1
  O  O15  1  0.170095  0.822350  0.274572  1
  O  O16  1  0.670085  0.322365  0.164722  1
  O  O17  1  0.289409  -0.000000  0.118371  1
  O  O18  1  0.789414  0.500028  0.228219  1
  O  O19  1  0.118690  -0.000000  0.248358  1
  O  O20  1  0.618685  0.500060  0.138512  1
  O  O21  1  0.710335  -0.000000  0.285859  1
  O  O22  1  0.210330  0.500104  0.176012  1
  O  O23  1  0.881054  -0.000000  0.155872  1
  O  O24  1  0.381058  0.500030  0.265718  1
  O  O25  1  0.289414  0.000000  0.285859  1
  O  O26  1  0.789409  0.500064  0.176012  1
  O  O27  1  0.118685  -0.000000  0.155871  1
  O  O28  1  0.618690  0.500011  0.265719  1
  O  O29  1  0.710330  -0.000000  0.118372  1
  O  O30  1  0.210335  0.500055  0.228218  1
  O  O31  1  0.881058  0.000000  0.248359  1
  O  O32  1  0.381054  0.500092  0.138511  1
  O  O33  1  0.249895  0.187708  0.092265  1
  O  O34  1  0.749887  0.687684  0.202117  1
  O  O35  1  -0.000000  0.187665  0.257046  1
  O  O36  1  0.499878  0.687707  0.147199  1
  O  O37  1  0.749835  0.187680  0.092266  1
  O  O38  1  0.249871  0.687711  0.202118  1
  O  O39  1  -0.000000  0.187711  0.147180  1
  O  O40  1  0.499879  0.687661  0.257037  1
  O  O41  1  0.749871  0.812400  0.092270  1
  O  O42  1  0.249835  0.312431  0.202112  1
  O  O43  1  -0.000000  0.812450  0.147190  1
  O  O44  1  0.499870  0.312401  0.257027  1
  O  O45  1  0.249887  0.812428  0.092271  1
  O  O46  1  0.749894  0.312404  0.202113  1
  O  O47  1  0.000000  0.812404  0.257046  1
  O  O48  1  0.499861  0.312447  0.147198  1
  O  O49  1  0.344024  0.250096  0.126508  1
  O  O50  1  0.844036  0.750021  0.236359  1
  O  O51  1  0.155705  0.250052  0.236355  1
  O  O52  1  0.655723  0.750053  0.126511  1
  O  O53  1  0.655701  0.249999  0.277717  1
  O  O54  1  0.155727  0.750118  0.167878  1
  O  O55  1  0.844028  0.250076  0.167870  1
  O  O56  1  0.344032  0.750029  0.277724  1
  O  O57  1  0.344035  0.250028  0.277716  1
  O  O58  1  0.844031  0.750073  0.167877  1
  O  O59  1  0.155694  0.250120  0.167869  1
  O  O60  1  0.655728  0.750002  0.277724  1
  O  O61  1  0.655697  0.250052  0.126509  1
  O  O62  1  0.155724  0.750048  0.236359  1
  O  O63  1  0.844031  0.250023  0.236356  1
  O  O64  1  0.344035  0.750099  0.126512  1
  O  O65  1  0.170085  0.177787  0.349351  1
  O  O66  1  0.670095  0.677721  0.459205  1
  O  O67  1  0.170094  0.177741  0.494262  1
  O  O68  1  0.670093  0.677758  0.384419  1
  O  O69  1  0.829646  0.177722  0.494264  1
  O  O70  1  0.329661  0.677786  0.384419  1
  O  O71  1  0.829639  0.177757  0.349352  1
  O  O72  1  0.329663  0.677741  0.459205  1
  O  O73  1  0.829663  0.822329  0.494266  1
  O  O74  1  0.329638  0.322395  0.384415  1
  O  O75  1  0.829661  0.822366  0.349357  1
  O  O76  1  0.329646  0.322349  0.459198  1
  O  O77  1  0.170093  0.822394  0.349358  1
  O  O78  1  0.670093  0.322329  0.459199  1
  O  O79  1  0.170095  0.822350  0.494266  1
  O  O80  1  0.670085  0.322365  0.384417  1
  O  O81  1  0.289409  -0.000000  0.338066  1
  O  O82  1  0.789414  0.500028  0.447913  1
  O  O83  1  0.118690  -0.000000  0.468053  1
  O  O84  1  0.618685  0.500060  0.358206  1
  O  O85  1  0.710335  -0.000000  0.505553  1
  O  O86  1  0.210330  0.500104  0.395706  1
  O  O87  1  0.881054  -0.000000  0.375566  1
  O  O88  1  0.381058  0.500030  0.485413  1
  O  O89  1  0.289414  -0.000000  0.505553  1
  O  O90  1  0.789409  0.500064  0.395706  1
  O  O91  1  0.118685  -0.000000  0.375566  1
  O  O92  1  0.618690  0.500011  0.485413  1
  O  O93  1  0.710330  -0.000000  0.338066  1
  O  O94  1  0.210335  0.500055  0.447913  1
  O  O95  1  0.881058  -0.000000  0.468053  1
  O  O96  1  0.381054  0.500092  0.358206  1
  O  O97  1  0.249895  0.187708  0.311959  1
  O  O98  1  0.749887  0.687684  0.421812  1
  O  O99  1  -0.000000  0.187665  0.476740  1
  O  O100  1  0.499878  0.687707  0.366893  1
  O  O101  1  0.749835  0.187680  0.311960  1
  O  O102  1  0.249871  0.687711  0.421812  1
  O  O103  1  -0.000000  0.187711  0.366874  1
  O  O104  1  0.499879  0.687661  0.476731  1
  O  O105  1  0.749871  0.812400  0.311965  1
  O  O106  1  0.249835  0.312431  0.421806  1
  O  O107  1  -0.000000  0.812450  0.366884  1
  O  O108  1  0.499870  0.312401  0.476721  1
  O  O109  1  0.249887  0.812428  0.311965  1
  O  O110  1  0.749894  0.312404  0.421808  1
  O  O111  1  -0.000000  0.812404  0.476740  1
  O  O112  1  0.499861  0.312447  0.366893  1
  O  O113  1  0.344024  0.250096  0.346202  1
  O  O114  1  0.844036  0.750021  0.456053  1
  O  O115  1  0.155705  0.250052  0.456050  1
  O  O116  1  0.655723  0.750053  0.346205  1
  O  O117  1  0.655701  0.249999  0.497411  1
  O  O118  1  0.155727  0.750118  0.387572  1
  O  O119  1  0.844028  0.250076  0.387564  1
  O  O120  1  0.344032  0.750029  0.497419  1
  O  O121  1  0.344035  0.250028  0.497410  1
  O  O122  1  0.844031  0.750073  0.387571  1
  O  O123  1  0.155694  0.250120  0.387563  1
  O  O124  1  0.655728  0.750002  0.497419  1
  O  O125  1  0.655697  0.250052  0.346203  1
  O  O126  1  0.155724  0.750048  0.456053  1
  O  O127  1  0.844031  0.250023  0.456050  1
  O  O128  1  0.344035  0.750099  0.346206  1
  O  O129  1  0.170085  0.177787  0.569045  1
  O  O130  1  0.670095  0.677721  0.678899  1
  O  O131  1  0.170094  0.177741  0.713957  1
  O  O132  1  0.670093  0.677758  0.604113  1
  O  O133  1  0.829646  0.177722  0.713958  1
  O  O134  1  0.329661  0.677786  0.604113  1
  O  O135  1  0.829639  0.177757  0.569046  1
  O  O136  1  0.329663  0.677741  0.678899  1
  O  O137  1  0.829663  0.822329  0.713960  1
  O  O138  1  0.329638  0.322395  0.604110  1
  O  O139  1  0.829661  0.822366  0.569052  1
  O  O140  1  0.329646  0.322349  0.678892  1
  O  O141  1  0.170093  0.822394  0.569052  1
  O  O142  1  0.670093  0.322329  0.678893  1
  O  O143  1  0.170095  0.822350  0.713960  1
  O  O144  1  0.670085  0.322365  0.604111  1
  O  O145  1  0.289409  -0.000000  0.557760  1
  O  O146  1  0.789414  0.500028  0.667607  1
  O  O147  1  0.118690  -0.000000  0.687747  1
  O  O148  1  0.618685  0.500060  0.577900  1
  O  O149  1  0.710335  0.000000  0.725248  1
  O  O150  1  0.210330  0.500104  0.615400  1
  O  O151  1  0.881054  -0.000000  0.595260  1
  O  O152  1  0.381058  0.500030  0.705107  1
  O  O153  1  0.289414  -0.000000  0.725248  1
  O  O154  1  0.789409  0.500064  0.615401  1
  O  O155  1  0.118685  -0.000000  0.595260  1
  O  O156  1  0.618690  0.500011  0.705107  1
  O  O157  1  0.710330  -0.000000  0.557760  1
  O  O158  1  0.210335  0.500055  0.667607  1
  O  O159  1  0.881058  0.000000  0.687747  1
  O  O160  1  0.381054  0.500092  0.577900  1
  O  O161  1  0.249895  0.187708  0.531654  1
  O  O162  1  0.749887  0.687684  0.641506  1
  O  O163  1  -0.000000  0.187665  0.696434  1
  O  O164  1  0.499878  0.687707  0.586587  1
  O  O165  1  0.749835  0.187680  0.531655  1
  O  O166  1  0.249871  0.687711  0.641506  1
  O  O167  1  -0.000000  0.187711  0.586568  1
  O  O168  1  0.499879  0.687661  0.696425  1
  O  O169  1  0.749871  0.812400  0.531659  1
  O  O170  1  0.249835  0.312431  0.641501  1
  O  O171  1  -0.000000  0.812450  0.586578  1
  O  O172  1  0.499870  0.312401  0.696415  1
  O  O173  1  0.249887  0.812428  0.531659  1
  O  O174  1  0.749894  0.312404  0.641502  1
  O  O175  1  -0.000000  0.812404  0.696435  1
  O  O176  1  0.499861  0.312447  0.586587  1
  O  O177  1  0.344024  0.250096  0.565896  1
  O  O178  1  0.844036  0.750021  0.675747  1
  O  O179  1  0.155705  0.250052  0.675744  1
  O  O180  1  0.655723  0.750053  0.565900  1
  O  O181  1  0.655701  0.249999  0.717105  1
  O  O182  1  0.155727  0.750118  0.607266  1
  O  O183  1  0.844028  0.250076  0.607259  1
  O  O184  1  0.344032  0.750029  0.717113  1
  O  O185  1  0.344035  0.250028  0.717105  1
  O  O186  1  0.844031  0.750073  0.607265  1
  O  O187  1  0.155694  0.250120  0.607257  1
  O  O188  1  0.655728  0.750002  0.717113  1
  O  O189  1  0.655697  0.250052  0.565898  1
  O  O190  1  0.155724  0.750048  0.675747  1
  O  O191  1  0.844031  0.250023  0.675744  1
  O  O192  1  0.344035  0.750099  0.565901  1
  O  O193  1  0.249895  0.187708  0.751348  1
  O  O194  1  0.749835  0.187680  0.751349  1
  O  O195  1  0.749871  0.812400  0.751353  1
  O  O196  1  0.249887  0.812428  0.751354  1
  Si  Si197  1  0.264146  0.157807  0.116354  1
  Si  Si198  1  0.764149  0.657748  0.226205  1
  Si  Si199  1  0.109515  0.157764  0.253908  1
  Si  Si200  1  0.609521  0.657779  0.144063  1
  Si  Si201  1  0.735588  0.157736  0.287873  1
  Si  Si202  1  0.235605  0.657818  0.178029  1
  Si  Si203  1  0.890218  0.157790  0.150318  1
  Si  Si204  1  0.390233  0.657754  0.260172  1
  Si  Si205  1  0.264151  0.157761  0.287872  1
  Si  Si206  1  0.764149  0.657783  0.178029  1
  Si  Si207  1  0.109508  0.157819  0.150317  1
  Si  Si208  1  0.609524  0.657735  0.260171  1
  Si  Si209  1  0.735580  0.157772  0.116355  1
  Si  Si210  1  0.235608  0.657772  0.226206  1
  Si  Si211  1  0.890226  0.157745  0.253909  1
  Si  Si212  1  0.390231  0.657808  0.144063  1
  Si  Si213  1  0.735607  0.842299  0.287876  1
  Si  Si214  1  0.235581  0.342380  0.178024  1
  Si  Si215  1  0.890230  0.842352  0.150325  1
  Si  Si216  1  0.390225  0.342316  0.260164  1
  Si  Si217  1  0.264147  0.842369  0.116358  1
  Si  Si218  1  0.764153  0.342310  0.226202  1
  Si  Si219  1  0.109523  0.842327  0.253911  1
  Si  Si220  1  0.609508  0.342341  0.144061  1
  Si  Si221  1  0.735607  0.842334  0.116358  1
  Si  Si222  1  0.235586  0.342333  0.226201  1
  Si  Si223  1  0.890233  0.842308  0.253910  1
  Si  Si224  1  0.390219  0.342371  0.144061  1
  Si  Si225  1  0.264150  0.842323  0.287876  1
  Si  Si226  1  0.764144  0.342345  0.178025  1
  Si  Si227  1  0.109522  0.842381  0.150325  1
  Si  Si228  1  0.609514  0.342297  0.260165  1
  Si  Si229  1  0.264146  0.157807  0.336048  1
  Si  Si230  1  0.764149  0.657748  0.445900  1
  Si  Si231  1  0.109515  0.157764  0.473602  1
  Si  Si232  1  0.609521  0.657779  0.363757  1
  Si  Si233  1  0.735588  0.157736  0.507567  1
  Si  Si234  1  0.235605  0.657818  0.397723  1
  Si  Si235  1  0.890218  0.157790  0.370012  1
  Si  Si236  1  0.390233  0.657754  0.479866  1
  Si  Si237  1  0.264151  0.157761  0.507566  1
  Si  Si238  1  0.764149  0.657783  0.397723  1
  Si  Si239  1  0.109508  0.157819  0.370012  1
  Si  Si240  1  0.609524  0.657735  0.479866  1
  Si  Si241  1  0.735580  0.157772  0.336049  1
  Si  Si242  1  0.235608  0.657772  0.445900  1
  Si  Si243  1  0.890226  0.157745  0.473603  1
  Si  Si244  1  0.390231  0.657808  0.363757  1
  Si  Si245  1  0.735607  0.842299  0.507570  1
  Si  Si246  1  0.235581  0.342380  0.397719  1
  Si  Si247  1  0.890230  0.842352  0.370019  1
  Si  Si248  1  0.390225  0.342316  0.479859  1
  Si  Si249  1  0.264147  0.842369  0.336053  1
  Si  Si250  1  0.764153  0.342310  0.445896  1
  Si  Si251  1  0.109523  0.842327  0.473605  1
  Si  Si252  1  0.609508  0.342341  0.363756  1
  Si  Si253  1  0.735607  0.842334  0.336053  1
  Si  Si254  1  0.235586  0.342333  0.445896  1
  Si  Si255  1  0.890233  0.842308  0.473604  1
  Si  Si256  1  0.390219  0.342371  0.363755  1
  Si  Si257  1  0.264150  0.842323  0.507570  1
  Si  Si258  1  0.764144  0.342345  0.397720  1
  Si  Si259  1  0.109522  0.842381  0.370019  1
  Si  Si260  1  0.609514  0.342297  0.479860  1
  Si  Si261  1  0.264146  0.157807  0.555743  1
  Si  Si262  1  0.764149  0.657748  0.665594  1
  Si  Si263  1  0.109515  0.157764  0.693297  1
  Si  Si264  1  0.609521  0.657779  0.583452  1
  Si  Si265  1  0.735588  0.157736  0.727261  1
  Si  Si266  1  0.235605  0.657818  0.617417  1
  Si  Si267  1  0.890218  0.157790  0.589706  1
  Si  Si268  1  0.390233  0.657754  0.699560  1
  Si  Si269  1  0.264151  0.157761  0.727260  1
  Si  Si270  1  0.764149  0.657783  0.617417  1
  Si  Si271  1  0.109508  0.157819  0.589706  1
  Si  Si272  1  0.609524  0.657735  0.699560  1
  Si  Si273  1  0.735580  0.157772  0.555744  1
  Si  Si274  1  0.235608  0.657772  0.665594  1
  Si  Si275  1  0.890226  0.157745  0.693298  1
  Si  Si276  1  0.390231  0.657808  0.583452  1
  Si  Si277  1  0.735607  0.842299  0.727264  1
  Si  Si278  1  0.235581  0.342380  0.617413  1
  Si  Si279  1  0.890230  0.842352  0.589713  1
  Si  Si280  1  0.390225  0.342316  0.699553  1
  Si  Si281  1  0.264147  0.842369  0.555747  1
  Si  Si282  1  0.764153  0.342310  0.665591  1
  Si  Si283  1  0.109523  0.842327  0.693299  1
  Si  Si284  1  0.609508  0.342341  0.583450  1
  Si  Si285  1  0.735607  0.842334  0.555747  1
  Si  Si286  1  0.235586  0.342333  0.665590  1
  Si  Si287  1  0.890233  0.842308  0.693299  1
  Si  Si288  1  0.390219  0.342371  0.583449  1
  Si  Si289  1  0.264150  0.842323  0.727265  1
  Si  Si290  1  0.764144  0.342345  0.617414  1
  Si  Si291  1  0.109522  0.842381  0.589713  1
  Si  Si292  1  0.609514  0.342297  0.699554  1
  H  H293  1  0.249895  0.187708  0.078191  1
  H  H294  1  0.749835  0.187680  0.078192  1
  H  H295  1  0.749871  0.812400  0.078196  1
  H  H296  1  0.249887  0.812428  0.078196  1
  H  H297  1  0.249895  0.187708  0.765422  1
  H  H298  1  0.749835  0.187680  0.765423  1
  H  H299  1  0.749871  0.812400  0.765427  1
  H  H300  1  0.249887  0.812428  0.765428  1
