# generated using pymatgen
data_Si22H2O45
_symmetry_space_group_name_H-M   'P 1'
_cell_length_a   9.50193370
_cell_length_b   7.29401298
_cell_length_c   52.45232182
_cell_angle_alpha   90.00000000
_cell_angle_beta   90.00000000
_cell_angle_gamma   90.45000000
_symmetry_Int_Tables_number   1
_chemical_formula_structural   Si22H2O45
_chemical_formula_sum   'Si44 H4 O90'
_cell_volume   3635.21289195
_cell_formula_units_Z   2
loop_
 _symmetry_equiv_pos_site_id
 _symmetry_equiv_pos_as_xyz
  1  'x, y, z'
loop_
 _atom_site_type_symbol
 _atom_site_label
 _atom_site_symmetry_multiplicity
 _atom_site_fract_x
 _atom_site_fract_y
 _atom_site_fract_z
 _atom_site_occupancy
  O  O1  1  0.711187  0.828118  0.616699  1
  O  O2  1  0.211167  0.827966  0.324510  1
  O  O3  1  0.288692  0.171794  0.616700  1
  O  O4  1  0.788674  0.171645  0.324506  1
  O  O5  1  0.288641  0.171686  0.192652  1
  O  O6  1  0.788696  0.171737  0.484838  1
  O  O7  1  0.711135  0.828007  0.192651  1
  O  O8  1  0.211190  0.828061  0.484847  1
  O  O9  1  0.912820  0.737217  0.587989  1
  O  O10  1  0.412778  0.737117  0.295796  1
  O  O11  1  0.087077  0.262614  0.587985  1
  O  O12  1  0.587036  0.262515  0.295797  1
  O  O13  1  0.087025  0.262538  0.221365  1
  O  O14  1  0.587082  0.262620  0.513552  1
  O  O15  1  0.912768  0.737140  0.221362  1
  O  O16  1  0.412825  0.737223  0.513557  1
  O  O17  1  0.716828  0.500412  0.594864  1
  O  O18  1  0.216815  0.500265  0.302673  1
  O  O19  1  0.283026  0.499492  0.594862  1
  O  O20  1  0.783016  0.499344  0.302670  1
  O  O21  1  0.282993  0.499380  0.214489  1
  O  O22  1  0.783063  0.499443  0.506674  1
  O  O23  1  0.716793  0.500300  0.214488  1
  O  O24  1  0.216864  0.500364  0.506684  1
  O  O25  1  0.883825  0.582920  0.630506  1
  O  O26  1  0.383836  0.582798  0.338311  1
  O  O27  1  0.116018  0.416954  0.630499  1
  O  O28  1  0.616025  0.416825  0.338312  1
  O  O29  1  0.115983  0.416865  0.178850  1
  O  O30  1  0.616049  0.416933  0.471037  1
  O  O31  1  0.883794  0.582838  0.178847  1
  O  O32  1  0.383855  0.582900  0.471042  1
  O  O33  1  0.000000  0.000000  0.469888  1
  O  O34  1  0.499894  0.000000  0.177697  1
  O  O35  1  0.000000  0.000000  0.339463  1
  O  O36  1  0.499941  0.000000  0.631655  1
  O  O37  1  0.814693  0.842775  0.498235  1
  O  O38  1  0.314628  0.842706  0.206043  1
  O  O39  1  0.185244  0.157054  0.498233  1
  O  O40  1  0.685181  0.156987  0.206042  1
  O  O41  1  0.185202  0.156948  0.311119  1
  O  O42  1  0.685216  0.157093  0.603307  1
  O  O43  1  0.814650  0.842667  0.311115  1
  O  O44  1  0.314665  0.842814  0.603309  1
  O  O45  1  0.749489  0.914504  0.452260  1
  O  O46  1  0.249405  0.914480  0.160072  1
  O  O47  1  0.250471  0.085224  0.452263  1
  O  O48  1  0.750386  0.085198  0.160069  1
  O  O49  1  0.250405  0.085168  0.357093  1
  O  O50  1  0.750439  0.085311  0.649279  1
  O  O51  1  0.749423  0.914449  0.357086  1
  O  O52  1  0.249457  0.914590  0.649282  1
  O  O53  1  0.840615  0.112517  0.112483  1
  O  O54  1  0.340643  0.112487  0.404678  1
  O  O55  1  0.159230  0.887256  0.112485  1
  O  O56  1  0.659257  0.887225  0.404673  1
  O  O57  1  0.000000  0.000000  0.661722  1
  O  O58  1  0.499917  0.000000  0.369531  1
  O  O59  1  0.000000  0.000000  0.147628  1
  O  O60  1  0.499992  0.000000  0.439819  1
  O  O61  1  0.932577  0.335524  0.663162  1
  O  O62  1  0.432546  0.335415  0.370968  1
  O  O63  1  0.067330  0.664327  0.663157  1
  O  O64  1  0.567303  0.664214  0.370970  1
  O  O65  1  0.067275  0.664250  0.146190  1
  O  O66  1  0.567313  0.664313  0.438382  1
  O  O67  1  0.932518  0.335451  0.146192  1
  O  O68  1  0.432560  0.335511  0.438383  1
  O  O69  1  0.920614  0.710094  0.539420  1
  O  O70  1  0.420571  0.710030  0.247228  1
  O  O71  1  0.079278  0.289693  0.539417  1
  O  O72  1  0.579235  0.289625  0.247228  1
  O  O73  1  0.079236  0.289609  0.269934  1
  O  O74  1  0.579281  0.289738  0.562121  1
  O  O75  1  0.920571  0.710014  0.269929  1
  O  O76  1  0.420618  0.710140  0.562125  1
  O  O77  1  0.655052  0.727766  0.533787  1
  O  O78  1  0.154999  0.727740  0.241596  1
  O  O79  1  0.344853  0.271981  0.533790  1
  O  O80  1  0.844801  0.271956  0.241598  1
  O  O81  1  0.344806  0.271912  0.275563  1
  O  O82  1  0.844845  0.272081  0.567754  1
  O  O83  1  0.655005  0.727696  0.275563  1
  O  O84  1  0.155044  0.727865  0.567753  1
  O  O85  1  -0.000000  0.000000  0.561032  1
  O  O86  1  0.499921  0.000000  0.268842  1
  O  O87  1  0.000000  0.000000  0.248318  1
  O  O88  1  0.500002  0.000000  0.540510  1
  O  O89  1  0.840615  0.112517  0.696865  1
  O  O90  1  0.159230  0.887256  0.696868  1
  Si  Si91  1  0.875664  0.134252  0.667620  1
  Si  Si92  1  0.375642  0.134145  0.375429  1
  Si  Si93  1  0.124225  0.865599  0.667620  1
  Si  Si94  1  0.624205  0.865493  0.375428  1
  Si  Si95  1  0.124183  0.865526  0.141731  1
  Si  Si96  1  0.624249  0.865569  0.433921  1
  Si  Si97  1  0.875620  0.134178  0.141731  1
  Si  Si98  1  0.375688  0.134222  0.433923  1
  Si  Si99  1  0.801511  0.663546  0.607427  1
  Si  Si100  1  0.301493  0.663408  0.315234  1
  Si  Si101  1  0.198359  0.336342  0.607423  1
  Si  Si102  1  0.698342  0.336206  0.315234  1
  Si  Si103  1  0.198313  0.336243  0.201926  1
  Si  Si104  1  0.698380  0.336303  0.494113  1
  Si  Si105  1  0.801464  0.663444  0.201925  1
  Si  Si106  1  0.301531  0.663507  0.494120  1
  Si  Si107  1  0.838675  0.979045  0.475741  1
  Si  Si108  1  0.338607  0.978995  0.183552  1
  Si  Si109  1  0.161252  0.020754  0.475743  1
  Si  Si110  1  0.661184  0.020703  0.183551  1
  Si  Si111  1  0.161210  0.020661  0.333610  1
  Si  Si112  1  0.661230  0.020809  0.625799  1
  Si  Si113  1  0.838633  0.978954  0.333606  1
  Si  Si114  1  0.338652  0.979100  0.625800  1
  Si  Si115  1  0.797703  0.694244  0.519416  1
  Si  Si116  1  0.297648  0.694189  0.227227  1
  Si  Si117  1  0.202210  0.305548  0.519419  1
  Si  Si118  1  0.702153  0.305492  0.227227  1
  Si  Si119  1  0.202163  0.305457  0.289935  1
  Si  Si120  1  0.702193  0.305608  0.582124  1
  Si  Si121  1  0.797657  0.694154  0.289932  1
  Si  Si122  1  0.297685  0.694304  0.582125  1
  Si  Si123  1  0.998820  0.787892  0.563597  1
  Si  Si124  1  0.498796  0.787783  0.271406  1
  Si  Si125  1  0.001046  0.211957  0.563596  1
  Si  Si126  1  0.501023  0.211847  0.271406  1
  Si  Si127  1  0.001010  0.211867  0.245756  1
  Si  Si128  1  0.501077  0.211940  0.537944  1
  Si  Si129  1  0.998783  0.787803  0.245752  1
  Si  Si130  1  0.498851  0.787875  0.537947  1
  Si  Si131  1  0.000000  0.499929  0.647985  1
  Si  Si132  1  0.499927  0.499815  0.355795  1
  Si  Si133  1  -0.000000  0.499854  0.161366  1
  Si  Si134  1  0.499941  0.499913  0.453557  1
  H  H135  1  0.840615  0.112517  0.095325  1
  H  H136  1  0.159230  0.887256  0.095327  1
  H  H137  1  0.840615  0.112517  0.714024  1
  H  H138  1  0.159230  0.887256  0.714026  1
