# generated using pymatgen
data_Si14H2O29
_symmetry_space_group_name_H-M   'P 1'
_cell_length_a   5.08294294
_cell_length_b   28.91631813
_cell_length_c   50.89048787
_cell_angle_alpha   56.28201059
_cell_angle_beta   90.00000000
_cell_angle_gamma   90.00000000
_symmetry_Int_Tables_number   1
_chemical_formula_structural   Si14H2O29
_chemical_formula_sum   'Si56 H8 O116'
_cell_volume   6221.61668852
_cell_formula_units_Z   4
loop_
 _symmetry_equiv_pos_site_id
 _symmetry_equiv_pos_as_xyz
  1  'x, y, z'
loop_
 _atom_site_type_symbol
 _atom_site_label
 _atom_site_symmetry_multiplicity
 _atom_site_fract_x
 _atom_site_fract_y
 _atom_site_fract_z
 _atom_site_occupancy
  O  O1  1  0.987772  0.002331  0.225824  1
  O  O2  1  0.487756  0.502339  0.225819  1
  O  O3  1  0.249192  0.911544  0.247548  1
  O  O4  1  0.748849  0.411520  0.247545  1
  O  O5  1  0.749433  0.908629  0.248203  1
  O  O6  1  0.249085  0.408660  0.248198  1
  O  O7  1  0.993584  0.073233  0.238457  1
  O  O8  1  0.493637  0.573237  0.238454  1
  O  O9  1  0.747387  0.096340  0.188894  1
  O  O10  1  0.247321  0.596336  0.188902  1
  O  O11  1  0.249115  0.093900  0.190038  1
  O  O12  1  0.749056  0.593926  0.190026  1
  O  O13  1  0.990488  0.338187  0.241033  1
  O  O14  1  0.490634  0.838182  0.241038  1
  O  O15  1  0.987701  0.670333  0.230910  1
  O  O16  1  0.487543  0.170330  0.230911  1
  O  O17  1  0.989220  0.662755  0.135805  1
  O  O18  1  0.489082  0.162739  0.135807  1
  O  O19  1  0.989078  0.337181  0.146913  1
  O  O20  1  0.489199  0.837171  0.146918  1
  O  O21  1  0.990816  0.678535  0.179333  1
  O  O22  1  0.490734  0.178517  0.179337  1
  O  O23  1  0.273383  0.744095  0.186550  1
  O  O24  1  0.772629  0.244180  0.186523  1
  O  O25  1  0.769763  0.753239  0.183996  1
  O  O26  1  0.268995  0.253152  0.184008  1
  O  O27  1  0.998806  0.292383  0.209108  1
  O  O28  1  0.499095  0.792385  0.209110  1
  O  O29  1  0.277851  0.254976  0.259428  1
  O  O30  1  0.778149  0.754990  0.259429  1
  O  O31  1  0.987772  0.002331  0.466342  1
  O  O32  1  0.487756  0.502339  0.466337  1
  O  O33  1  0.987717  0.997584  0.297420  1
  O  O34  1  0.487779  0.497588  0.297416  1
  O  O35  1  0.249192  0.911544  0.488066  1
  O  O36  1  0.748849  0.411520  0.488063  1
  O  O37  1  0.249077  0.088370  0.275696  1
  O  O38  1  0.749042  0.588395  0.275692  1
  O  O39  1  0.749334  0.091293  0.275036  1
  O  O40  1  0.249282  0.591274  0.275040  1
  O  O41  1  0.749433  0.908629  0.488721  1
  O  O42  1  0.249085  0.408660  0.488716  1
  O  O43  1  0.993675  0.926685  0.284786  1
  O  O44  1  0.493518  0.426688  0.284782  1
  O  O45  1  0.993584  0.073233  0.478975  1
  O  O46  1  0.493637  0.573237  0.478973  1
  O  O47  1  0.747429  0.903571  0.334346  1
  O  O48  1  0.247285  0.403593  0.334339  1
  O  O49  1  0.747387  0.096340  0.429412  1
  O  O50  1  0.247321  0.596336  0.429420  1
  O  O51  1  0.249115  0.093900  0.430556  1
  O  O52  1  0.749056  0.593926  0.430544  1
  O  O53  1  0.249160  0.906014  0.333206  1
  O  O54  1  0.749022  0.406008  0.333205  1
  O  O55  1  0.990636  0.661737  0.282205  1
  O  O56  1  0.490483  0.161735  0.282204  1
  O  O57  1  0.990488  0.338187  0.481551  1
  O  O58  1  0.490634  0.838182  0.481556  1
  O  O59  1  0.987701  0.670333  0.471428  1
  O  O60  1  0.487543  0.170330  0.471429  1
  O  O61  1  0.987511  0.329588  0.292329  1
  O  O62  1  0.487756  0.829590  0.292333  1
  O  O63  1  0.989220  0.662755  0.376323  1
  O  O64  1  0.489082  0.162739  0.376325  1
  O  O65  1  0.989078  0.337181  0.387431  1
  O  O66  1  0.489199  0.837171  0.387436  1
  O  O67  1  0.990816  0.678535  0.419851  1
  O  O68  1  0.490734  0.178517  0.419855  1
  O  O69  1  0.990727  0.321402  0.343901  1
  O  O70  1  0.490821  0.821386  0.343910  1
  O  O71  1  0.273383  0.744095  0.427068  1
  O  O72  1  0.772629  0.244180  0.427041  1
  O  O73  1  0.272642  0.255745  0.336713  1
  O  O74  1  0.773503  0.755841  0.336690  1
  O  O75  1  0.769016  0.246764  0.339232  1
  O  O76  1  0.269885  0.746672  0.339246  1
  O  O77  1  0.769763  0.753239  0.424514  1
  O  O78  1  0.268995  0.253152  0.424526  1
  O  O79  1  0.000000  0.707538  0.314132  1
  O  O80  1  0.498808  0.207537  0.314130  1
  O  O81  1  0.998806  0.292383  0.449626  1
  O  O82  1  0.499095  0.792385  0.449628  1
  O  O83  1  0.278149  0.744929  0.263813  1
  O  O84  1  0.777848  0.244946  0.263810  1
  O  O85  1  0.277851  0.254976  0.499946  1
  O  O86  1  0.778149  0.754990  0.499947  1
  O  O87  1  0.987717  0.997584  0.537938  1
  O  O88  1  0.487779  0.497588  0.537934  1
  O  O89  1  0.249077  0.088370  0.516214  1
  O  O90  1  0.749042  0.588395  0.516210  1
  O  O91  1  0.749334  0.091293  0.515554  1
  O  O92  1  0.249282  0.591274  0.515558  1
  O  O93  1  0.993675  0.926685  0.525304  1
  O  O94  1  0.493518  0.426688  0.525300  1
  O  O95  1  0.747429  0.903571  0.574864  1
  O  O96  1  0.247285  0.403593  0.574857  1
  O  O97  1  0.249160  0.906014  0.573724  1
  O  O98  1  0.749022  0.406008  0.573723  1
  O  O99  1  0.990636  0.661737  0.522723  1
  O  O100  1  0.490483  0.161735  0.522722  1
  O  O101  1  0.987511  0.329588  0.532847  1
  O  O102  1  0.487756  0.829590  0.532851  1
  O  O103  1  0.989220  0.662755  0.616842  1
  O  O104  1  0.489082  0.162739  0.616843  1
  O  O105  1  0.989078  0.337181  0.627949  1
  O  O106  1  0.489199  0.837171  0.627954  1
  O  O107  1  0.990727  0.321402  0.584419  1
  O  O108  1  0.490821  0.821386  0.584428  1
  O  O109  1  0.272642  0.255745  0.577231  1
  O  O110  1  0.773503  0.755841  0.577208  1
  O  O111  1  0.769016  0.246764  0.579750  1
  O  O112  1  0.269885  0.746672  0.579764  1
  O  O113  1  -0.000000  0.707538  0.554650  1
  O  O114  1  0.498808  0.207537  0.554648  1
  O  O115  1  0.278149  0.744929  0.504331  1
  O  O116  1  0.777848  0.244946  0.504328  1
  Si  Si117  1  0.994873  0.938089  0.250899  1
  Si  Si118  1  0.494636  0.438094  0.250894  1
  Si  Si119  1  0.994238  0.066744  0.209936  1
  Si  Si120  1  0.494235  0.566750  0.209933  1
  Si  Si121  1  0.994274  0.373340  0.256025  1
  Si  Si122  1  0.494523  0.873337  0.256028  1
  Si  Si123  1  0.993935  0.631543  0.173002  1
  Si  Si124  1  0.493932  0.131531  0.173003  1
  Si  Si125  1  0.006621  0.712455  0.194617  1
  Si  Si126  1  0.506146  0.212449  0.194616  1
  Si  Si127  1  0.006434  0.283243  0.181551  1
  Si  Si128  1  0.506914  0.783239  0.181555  1
  Si  Si129  1  0.011066  0.282280  0.242696  1
  Si  Si130  1  0.511333  0.782280  0.242699  1
  Si  Si131  1  0.994873  0.938089  0.491417  1
  Si  Si132  1  0.494636  0.438094  0.491412  1
  Si  Si133  1  0.994751  0.061828  0.272344  1
  Si  Si134  1  0.494790  0.561832  0.272342  1
  Si  Si135  1  0.994285  0.933173  0.313308  1
  Si  Si136  1  0.494180  0.433176  0.313303  1
  Si  Si137  1  0.994238  0.066744  0.450454  1
  Si  Si138  1  0.494235  0.566750  0.450451  1
  Si  Si139  1  0.994438  0.626584  0.267213  1
  Si  Si140  1  0.494388  0.126584  0.267213  1
  Si  Si141  1  0.994274  0.373340  0.496543  1
  Si  Si142  1  0.494523  0.873337  0.496546  1
  Si  Si143  1  0.993935  0.631543  0.413520  1
  Si  Si144  1  0.493932  0.131531  0.413521  1
  Si  Si145  1  0.993878  0.368390  0.350235  1
  Si  Si146  1  0.493982  0.868381  0.350239  1
  Si  Si147  1  0.006621  0.712455  0.435135  1
  Si  Si148  1  0.506146  0.212449  0.435134  1
  Si  Si149  1  0.006150  0.287473  0.328622  1
  Si  Si150  1  0.506697  0.787468  0.328625  1
  Si  Si151  1  0.006987  0.716685  0.341686  1
  Si  Si152  1  0.506441  0.216678  0.341687  1
  Si  Si153  1  0.006434  0.283243  0.422069  1
  Si  Si154  1  0.506914  0.783239  0.422073  1
  Si  Si155  1  0.011334  0.717641  0.280544  1
  Si  Si156  1  0.511065  0.217641  0.280541  1
  Si  Si157  1  0.011066  0.282280  0.483214  1
  Si  Si158  1  0.511333  0.782280  0.483217  1
  Si  Si159  1  0.994751  0.061828  0.512862  1
  Si  Si160  1  0.494790  0.561832  0.512860  1
  Si  Si161  1  0.994285  0.933173  0.553826  1
  Si  Si162  1  0.494180  0.433176  0.553821  1
  Si  Si163  1  0.994438  0.626584  0.507731  1
  Si  Si164  1  0.494388  0.126584  0.507731  1
  Si  Si165  1  0.993878  0.368390  0.590753  1
  Si  Si166  1  0.493982  0.868381  0.590757  1
  Si  Si167  1  0.006150  0.287473  0.569140  1
  Si  Si168  1  0.506697  0.787468  0.569143  1
  Si  Si169  1  0.006987  0.716685  0.582205  1
  Si  Si170  1  0.506441  0.216678  0.582205  1
  Si  Si171  1  0.011334  0.717641  0.521062  1
  Si  Si172  1  0.511065  0.217641  0.521059  1
  H  H173  1  0.989220  0.662755  0.118120  1
  H  H174  1  0.489082  0.162739  0.118122  1
  H  H175  1  0.989078  0.337181  0.129228  1
  H  H176  1  0.489199  0.837171  0.129233  1
  H  H177  1  0.989220  0.662755  0.634527  1
  H  H178  1  0.489082  0.162739  0.634528  1
  H  H179  1  0.989078  0.337181  0.645634  1
  H  H180  1  0.489199  0.837171  0.645639  1
