# generated using pymatgen
data_Si2H2O5
_symmetry_space_group_name_H-M   'P 1'
_cell_length_a   14.18479336
_cell_length_b   9.93846944
_cell_length_c   30.44147515
_cell_angle_alpha   119.65059947
_cell_angle_beta   90.00000000
_cell_angle_gamma   90.00000000
_symmetry_Int_Tables_number   1
_chemical_formula_structural   Si2H2O5
_chemical_formula_sum   'Si12 H12 O30'
_cell_volume   3729.55627062
_cell_formula_units_Z   6
loop_
 _symmetry_equiv_pos_site_id
 _symmetry_equiv_pos_as_xyz
  1  'x, y, z'
loop_
 _atom_site_type_symbol
 _atom_site_label
 _atom_site_symmetry_multiplicity
 _atom_site_fract_x
 _atom_site_fract_y
 _atom_site_fract_z
 _atom_site_occupancy
  O  O1  1  0.731432  0.721273  0.240352  1
  O  O2  1  0.730069  0.280139  0.218773  1
  O  O3  1  0.769798  0.221366  0.290038  1
  O  O4  1  0.269799  0.278818  0.218562  1
  O  O5  1  0.269310  0.719946  0.240140  1
  O  O6  1  0.230068  0.220045  0.289823  1
  O  O7  1  0.899363  0.318369  0.249543  1
  O  O8  1  0.600550  0.182429  0.308358  1
  O  O9  1  0.599506  0.811277  0.310752  1
  O  O10  1  0.100550  0.317756  0.249459  1
  O  O11  1  0.401197  0.810678  0.310646  1
  O  O12  1  0.399363  0.181815  0.308244  1
  O  O13  1  0.774472  0.501802  0.310615  1
  O  O14  1  0.725831  -0.000000  0.310297  1
  O  O15  1  0.225831  0.500488  0.310425  1
  O  O16  1  0.274472  0.998382  0.310063  1
  O  O17  1  0.500185  0.972297  0.232953  1
  O  O18  1  0.000000  0.527887  0.241932  1
  O  O19  1  0.731432  0.721273  0.401863  1
  O  O20  1  0.730069  0.280139  0.380284  1
  O  O21  1  0.769310  0.780239  0.330634  1
  O  O22  1  0.269799  0.278818  0.380074  1
  O  O23  1  0.269310  0.719946  0.401652  1
  O  O24  1  0.231432  0.778912  0.330417  1
  O  O25  1  0.901196  0.689507  0.371831  1
  O  O26  1  0.099506  0.688907  0.371744  1
  O  O27  1  0.500128  0.016424  0.321650  1
  O  O28  1  -0.000000  0.483760  0.316374  1
  O  O29  1  0.500185  0.972297  0.394465  1
  O  O30  1  -0.000000  0.527887  0.403443  1
  Si  Si31  1  0.792338  0.330298  0.267379  1
  Si  Si32  1  0.706307  0.828368  0.297927  1
  Si  Si33  1  0.207604  0.329098  0.267190  1
  Si  Si34  1  0.294358  0.827175  0.297730  1
  Si  Si35  1  0.500044  0.102594  0.290895  1
  Si  Si36  1  0.000000  0.397591  0.257785  1
  Si  Si37  1  0.794358  0.673009  0.353586  1
  Si  Si38  1  0.707604  0.171086  0.322425  1
  Si  Si39  1  0.206307  0.671817  0.353399  1
  Si  Si40  1  0.292339  0.169887  0.322226  1
  Si  Si41  1  0.500270  0.884891  0.334677  1
  Si  Si42  1  0.000000  0.615293  0.371889  1
  H  H43  1  0.731432  0.721273  0.210787  1
  H  H44  1  0.730069  0.280139  0.189208  1
  H  H45  1  0.269799  0.278818  0.188997  1
  H  H46  1  0.269310  0.719946  0.210575  1
  H  H47  1  0.500185  0.972297  0.203388  1
  H  H48  1  0.000000  0.527887  0.212367  1
  H  H49  1  0.731432  0.721273  0.431428  1
  H  H50  1  0.730069  0.280139  0.409849  1
  H  H51  1  0.269799  0.278818  0.409639  1
  H  H52  1  0.269310  0.719946  0.431217  1
  H  H53  1  0.500185  0.972297  0.424030  1
  H  H54  1  0.000000  0.527887  0.433008  1
