# generated using pymatgen
data_Si72H2O145
_symmetry_space_group_name_H-M   'P 1'
_cell_length_a   14.29860979
_cell_length_b   14.30928535
_cell_length_c   71.29044830
_cell_angle_alpha   90.00000000
_cell_angle_beta   90.00000000
_cell_angle_gamma   120.00000000
_symmetry_Int_Tables_number   1
_chemical_formula_structural   Si72H2O145
_chemical_formula_sum   'Si144 H4 O290'
_cell_volume   12632.047093
_cell_formula_units_Z   2
loop_
 _symmetry_equiv_pos_site_id
 _symmetry_equiv_pos_as_xyz
  1  'x, y, z'
loop_
 _atom_site_type_symbol
 _atom_site_label
 _atom_site_symmetry_multiplicity
 _atom_site_fract_x
 _atom_site_fract_y
 _atom_site_fract_z
 _atom_site_occupancy
  O  O1  1  0.662804  0.330763  0.082761  1
  O  O2  1  0.548629  0.274174  0.113543  1
  O  O3  1  0.725474  0.274278  0.113244  1
  O  O4  1  0.725348  0.450693  0.113199  1
  O  O5  1  0.404733  0.107695  0.133179  1
  O  O6  1  0.892391  0.297040  0.132963  1
  O  O7  1  0.297320  0.405078  0.132936  1
  O  O8  1  0.703181  0.107877  0.132950  1
  O  O9  1  0.404815  0.296909  0.133223  1
  O  O10  1  0.108048  0.404931  0.132913  1
  O  O11  1  0.550272  0.274891  0.148478  1
  O  O12  1  0.725172  0.274996  0.148193  1
  O  O13  1  0.725065  0.449613  0.148148  1
  O  O14  1  0.669696  0.334994  0.179046  1
  O  O15  1  0.000000  0.378554  0.163283  1
  O  O16  1  0.378423  0.379386  0.163353  1
  O  O17  1  0.500226  0.499960  0.137990  1
  O  O18  1  0.395921  0.104905  0.192505  1
  O  O19  1  0.895402  0.290601  0.192592  1
  O  O20  1  0.290923  0.395497  0.192768  1
  O  O21  1  0.709821  0.104938  0.192628  1
  O  O22  1  0.395887  0.290477  0.192500  1
  O  O23  1  0.105326  0.395533  0.192624  1
  O  O24  1  0.621831  -0.000000  0.163285  1
  O  O25  1  0.500325  0.499869  0.188969  1
  O  O26  1  0.000000  0.499765  0.137956  1
  O  O27  1  0.000000  0.499912  0.188894  1
  O  O28  1  0.545582  0.272509  0.206920  1
  O  O29  1  0.727738  0.272419  0.207155  1
  O  O30  1  0.727744  0.454730  0.207228  1
  O  O31  1  0.545200  0.272615  0.305729  1
  O  O32  1  0.727457  0.272746  0.305436  1
  O  O33  1  0.727221  0.454958  0.305412  1
  O  O34  1  0.353206  0.176277  0.221937  1
  O  O35  1  0.824257  0.176215  0.222006  1
  O  O36  1  0.175908  0.352129  0.222079  1
  O  O37  1  0.175762  0.351796  0.290603  1
  O  O38  1  0.353097  0.176766  0.290674  1
  O  O39  1  0.824052  0.176457  0.290593  1
  O  O40  1  0.000000  0.177955  0.231008  1
  O  O41  1  0.179733  0.179052  0.230969  1
  O  O42  1  0.179256  0.178551  0.281647  1
  O  O43  1  0.000000  0.177859  0.281645  1
  O  O44  1  0.277272  0.138389  0.256299  1
  O  O45  1  0.861735  0.137757  0.256313  1
  O  O46  1  0.138113  0.275657  0.256335  1
  O  O47  1  0.179620  -0.000000  0.230970  1
  O  O48  1  0.180058  0.000000  0.281647  1
  O  O49  1  0.548272  0.274006  0.399098  1
  O  O50  1  0.725051  0.274085  0.399360  1
  O  O51  1  0.724937  0.450570  0.399434  1
  O  O52  1  0.297077  0.405184  0.379727  1
  O  O53  1  0.404285  0.107701  0.379423  1
  O  O54  1  0.891957  0.296873  0.379660  1
  O  O55  1  0.107692  0.404821  0.379738  1
  O  O56  1  0.702669  0.107804  0.379581  1
  O  O57  1  0.404556  0.297003  0.379446  1
  O  O58  1  0.549909  0.274977  0.364157  1
  O  O59  1  0.724841  0.275127  0.364417  1
  O  O60  1  0.724707  0.449718  0.364485  1
  O  O61  1  0.669319  0.335009  0.333580  1
  O  O62  1  0.378248  0.379520  0.349319  1
  O  O63  1  -0.000000  0.378417  0.349366  1
  O  O64  1  0.290517  0.395702  0.319946  1
  O  O65  1  0.395137  0.104950  0.320104  1
  O  O66  1  0.894687  0.290345  0.320071  1
  O  O67  1  0.104608  0.395183  0.320000  1
  O  O68  1  0.708933  0.104886  0.319894  1
  O  O69  1  0.395527  0.290744  0.320141  1
  O  O70  1  0.621062  0.000000  0.349235  1
  O  O71  1  0.000000  0.499641  0.323765  1
  O  O72  1  0.000000  0.499630  0.374710  1
  O  O73  1  0.451574  0.725624  0.113509  1
  O  O74  1  0.274761  0.725531  0.113308  1
  O  O75  1  0.274844  0.549084  0.113167  1
  O  O76  1  0.703141  0.594851  0.132960  1
  O  O77  1  0.595486  0.892113  0.133150  1
  O  O78  1  0.107882  0.702595  0.133010  1
  O  O79  1  0.892253  0.594636  0.132926  1
  O  O80  1  0.297029  0.891899  0.133009  1
  O  O81  1  0.595523  0.702974  0.133178  1
  O  O82  1  0.450058  0.724828  0.148450  1
  O  O83  1  0.275201  0.724785  0.148250  1
  O  O84  1  0.275193  0.550125  0.148120  1
  O  O85  1  0.330891  0.664354  0.179047  1
  O  O86  1  0.378768  0.000000  0.163312  1
  O  O87  1  0.621908  0.620658  0.163339  1
  O  O88  1  0.336806  0.669661  0.082760  1
  O  O89  1  0.000000  0.620909  0.163292  1
  O  O90  1  0.500145  0.000000  0.137922  1
  O  O91  1  0.500373  -0.000000  0.188927  1
  O  O92  1  0.709745  0.604270  0.192691  1
  O  O93  1  0.604726  0.894891  0.192475  1
  O  O94  1  0.105282  0.709292  0.192551  1
  O  O95  1  0.895375  0.604222  0.192660  1
  O  O96  1  0.290899  0.894923  0.192642  1
  O  O97  1  0.604666  0.709243  0.192526  1
  O  O98  1  0.454895  0.727319  0.206908  1
  O  O99  1  0.272758  0.727359  0.207134  1
  O  O100  1  0.272726  0.545031  0.207263  1
  O  O101  1  0.454289  0.726988  0.305677  1
  O  O102  1  0.272259  0.727237  0.305526  1
  O  O103  1  0.271964  0.544799  0.305373  1
  O  O104  1  0.824209  0.647547  0.222059  1
  O  O105  1  0.647102  0.823420  0.221938  1
  O  O106  1  0.176152  0.823556  0.221992  1
  O  O107  1  0.646673  0.823139  0.290656  1
  O  O108  1  0.175490  0.822997  0.290615  1
  O  O109  1  0.824384  0.647875  0.290603  1
  O  O110  1  0.820602  0.820729  0.230978  1
  O  O111  1  0.000000  0.821520  0.230980  1
  O  O112  1  0.000000  0.822026  0.281613  1
  O  O113  1  0.820457  0.820844  0.281654  1
  O  O114  1  0.861994  0.723950  0.256325  1
  O  O115  1  0.722799  0.861260  0.256309  1
  O  O116  1  0.138370  0.861902  0.256297  1
  O  O117  1  0.820042  -0.000000  0.281659  1
  O  O118  1  0.820513  0.000000  0.230990  1
  O  O119  1  0.451332  0.725782  0.399095  1
  O  O120  1  0.274553  0.725667  0.399328  1
  O  O121  1  0.274538  0.549182  0.399467  1
  O  O122  1  0.595057  0.892188  0.379389  1
  O  O123  1  0.107527  0.702510  0.379652  1
  O  O124  1  0.702895  0.594964  0.379698  1
  O  O125  1  0.296576  0.891897  0.379602  1
  O  O126  1  0.595269  0.703147  0.379440  1
  O  O127  1  0.891912  0.594544  0.379743  1
  O  O128  1  0.449620  0.724743  0.364161  1
  O  O129  1  0.274770  0.724746  0.364376  1
  O  O130  1  0.274748  0.550075  0.364522  1
  O  O131  1  0.330498  0.664128  0.333580  1
  O  O132  1  0.499464  0.000000  0.323623  1
  O  O133  1  0.000000  0.620748  0.349378  1
  O  O134  1  0.378062  -0.000000  0.349280  1
  O  O135  1  0.621718  0.620776  0.349308  1
  O  O136  1  0.603904  0.894902  0.320042  1
  O  O137  1  0.104629  0.708985  0.320091  1
  O  O138  1  0.709407  0.604651  0.319919  1
  O  O139  1  0.290010  0.894849  0.319962  1
  O  O140  1  0.604181  0.709453  0.320135  1
  O  O141  1  0.894767  0.604058  0.320039  1
  O  O142  1  0.499615  0.000000  0.374637  1
  O  O143  1  0.500016  0.500105  0.374676  1
  O  O144  1  0.499988  0.500098  0.323691  1
  O  O145  1  0.662804  0.330763  0.429865  1
  O  O146  1  0.548629  0.274174  0.460646  1
  O  O147  1  0.725474  0.274278  0.460348  1
  O  O148  1  0.725348  0.450693  0.460302  1
  O  O149  1  0.404733  0.107695  0.480283  1
  O  O150  1  0.892391  0.297040  0.480067  1
  O  O151  1  0.297320  0.405078  0.480040  1
  O  O152  1  0.703181  0.107877  0.480053  1
  O  O153  1  0.404815  0.296909  0.480327  1
  O  O154  1  0.108048  0.404931  0.480017  1
  O  O155  1  0.550272  0.274891  0.495582  1
  O  O156  1  0.725172  0.274996  0.495296  1
  O  O157  1  0.725065  0.449613  0.495252  1
  O  O158  1  0.669696  0.334994  0.526149  1
  O  O159  1  -0.000000  0.378554  0.510387  1
  O  O160  1  0.378423  0.379386  0.510457  1
  O  O161  1  0.500226  0.499960  0.485094  1
  O  O162  1  0.395921  0.104905  0.539609  1
  O  O163  1  0.895402  0.290601  0.539696  1
  O  O164  1  0.290923  0.395497  0.539871  1
  O  O165  1  0.709821  0.104938  0.539732  1
  O  O166  1  0.395887  0.290477  0.539604  1
  O  O167  1  0.105326  0.395533  0.539727  1
  O  O168  1  0.621831  0.000000  0.510389  1
  O  O169  1  0.500325  0.499869  0.536073  1
  O  O170  1  0.000000  0.499765  0.485060  1
  O  O171  1  0.000000  0.499912  0.535998  1
  O  O172  1  0.545582  0.272509  0.554024  1
  O  O173  1  0.727738  0.272419  0.554259  1
  O  O174  1  0.727744  0.454730  0.554332  1
  O  O175  1  0.545200  0.272615  0.652833  1
  O  O176  1  0.727457  0.272746  0.652540  1
  O  O177  1  0.727221  0.454958  0.652516  1
  O  O178  1  0.353206  0.176277  0.569041  1
  O  O179  1  0.824257  0.176215  0.569109  1
  O  O180  1  0.175908  0.352129  0.569183  1
  O  O181  1  0.175762  0.351796  0.637707  1
  O  O182  1  0.353097  0.176766  0.637778  1
  O  O183  1  0.824052  0.176457  0.637697  1
  O  O184  1  -0.000000  0.177955  0.578112  1
  O  O185  1  0.179733  0.179052  0.578072  1
  O  O186  1  0.179256  0.178551  0.628751  1
  O  O187  1  0.000000  0.177859  0.628749  1
  O  O188  1  0.277272  0.138389  0.603403  1
  O  O189  1  0.861735  0.137757  0.603416  1
  O  O190  1  0.138113  0.275657  0.603439  1
  O  O191  1  0.179620  0.000000  0.578074  1
  O  O192  1  0.180058  -0.000000  0.628751  1
  O  O193  1  0.548272  0.274006  0.746202  1
  O  O194  1  0.725051  0.274085  0.746463  1
  O  O195  1  0.724937  0.450570  0.746537  1
  O  O196  1  0.297077  0.405184  0.726831  1
  O  O197  1  0.404285  0.107701  0.726527  1
  O  O198  1  0.891957  0.296873  0.726764  1
  O  O199  1  0.107692  0.404821  0.726842  1
  O  O200  1  0.702669  0.107804  0.726685  1
  O  O201  1  0.404556  0.297003  0.726550  1
  O  O202  1  0.549909  0.274977  0.711261  1
  O  O203  1  0.724841  0.275127  0.711521  1
  O  O204  1  0.724707  0.449718  0.711589  1
  O  O205  1  0.669319  0.335009  0.680684  1
  O  O206  1  0.378248  0.379520  0.696423  1
  O  O207  1  0.000000  0.378417  0.696470  1
  O  O208  1  0.290517  0.395702  0.667050  1
  O  O209  1  0.395137  0.104950  0.667208  1
  O  O210  1  0.894687  0.290345  0.667175  1
  O  O211  1  0.104608  0.395183  0.667103  1
  O  O212  1  0.708933  0.104886  0.666998  1
  O  O213  1  0.395527  0.290744  0.667244  1
  O  O214  1  0.621062  -0.000000  0.696339  1
  O  O215  1  0.000000  0.499641  0.670869  1
  O  O216  1  -0.000000  0.499630  0.721814  1
  O  O217  1  0.451574  0.725624  0.460613  1
  O  O218  1  0.274761  0.725531  0.460412  1
  O  O219  1  0.274844  0.549084  0.460271  1
  O  O220  1  0.703141  0.594851  0.480063  1
  O  O221  1  0.595486  0.892113  0.480254  1
  O  O222  1  0.107882  0.702595  0.480114  1
  O  O223  1  0.892253  0.594636  0.480030  1
  O  O224  1  0.297029  0.891899  0.480113  1
  O  O225  1  0.595523  0.702974  0.480282  1
  O  O226  1  0.450058  0.724828  0.495554  1
  O  O227  1  0.275201  0.724785  0.495354  1
  O  O228  1  0.275193  0.550125  0.495224  1
  O  O229  1  0.330891  0.664354  0.526150  1
  O  O230  1  0.378768  0.000000  0.510416  1
  O  O231  1  0.621908  0.620658  0.510443  1
  O  O232  1  0.336806  0.669661  0.429864  1
  O  O233  1  0.000000  0.620909  0.510395  1
  O  O234  1  0.500145  0.000000  0.485026  1
  O  O235  1  0.500373  0.000000  0.536031  1
  O  O236  1  0.709745  0.604270  0.539794  1
  O  O237  1  0.604726  0.894891  0.539579  1
  O  O238  1  0.105282  0.709292  0.539655  1
  O  O239  1  0.895375  0.604222  0.539764  1
  O  O240  1  0.290899  0.894923  0.539746  1
  O  O241  1  0.604666  0.709243  0.539630  1
  O  O242  1  0.454895  0.727319  0.554012  1
  O  O243  1  0.272758  0.727359  0.554238  1
  O  O244  1  0.272726  0.545031  0.554367  1
  O  O245  1  0.454289  0.726988  0.652781  1
  O  O246  1  0.272259  0.727237  0.652630  1
  O  O247  1  0.271964  0.544799  0.652477  1
  O  O248  1  0.824209  0.647547  0.569163  1
  O  O249  1  0.647102  0.823420  0.569041  1
  O  O250  1  0.176152  0.823556  0.569096  1
  O  O251  1  0.646673  0.823139  0.637760  1
  O  O252  1  0.175490  0.822997  0.637719  1
  O  O253  1  0.824384  0.647875  0.637707  1
  O  O254  1  0.820602  0.820729  0.578082  1
  O  O255  1  -0.000000  0.821520  0.578084  1
  O  O256  1  0.000000  0.822026  0.628717  1
  O  O257  1  0.820457  0.820844  0.628758  1
  O  O258  1  0.861994  0.723950  0.603429  1
  O  O259  1  0.722799  0.861260  0.603413  1
  O  O260  1  0.138370  0.861902  0.603400  1
  O  O261  1  0.820042  0.000000  0.628763  1
  O  O262  1  0.820513  -0.000000  0.578094  1
  O  O263  1  0.451332  0.725782  0.746199  1
  O  O264  1  0.274553  0.725667  0.746432  1
  O  O265  1  0.274538  0.549182  0.746571  1
  O  O266  1  0.595057  0.892188  0.726493  1
  O  O267  1  0.107527  0.702510  0.726756  1
  O  O268  1  0.702895  0.594964  0.726802  1
  O  O269  1  0.296576  0.891897  0.726706  1
  O  O270  1  0.595269  0.703147  0.726544  1
  O  O271  1  0.891912  0.594544  0.726847  1
  O  O272  1  0.449620  0.724743  0.711264  1
  O  O273  1  0.274770  0.724746  0.711480  1
  O  O274  1  0.274748  0.550075  0.711625  1
  O  O275  1  0.330498  0.664128  0.680684  1
  O  O276  1  0.499464  0.000000  0.670726  1
  O  O277  1  -0.000000  0.620748  0.696482  1
  O  O278  1  0.378062  0.000000  0.696384  1
  O  O279  1  0.621718  0.620776  0.696412  1
  O  O280  1  0.603904  0.894902  0.667146  1
  O  O281  1  0.104629  0.708985  0.667194  1
  O  O282  1  0.709407  0.604651  0.667023  1
  O  O283  1  0.290010  0.894849  0.667066  1
  O  O284  1  0.604181  0.709453  0.667239  1
  O  O285  1  0.894767  0.604058  0.667143  1
  O  O286  1  0.499615  -0.000000  0.721740  1
  O  O287  1  0.500016  0.500105  0.721780  1
  O  O288  1  0.499988  0.500098  0.670795  1
  O  O289  1  0.662804  0.330763  0.776969  1
  O  O290  1  0.336806  0.669661  0.776968  1
  Si  Si291  1  0.391448  0.391325  0.185063  1
  Si  Si292  1  0.469864  0.234824  0.131095  1
  Si  Si293  1  0.765214  0.234982  0.130784  1
  Si  Si294  1  0.235216  0.470088  0.130718  1
  Si  Si295  1  -0.000000  0.391577  0.141534  1
  Si  Si296  1  0.667342  0.333469  0.157122  1
  Si  Si297  1  0.391760  0.391908  0.141606  1
  Si  Si298  1  0.665871  0.332649  0.104611  1
  Si  Si299  1  0.000000  0.391222  0.184996  1
  Si  Si300  1  0.609190  0.000000  0.184997  1
  Si  Si301  1  0.608588  -0.000000  0.141541  1
  Si  Si302  1  0.666918  0.333612  0.311598  1
  Si  Si303  1  0.667283  0.333408  0.201029  1
  Si  Si304  1  0.420819  0.210144  0.203350  1
  Si  Si305  1  0.790247  0.210177  0.203473  1
  Si  Si306  1  0.210324  0.420283  0.203569  1
  Si  Si307  1  0.209770  0.420070  0.309096  1
  Si  Si308  1  0.420442  0.210403  0.309289  1
  Si  Si309  1  0.789705  0.210223  0.309113  1
  Si  Si310  1  0.250062  0.124746  0.234731  1
  Si  Si311  1  0.875368  0.124085  0.234755  1
  Si  Si312  1  0.124703  0.248665  0.234768  1
  Si  Si313  1  0.124458  0.248426  0.277894  1
  Si  Si314  1  0.250024  0.124744  0.277865  1
  Si  Si315  1  0.875120  0.124107  0.277882  1
  Si  Si316  1  0.666959  0.333587  0.355504  1
  Si  Si317  1  0.608317  0.000000  0.327526  1
  Si  Si318  1  0.665558  0.332513  0.408015  1
  Si  Si319  1  0.234870  0.470097  0.381931  1
  Si  Si320  1  0.469515  0.234808  0.381542  1
  Si  Si321  1  0.764759  0.234863  0.381806  1
  Si  Si322  1  0.391547  0.392041  0.371066  1
  Si  Si323  1  0.000000  0.391444  0.371116  1
  Si  Si324  1  0.391132  0.391553  0.327609  1
  Si  Si325  1  0.000000  0.390953  0.327654  1
  Si  Si326  1  0.608028  -0.000000  0.370984  1
  Si  Si327  1  0.333058  0.666196  0.157123  1
  Si  Si328  1  0.334241  0.667210  0.104610  1
  Si  Si329  1  0.765079  0.529672  0.130747  1
  Si  Si330  1  0.530392  0.764993  0.131058  1
  Si  Si331  1  0.235062  0.764793  0.130850  1
  Si  Si332  1  0.391726  -0.000000  0.141564  1
  Si  Si333  1  0.608655  0.608072  0.141593  1
  Si  Si334  1  -0.000000  0.607907  0.141544  1
  Si  Si335  1  0.609111  0.608482  0.185049  1
  Si  Si336  1  0.391535  0.000000  0.185019  1
  Si  Si337  1  0.000000  0.608518  0.185004  1
  Si  Si338  1  0.332621  0.666113  0.311597  1
  Si  Si339  1  0.333181  0.666320  0.201029  1
  Si  Si340  1  0.790197  0.579465  0.203541  1
  Si  Si341  1  0.579651  0.789627  0.203336  1
  Si  Si342  1  0.210324  0.789674  0.203465  1
  Si  Si343  1  0.579067  0.789542  0.309244  1
  Si  Si344  1  0.209645  0.789369  0.309172  1
  Si  Si345  1  0.789856  0.579684  0.309107  1
  Si  Si346  1  0.875504  0.750972  0.234758  1
  Si  Si347  1  0.750161  0.874905  0.234749  1
  Si  Si348  1  0.124848  0.875552  0.234732  1
  Si  Si349  1  0.749901  0.874901  0.277880  1
  Si  Si350  1  0.124809  0.875543  0.277860  1
  Si  Si351  1  0.875491  0.751208  0.277883  1
  Si  Si352  1  0.390674  -0.000000  0.327570  1
  Si  Si353  1  0.332586  0.666110  0.355504  1
  Si  Si354  1  0.334050  0.667330  0.408014  1
  Si  Si355  1  0.608774  0.608734  0.327598  1
  Si  Si356  1  0.530065  0.765106  0.381535  1
  Si  Si357  1  0.234723  0.764804  0.381784  1
  Si  Si358  1  0.764729  0.529667  0.381903  1
  Si  Si359  1  0.000000  0.607781  0.371126  1
  Si  Si360  1  0.391178  -0.000000  0.371025  1
  Si  Si361  1  0.608435  0.608210  0.371055  1
  Si  Si362  1  0.000000  0.608270  0.327666  1
  Si  Si363  1  0.391448  0.391325  0.532167  1
  Si  Si364  1  0.469864  0.234824  0.478199  1
  Si  Si365  1  0.765214  0.234982  0.477888  1
  Si  Si366  1  0.235216  0.470088  0.477822  1
  Si  Si367  1  0.000000  0.391577  0.488638  1
  Si  Si368  1  0.667342  0.333469  0.504226  1
  Si  Si369  1  0.391760  0.391908  0.488710  1
  Si  Si370  1  0.665871  0.332649  0.451714  1
  Si  Si371  1  0.000000  0.391222  0.532100  1
  Si  Si372  1  0.609190  -0.000000  0.532101  1
  Si  Si373  1  0.608588  0.000000  0.488645  1
  Si  Si374  1  0.666918  0.333612  0.658701  1
  Si  Si375  1  0.667283  0.333408  0.548133  1
  Si  Si376  1  0.420819  0.210144  0.550454  1
  Si  Si377  1  0.790247  0.210177  0.550577  1
  Si  Si378  1  0.210324  0.420283  0.550673  1
  Si  Si379  1  0.209770  0.420070  0.656200  1
  Si  Si380  1  0.420442  0.210403  0.656392  1
  Si  Si381  1  0.789705  0.210223  0.656217  1
  Si  Si382  1  0.250062  0.124746  0.581835  1
  Si  Si383  1  0.875368  0.124085  0.581859  1
  Si  Si384  1  0.124703  0.248665  0.581872  1
  Si  Si385  1  0.124458  0.248426  0.624998  1
  Si  Si386  1  0.250024  0.124744  0.624968  1
  Si  Si387  1  0.875120  0.124107  0.624985  1
  Si  Si388  1  0.666959  0.333587  0.702608  1
  Si  Si389  1  0.608317  0.000000  0.674629  1
  Si  Si390  1  0.665558  0.332513  0.755119  1
  Si  Si391  1  0.234870  0.470097  0.729035  1
  Si  Si392  1  0.469515  0.234808  0.728646  1
  Si  Si393  1  0.764759  0.234863  0.728909  1
  Si  Si394  1  0.391547  0.392041  0.718170  1
  Si  Si395  1  0.000000  0.391444  0.718220  1
  Si  Si396  1  0.391132  0.391553  0.674713  1
  Si  Si397  1  0.000000  0.390953  0.674757  1
  Si  Si398  1  0.608028  0.000000  0.718088  1
  Si  Si399  1  0.333058  0.666196  0.504227  1
  Si  Si400  1  0.334241  0.667210  0.451714  1
  Si  Si401  1  0.765079  0.529672  0.477851  1
  Si  Si402  1  0.530392  0.764993  0.478162  1
  Si  Si403  1  0.235062  0.764793  0.477954  1
  Si  Si404  1  0.391726  -0.000000  0.488668  1
  Si  Si405  1  0.608655  0.608072  0.488697  1
  Si  Si406  1  -0.000000  0.607907  0.488648  1
  Si  Si407  1  0.609111  0.608482  0.532153  1
  Si  Si408  1  0.391535  0.000000  0.532123  1
  Si  Si409  1  0.000000  0.608518  0.532108  1
  Si  Si410  1  0.332621  0.666113  0.658701  1
  Si  Si411  1  0.333181  0.666320  0.548133  1
  Si  Si412  1  0.790197  0.579465  0.550645  1
  Si  Si413  1  0.579651  0.789627  0.550439  1
  Si  Si414  1  0.210324  0.789674  0.550569  1
  Si  Si415  1  0.579067  0.789542  0.656347  1
  Si  Si416  1  0.209645  0.789369  0.656276  1
  Si  Si417  1  0.789856  0.579684  0.656211  1
  Si  Si418  1  0.875504  0.750972  0.581862  1
  Si  Si419  1  0.750161  0.874905  0.581853  1
  Si  Si420  1  0.124848  0.875552  0.581836  1
  Si  Si421  1  0.749901  0.874901  0.624984  1
  Si  Si422  1  0.124809  0.875543  0.624964  1
  Si  Si423  1  0.875491  0.751208  0.624987  1
  Si  Si424  1  0.390674  0.000000  0.674674  1
  Si  Si425  1  0.332586  0.666110  0.702608  1
  Si  Si426  1  0.334050  0.667330  0.755118  1
  Si  Si427  1  0.608774  0.608734  0.674702  1
  Si  Si428  1  0.530065  0.765106  0.728639  1
  Si  Si429  1  0.234723  0.764804  0.728888  1
  Si  Si430  1  0.764729  0.529667  0.729007  1
  Si  Si431  1  0.000000  0.607781  0.718230  1
  Si  Si432  1  0.391178  0.000000  0.718129  1
  Si  Si433  1  0.608435  0.608210  0.718159  1
  Si  Si434  1  0.000000  0.608270  0.674770  1
  H  H435  1  0.662804  0.330763  0.070137  1
  H  H436  1  0.336806  0.669661  0.070136  1
  H  H437  1  0.662804  0.330763  0.789593  1
  H  H438  1  0.336806  0.669661  0.789592  1
