# generated using pymatgen
data_Si7H2O15
_symmetry_space_group_name_H-M   'P 1'
_cell_length_a   5.06243706
_cell_length_b   11.18977051
_cell_length_c   35.36260654
_cell_angle_alpha   90.00000000
_cell_angle_beta   90.00000000
_cell_angle_gamma   90.00000000
_symmetry_Int_Tables_number   1
_chemical_formula_structural   Si7H2O15
_chemical_formula_sum   'Si14 H4 O30'
_cell_volume   2003.20356974
_cell_formula_units_Z   2
loop_
 _symmetry_equiv_pos_site_id
 _symmetry_equiv_pos_as_xyz
  1  'x, y, z'
loop_
 _atom_site_type_symbol
 _atom_site_label
 _atom_site_symmetry_multiplicity
 _atom_site_fract_x
 _atom_site_fract_y
 _atom_site_fract_z
 _atom_site_occupancy
  O  O1  1  0.006394  0.766132  0.166843  1
  O  O2  1  0.509298  0.451902  0.168734  1
  O  O3  1  0.009861  0.141667  0.315727  1
  O  O4  1  0.509865  0.858160  0.401490  1
  O  O5  1  0.791219  0.998157  0.361761  1
  O  O6  1  0.291222  0.001674  0.355456  1
  O  O7  1  0.009806  0.911978  0.302894  1
  O  O8  1  0.509786  0.087851  0.414324  1
  O  O9  1  0.748121  0.328719  0.293193  1
  O  O10  1  0.248038  0.671124  0.424011  1
  O  O11  1  0.747975  0.665183  0.425176  1
  O  O12  1  0.248056  0.334626  0.292046  1
  O  O13  1  0.005473  0.328939  0.354349  1
  O  O14  1  0.505522  0.670891  0.362865  1
  O  O15  1  0.006300  0.766147  0.242844  1
  O  O16  1  0.506204  0.233693  0.474372  1
  O  O17  1  0.506372  0.233718  0.550373  1
  O  O18  1  0.718379  0.728467  0.300557  1
  O  O19  1  0.218301  0.271348  0.416656  1
  O  O20  1  0.716046  0.292904  0.411975  1
  O  O21  1  0.216125  0.706932  0.305239  1
  O  O22  1  0.508874  0.522789  0.307596  1
  O  O23  1  0.008833  0.477035  0.409619  1
  O  O24  1  0.509508  0.451888  0.240954  1
  O  O25  1  0.009534  0.547945  0.476261  1
  O  O26  1  0.009152  0.547952  0.548479  1
  O  O27  1  0.727260  0.621544  0.204837  1
  O  O28  1  0.224698  0.600805  0.204857  1
  O  O29  1  0.724627  0.399042  0.512349  1
  O  O30  1  0.227189  0.378299  0.512388  1
  Si  Si31  1  0.025231  0.013647  0.333469  1
  Si  Si32  1  0.525230  0.986182  0.383748  1
  Si  Si33  1  0.003254  0.281296  0.312837  1
  Si  Si34  1  0.503223  0.718531  0.404377  1
  Si  Si35  1  0.987903  0.781285  0.287117  1
  Si  Si36  1  0.487835  0.218546  0.430098  1
  Si  Si37  1  0.487414  0.657355  0.319068  1
  Si  Si38  1  0.987347  0.342471  0.398146  1
  Si  Si39  1  0.503530  0.406856  0.282779  1
  Si  Si40  1  0.003491  0.592971  0.434435  1
  Si  Si41  1  0.492296  0.531718  0.204846  1
  Si  Si42  1  0.992228  0.468126  0.512370  1
  Si  Si43  1  0.992483  0.692674  0.204844  1
  Si  Si44  1  0.492415  0.307171  0.512370  1
  H  H45  1  0.006394  0.766132  0.141392  1
  H  H46  1  0.509298  0.451902  0.143284  1
  H  H47  1  0.506372  0.233718  0.575823  1
  H  H48  1  0.009152  0.547952  0.573930  1
