# generated using pymatgen
data_Si66H2O133
_symmetry_space_group_name_H-M   'P 1'
_cell_length_a   9.50193370
_cell_length_b   7.29401298
_cell_length_c   113.75672024
_cell_angle_alpha   90.00000000
_cell_angle_beta   90.00000000
_cell_angle_gamma   90.45000000
_symmetry_Int_Tables_number   1
_chemical_formula_structural   Si66H2O133
_chemical_formula_sum   'Si132 H4 O266'
_cell_volume   7883.91975072
_cell_formula_units_Z   2
loop_
 _symmetry_equiv_pos_site_id
 _symmetry_equiv_pos_as_xyz
  1  'x, y, z'
loop_
 _atom_site_type_symbol
 _atom_site_label
 _atom_site_symmetry_multiplicity
 _atom_site_fract_x
 _atom_site_fract_y
 _atom_site_fract_z
 _atom_site_occupancy
  O  O1  1  0.711187  0.828118  0.284355  1
  O  O2  1  0.211167  0.827966  0.149629  1
  O  O3  1  0.288692  0.171794  0.284356  1
  O  O4  1  0.788674  0.171645  0.149627  1
  O  O5  1  0.288641  0.171686  0.088830  1
  O  O6  1  0.788696  0.171737  0.223555  1
  O  O7  1  0.711135  0.828007  0.088830  1
  O  O8  1  0.211190  0.828061  0.223559  1
  O  O9  1  0.912820  0.737217  0.271117  1
  O  O10  1  0.412778  0.737117  0.136389  1
  O  O11  1  0.087077  0.262614  0.271115  1
  O  O12  1  0.587036  0.262515  0.136390  1
  O  O13  1  0.087025  0.262538  0.102070  1
  O  O14  1  0.587082  0.262620  0.236795  1
  O  O15  1  0.912768  0.737140  0.102068  1
  O  O16  1  0.412825  0.737223  0.236797  1
  O  O17  1  0.716828  0.500412  0.274287  1
  O  O18  1  0.216815  0.500265  0.139560  1
  O  O19  1  0.283026  0.499492  0.274286  1
  O  O20  1  0.783016  0.499344  0.139559  1
  O  O21  1  0.282993  0.499380  0.098899  1
  O  O22  1  0.783063  0.499443  0.233623  1
  O  O23  1  0.716793  0.500300  0.098899  1
  O  O24  1  0.216864  0.500364  0.233628  1
  O  O25  1  0.883825  0.582920  0.290721  1
  O  O26  1  0.383836  0.582798  0.155992  1
  O  O27  1  0.116018  0.416954  0.290718  1
  O  O28  1  0.616025  0.416825  0.155993  1
  O  O29  1  0.115983  0.416865  0.082466  1
  O  O30  1  0.616049  0.416933  0.217192  1
  O  O31  1  0.883794  0.582838  0.082465  1
  O  O32  1  0.383855  0.582900  0.217194  1
  O  O33  1  0.000000  0.000000  0.216661  1
  O  O34  1  0.499894  0.000000  0.081935  1
  O  O35  1  0.000000  0.000000  0.156524  1
  O  O36  1  0.499941  -0.000000  0.291251  1
  O  O37  1  0.814693  0.842775  0.229732  1
  O  O38  1  0.314628  0.842706  0.095005  1
  O  O39  1  0.185244  0.157054  0.229731  1
  O  O40  1  0.685181  0.156987  0.095004  1
  O  O41  1  0.185202  0.156948  0.143455  1
  O  O42  1  0.685216  0.157093  0.278180  1
  O  O43  1  0.814650  0.842667  0.143453  1
  O  O44  1  0.314665  0.842814  0.278181  1
  O  O45  1  0.749489  0.914504  0.208533  1
  O  O46  1  0.249405  0.914480  0.073808  1
  O  O47  1  0.250471  0.085224  0.208535  1
  O  O48  1  0.750386  0.085198  0.073806  1
  O  O49  1  0.250405  0.085168  0.164653  1
  O  O50  1  0.750439  0.085311  0.299377  1
  O  O51  1  0.749423  0.914449  0.164650  1
  O  O52  1  0.249457  0.914590  0.299379  1
  O  O53  1  0.840615  0.112517  0.051865  1
  O  O54  1  0.340643  0.112487  0.186594  1
  O  O55  1  0.159230  0.887256  0.051866  1
  O  O56  1  0.659257  0.887225  0.186592  1
  O  O57  1  0.000000  0.000000  0.305115  1
  O  O58  1  0.499917  0.000000  0.170388  1
  O  O59  1  0.000000  -0.000000  0.068070  1
  O  O60  1  0.499992  0.000000  0.202797  1
  O  O61  1  0.932577  0.335524  0.305779  1
  O  O62  1  0.432546  0.335415  0.171050  1
  O  O63  1  0.067330  0.664327  0.305777  1
  O  O64  1  0.567303  0.664214  0.171051  1
  O  O65  1  0.067275  0.664250  0.067407  1
  O  O66  1  0.567313  0.664313  0.202134  1
  O  O67  1  0.932518  0.335451  0.067408  1
  O  O68  1  0.432560  0.335511  0.202135  1
  O  O69  1  0.920614  0.710094  0.248722  1
  O  O70  1  0.420571  0.710030  0.113995  1
  O  O71  1  0.079278  0.289693  0.248721  1
  O  O72  1  0.579235  0.289625  0.113995  1
  O  O73  1  0.079236  0.289609  0.124465  1
  O  O74  1  0.579281  0.289738  0.259190  1
  O  O75  1  0.920571  0.710014  0.124462  1
  O  O76  1  0.420618  0.710140  0.259191  1
  O  O77  1  0.655052  0.727766  0.246125  1
  O  O78  1  0.154999  0.727740  0.111398  1
  O  O79  1  0.344853  0.271981  0.246126  1
  O  O80  1  0.844801  0.271956  0.111399  1
  O  O81  1  0.344806  0.271912  0.127060  1
  O  O82  1  0.844845  0.272081  0.261787  1
  O  O83  1  0.655005  0.727696  0.127060  1
  O  O84  1  0.155044  0.727865  0.261786  1
  O  O85  1  -0.000000  0.000000  0.258687  1
  O  O86  1  0.499921  0.000000  0.123961  1
  O  O87  1  0.000000  0.000000  0.114497  1
  O  O88  1  0.500002  0.000000  0.249225  1
  O  O89  1  0.711187  0.828118  0.553809  1
  O  O90  1  0.211167  0.827966  0.419083  1
  O  O91  1  0.288692  0.171794  0.553810  1
  O  O92  1  0.788674  0.171645  0.419081  1
  O  O93  1  0.288641  0.171686  0.358284  1
  O  O94  1  0.788696  0.171737  0.493009  1
  O  O95  1  0.711135  0.828007  0.358284  1
  O  O96  1  0.211190  0.828061  0.493013  1
  O  O97  1  0.912820  0.737217  0.540571  1
  O  O98  1  0.412778  0.737117  0.405843  1
  O  O99  1  0.087077  0.262614  0.540569  1
  O  O100  1  0.587036  0.262515  0.405844  1
  O  O101  1  0.087025  0.262538  0.371524  1
  O  O102  1  0.587082  0.262620  0.506249  1
  O  O103  1  0.912768  0.737140  0.371522  1
  O  O104  1  0.412825  0.737223  0.506251  1
  O  O105  1  0.716828  0.500412  0.543741  1
  O  O106  1  0.216815  0.500265  0.409014  1
  O  O107  1  0.283026  0.499492  0.543740  1
  O  O108  1  0.783016  0.499344  0.409013  1
  O  O109  1  0.282993  0.499380  0.368353  1
  O  O110  1  0.783063  0.499443  0.503077  1
  O  O111  1  0.716793  0.500300  0.368353  1
  O  O112  1  0.216864  0.500364  0.503082  1
  O  O113  1  0.883825  0.582920  0.560175  1
  O  O114  1  0.383836  0.582798  0.425446  1
  O  O115  1  0.116018  0.416954  0.560172  1
  O  O116  1  0.616025  0.416825  0.425447  1
  O  O117  1  0.115983  0.416865  0.351920  1
  O  O118  1  0.616049  0.416933  0.486645  1
  O  O119  1  0.883794  0.582838  0.351919  1
  O  O120  1  0.383855  0.582900  0.486648  1
  O  O121  1  0.000000  0.000000  0.486115  1
  O  O122  1  0.499894  -0.000000  0.351388  1
  O  O123  1  0.000000  -0.000000  0.425978  1
  O  O124  1  0.499941  0.000000  0.560705  1
  O  O125  1  0.814693  0.842775  0.499186  1
  O  O126  1  0.314628  0.842706  0.364459  1
  O  O127  1  0.185244  0.157054  0.499185  1
  O  O128  1  0.685181  0.156987  0.364458  1
  O  O129  1  0.185202  0.156948  0.412909  1
  O  O130  1  0.685216  0.157093  0.547634  1
  O  O131  1  0.814650  0.842667  0.412907  1
  O  O132  1  0.314665  0.842814  0.547635  1
  O  O133  1  0.749489  0.914504  0.477987  1
  O  O134  1  0.249405  0.914480  0.343262  1
  O  O135  1  0.250471  0.085224  0.477989  1
  O  O136  1  0.750386  0.085198  0.343260  1
  O  O137  1  0.250405  0.085168  0.434107  1
  O  O138  1  0.750439  0.085311  0.568831  1
  O  O139  1  0.749423  0.914449  0.434104  1
  O  O140  1  0.249457  0.914590  0.568833  1
  O  O141  1  0.840615  0.112517  0.321319  1
  O  O142  1  0.340643  0.112487  0.456048  1
  O  O143  1  0.159230  0.887256  0.321320  1
  O  O144  1  0.659257  0.887225  0.456045  1
  O  O145  1  0.000000  0.000000  0.574569  1
  O  O146  1  0.499917  0.000000  0.439842  1
  O  O147  1  0.000000  0.000000  0.337524  1
  O  O148  1  0.499992  0.000000  0.472251  1
  O  O149  1  0.932577  0.335524  0.575233  1
  O  O150  1  0.432546  0.335415  0.440504  1
  O  O151  1  0.067330  0.664327  0.575231  1
  O  O152  1  0.567303  0.664214  0.440505  1
  O  O153  1  0.067275  0.664250  0.336861  1
  O  O154  1  0.567313  0.664313  0.471588  1
  O  O155  1  0.932518  0.335451  0.336862  1
  O  O156  1  0.432560  0.335511  0.471589  1
  O  O157  1  0.920614  0.710094  0.518176  1
  O  O158  1  0.420571  0.710030  0.383449  1
  O  O159  1  0.079278  0.289693  0.518175  1
  O  O160  1  0.579235  0.289625  0.383449  1
  O  O161  1  0.079236  0.289609  0.393919  1
  O  O162  1  0.579281  0.289738  0.528644  1
  O  O163  1  0.920571  0.710014  0.393916  1
  O  O164  1  0.420618  0.710140  0.528645  1
  O  O165  1  0.655052  0.727766  0.515579  1
  O  O166  1  0.154999  0.727740  0.380852  1
  O  O167  1  0.344853  0.271981  0.515580  1
  O  O168  1  0.844801  0.271956  0.380853  1
  O  O169  1  0.344806  0.271912  0.396514  1
  O  O170  1  0.844845  0.272081  0.531241  1
  O  O171  1  0.655005  0.727696  0.396514  1
  O  O172  1  0.155044  0.727865  0.531240  1
  O  O173  1  0.000000  0.000000  0.528141  1
  O  O174  1  0.499921  0.000000  0.393415  1
  O  O175  1  0.000000  0.000000  0.383951  1
  O  O176  1  0.500002  0.000000  0.518679  1
  O  O177  1  0.711187  0.828118  0.823263  1
  O  O178  1  0.211167  0.827966  0.688537  1
  O  O179  1  0.288692  0.171794  0.823264  1
  O  O180  1  0.788674  0.171645  0.688535  1
  O  O181  1  0.288641  0.171686  0.627738  1
  O  O182  1  0.788696  0.171737  0.762463  1
  O  O183  1  0.711135  0.828007  0.627738  1
  O  O184  1  0.211190  0.828061  0.762467  1
  O  O185  1  0.912820  0.737217  0.810025  1
  O  O186  1  0.412778  0.737117  0.675297  1
  O  O187  1  0.087077  0.262614  0.810023  1
  O  O188  1  0.587036  0.262515  0.675297  1
  O  O189  1  0.087025  0.262538  0.640978  1
  O  O190  1  0.587082  0.262620  0.775703  1
  O  O191  1  0.912768  0.737140  0.640976  1
  O  O192  1  0.412825  0.737223  0.775705  1
  O  O193  1  0.716828  0.500412  0.813195  1
  O  O194  1  0.216815  0.500265  0.678468  1
  O  O195  1  0.283026  0.499492  0.813194  1
  O  O196  1  0.783016  0.499344  0.678467  1
  O  O197  1  0.282993  0.499380  0.637807  1
  O  O198  1  0.783063  0.499443  0.772531  1
  O  O199  1  0.716793  0.500300  0.637807  1
  O  O200  1  0.216864  0.500364  0.772536  1
  O  O201  1  0.883825  0.582920  0.829629  1
  O  O202  1  0.383836  0.582798  0.694900  1
  O  O203  1  0.116018  0.416954  0.829626  1
  O  O204  1  0.616025  0.416825  0.694901  1
  O  O205  1  0.115983  0.416865  0.621374  1
  O  O206  1  0.616049  0.416933  0.756099  1
  O  O207  1  0.883794  0.582838  0.621373  1
  O  O208  1  0.383855  0.582900  0.756102  1
  O  O209  1  0.000000  0.000000  0.755569  1
  O  O210  1  0.499894  0.000000  0.620842  1
  O  O211  1  -0.000000  0.000000  0.695432  1
  O  O212  1  0.499941  -0.000000  0.830159  1
  O  O213  1  0.814693  0.842775  0.768640  1
  O  O214  1  0.314628  0.842706  0.633913  1
  O  O215  1  0.185244  0.157054  0.768639  1
  O  O216  1  0.685181  0.156987  0.633912  1
  O  O217  1  0.185202  0.156948  0.682363  1
  O  O218  1  0.685216  0.157093  0.817088  1
  O  O219  1  0.814650  0.842667  0.682361  1
  O  O220  1  0.314665  0.842814  0.817089  1
  O  O221  1  0.749489  0.914504  0.747441  1
  O  O222  1  0.249405  0.914480  0.612716  1
  O  O223  1  0.250471  0.085224  0.747443  1
  O  O224  1  0.750386  0.085198  0.612714  1
  O  O225  1  0.250405  0.085168  0.703560  1
  O  O226  1  0.750439  0.085311  0.838285  1
  O  O227  1  0.749423  0.914449  0.703558  1
  O  O228  1  0.249457  0.914590  0.838287  1
  O  O229  1  0.840615  0.112517  0.590773  1
  O  O230  1  0.340643  0.112487  0.725502  1
  O  O231  1  0.159230  0.887256  0.590774  1
  O  O232  1  0.659257  0.887225  0.725499  1
  O  O233  1  0.000000  0.000000  0.844023  1
  O  O234  1  0.499917  0.000000  0.709296  1
  O  O235  1  0.000000  0.000000  0.606978  1
  O  O236  1  0.499992  -0.000000  0.741705  1
  O  O237  1  0.932577  0.335524  0.844686  1
  O  O238  1  0.432546  0.335415  0.709958  1
  O  O239  1  0.067330  0.664327  0.844685  1
  O  O240  1  0.567303  0.664214  0.709959  1
  O  O241  1  0.067275  0.664250  0.606315  1
  O  O242  1  0.567313  0.664313  0.741042  1
  O  O243  1  0.932518  0.335451  0.606316  1
  O  O244  1  0.432560  0.335511  0.741043  1
  O  O245  1  0.920614  0.710094  0.787630  1
  O  O246  1  0.420571  0.710030  0.652903  1
  O  O247  1  0.079278  0.289693  0.787629  1
  O  O248  1  0.579235  0.289625  0.652903  1
  O  O249  1  0.079236  0.289609  0.663373  1
  O  O250  1  0.579281  0.289738  0.798098  1
  O  O251  1  0.920571  0.710014  0.663370  1
  O  O252  1  0.420618  0.710140  0.798099  1
  O  O253  1  0.655052  0.727766  0.785033  1
  O  O254  1  0.154999  0.727740  0.650306  1
  O  O255  1  0.344853  0.271981  0.785034  1
  O  O256  1  0.844801  0.271956  0.650307  1
  O  O257  1  0.344806  0.271912  0.665968  1
  O  O258  1  0.844845  0.272081  0.800695  1
  O  O259  1  0.655005  0.727696  0.665968  1
  O  O260  1  0.155044  0.727865  0.800694  1
  O  O261  1  0.000000  0.000000  0.797595  1
  O  O262  1  0.499921  0.000000  0.662869  1
  O  O263  1  0.000000  0.000000  0.653405  1
  O  O264  1  0.500002  0.000000  0.788133  1
  O  O265  1  0.840615  0.112517  0.860227  1
  O  O266  1  0.159230  0.887256  0.860228  1
  Si  Si267  1  0.875664  0.134252  0.307834  1
  Si  Si268  1  0.375642  0.134145  0.173107  1
  Si  Si269  1  0.124225  0.865599  0.307834  1
  Si  Si270  1  0.624205  0.865493  0.173107  1
  Si  Si271  1  0.124183  0.865526  0.065351  1
  Si  Si272  1  0.624249  0.865569  0.200078  1
  Si  Si273  1  0.875620  0.134178  0.065351  1
  Si  Si274  1  0.375688  0.134222  0.200078  1
  Si  Si275  1  0.801511  0.663546  0.280080  1
  Si  Si276  1  0.301493  0.663408  0.145352  1
  Si  Si277  1  0.198359  0.336342  0.280078  1
  Si  Si278  1  0.698342  0.336206  0.145352  1
  Si  Si279  1  0.198313  0.336243  0.093107  1
  Si  Si280  1  0.698380  0.336303  0.227832  1
  Si  Si281  1  0.801464  0.663444  0.093106  1
  Si  Si282  1  0.301531  0.663507  0.227835  1
  Si  Si283  1  0.838675  0.979045  0.219361  1
  Si  Si284  1  0.338607  0.978995  0.084634  1
  Si  Si285  1  0.161252  0.020754  0.219361  1
  Si  Si286  1  0.661184  0.020703  0.084634  1
  Si  Si287  1  0.161210  0.020661  0.153825  1
  Si  Si288  1  0.661230  0.020809  0.288551  1
  Si  Si289  1  0.838633  0.978954  0.153823  1
  Si  Si290  1  0.338652  0.979100  0.288552  1
  Si  Si291  1  0.797703  0.694244  0.239499  1
  Si  Si292  1  0.297648  0.694189  0.104772  1
  Si  Si293  1  0.202210  0.305548  0.239500  1
  Si  Si294  1  0.702153  0.305492  0.104772  1
  Si  Si295  1  0.202163  0.305457  0.133687  1
  Si  Si296  1  0.702193  0.305608  0.268413  1
  Si  Si297  1  0.797657  0.694154  0.133685  1
  Si  Si298  1  0.297685  0.694304  0.268413  1
  Si  Si299  1  0.998820  0.787892  0.259870  1
  Si  Si300  1  0.498796  0.787783  0.125143  1
  Si  Si301  1  0.001046  0.211957  0.259870  1
  Si  Si302  1  0.501023  0.211847  0.125143  1
  Si  Si303  1  0.001010  0.211867  0.113316  1
  Si  Si304  1  0.501077  0.211940  0.248042  1
  Si  Si305  1  0.998783  0.787803  0.113314  1
  Si  Si306  1  0.498851  0.787875  0.248043  1
  Si  Si307  1  0.000000  0.499929  0.298781  1
  Si  Si308  1  0.499927  0.499815  0.164054  1
  Si  Si309  1  -0.000000  0.499854  0.074404  1
  Si  Si310  1  0.499941  0.499913  0.209131  1
  Si  Si311  1  0.875664  0.134252  0.577288  1
  Si  Si312  1  0.375642  0.134145  0.442561  1
  Si  Si313  1  0.124225  0.865599  0.577288  1
  Si  Si314  1  0.624205  0.865493  0.442561  1
  Si  Si315  1  0.124183  0.865526  0.334805  1
  Si  Si316  1  0.624249  0.865569  0.469532  1
  Si  Si317  1  0.875620  0.134178  0.334805  1
  Si  Si318  1  0.375688  0.134222  0.469532  1
  Si  Si319  1  0.801511  0.663546  0.549534  1
  Si  Si320  1  0.301493  0.663408  0.414806  1
  Si  Si321  1  0.198359  0.336342  0.549532  1
  Si  Si322  1  0.698342  0.336206  0.414806  1
  Si  Si323  1  0.198313  0.336243  0.362561  1
  Si  Si324  1  0.698380  0.336303  0.497286  1
  Si  Si325  1  0.801464  0.663444  0.362560  1
  Si  Si326  1  0.301531  0.663507  0.497289  1
  Si  Si327  1  0.838675  0.979045  0.488815  1
  Si  Si328  1  0.338607  0.978995  0.354088  1
  Si  Si329  1  0.161252  0.020754  0.488815  1
  Si  Si330  1  0.661184  0.020703  0.354088  1
  Si  Si331  1  0.161210  0.020661  0.423279  1
  Si  Si332  1  0.661230  0.020809  0.558005  1
  Si  Si333  1  0.838633  0.978954  0.423277  1
  Si  Si334  1  0.338652  0.979100  0.558006  1
  Si  Si335  1  0.797703  0.694244  0.508952  1
  Si  Si336  1  0.297648  0.694189  0.374226  1
  Si  Si337  1  0.202210  0.305548  0.508954  1
  Si  Si338  1  0.702153  0.305492  0.374226  1
  Si  Si339  1  0.202163  0.305457  0.403141  1
  Si  Si340  1  0.702193  0.305608  0.537867  1
  Si  Si341  1  0.797657  0.694154  0.403139  1
  Si  Si342  1  0.297685  0.694304  0.537867  1
  Si  Si343  1  0.998820  0.787892  0.529324  1
  Si  Si344  1  0.498796  0.787783  0.394597  1
  Si  Si345  1  0.001046  0.211957  0.529323  1
  Si  Si346  1  0.501023  0.211847  0.394597  1
  Si  Si347  1  0.001010  0.211867  0.382770  1
  Si  Si348  1  0.501077  0.211940  0.517496  1
  Si  Si349  1  0.998783  0.787803  0.382768  1
  Si  Si350  1  0.498851  0.787875  0.517497  1
  Si  Si351  1  -0.000000  0.499929  0.568235  1
  Si  Si352  1  0.499927  0.499815  0.433508  1
  Si  Si353  1  -0.000000  0.499854  0.343858  1
  Si  Si354  1  0.499941  0.499913  0.478585  1
  Si  Si355  1  0.875664  0.134252  0.846742  1
  Si  Si356  1  0.375642  0.134145  0.712015  1
  Si  Si357  1  0.124225  0.865599  0.846742  1
  Si  Si358  1  0.624205  0.865493  0.712015  1
  Si  Si359  1  0.124183  0.865526  0.604259  1
  Si  Si360  1  0.624249  0.865569  0.738986  1
  Si  Si361  1  0.875620  0.134178  0.604259  1
  Si  Si362  1  0.375688  0.134222  0.738986  1
  Si  Si363  1  0.801511  0.663546  0.818988  1
  Si  Si364  1  0.301493  0.663408  0.684260  1
  Si  Si365  1  0.198359  0.336342  0.818986  1
  Si  Si366  1  0.698342  0.336206  0.684260  1
  Si  Si367  1  0.198313  0.336243  0.632015  1
  Si  Si368  1  0.698380  0.336303  0.766740  1
  Si  Si369  1  0.801464  0.663444  0.632014  1
  Si  Si370  1  0.301531  0.663507  0.766743  1
  Si  Si371  1  0.838675  0.979045  0.758269  1
  Si  Si372  1  0.338607  0.978995  0.623542  1
  Si  Si373  1  0.161252  0.020754  0.758269  1
  Si  Si374  1  0.661184  0.020703  0.623542  1
  Si  Si375  1  0.161210  0.020661  0.692733  1
  Si  Si376  1  0.661230  0.020809  0.827459  1
  Si  Si377  1  0.838633  0.978954  0.692731  1
  Si  Si378  1  0.338652  0.979100  0.827459  1
  Si  Si379  1  0.797703  0.694244  0.778406  1
  Si  Si380  1  0.297648  0.694189  0.643680  1
  Si  Si381  1  0.202210  0.305548  0.778408  1
  Si  Si382  1  0.702153  0.305492  0.643680  1
  Si  Si383  1  0.202163  0.305457  0.672595  1
  Si  Si384  1  0.702193  0.305608  0.807321  1
  Si  Si385  1  0.797657  0.694154  0.672593  1
  Si  Si386  1  0.297685  0.694304  0.807321  1
  Si  Si387  1  0.998820  0.787892  0.798778  1
  Si  Si388  1  0.498796  0.787783  0.664051  1
  Si  Si389  1  0.001046  0.211957  0.798777  1
  Si  Si390  1  0.501023  0.211847  0.664051  1
  Si  Si391  1  0.001010  0.211867  0.652224  1
  Si  Si392  1  0.501077  0.211940  0.786949  1
  Si  Si393  1  0.998783  0.787803  0.652222  1
  Si  Si394  1  0.498851  0.787875  0.786951  1
  Si  Si395  1  0.000000  0.499929  0.837689  1
  Si  Si396  1  0.499927  0.499815  0.702962  1
  Si  Si397  1  0.000000  0.499854  0.613312  1
  Si  Si398  1  0.499941  0.499913  0.748039  1
  H  H399  1  0.840615  0.112517  0.043953  1
  H  H400  1  0.159230  0.887256  0.043955  1
  H  H401  1  0.840615  0.112517  0.868139  1
  H  H402  1  0.159230  0.887256  0.868140  1
