# generated using pymatgen
data_Si12H2O25
_symmetry_space_group_name_H-M   'P 1'
_cell_length_a   19.86970473
_cell_length_b   7.45570403
_cell_length_c   39.99782572
_cell_angle_alpha   90.00000000
_cell_angle_beta   90.00000000
_cell_angle_gamma   90.00000000
_symmetry_Int_Tables_number   1
_chemical_formula_structural   Si12H2O25
_chemical_formula_sum   'Si48 H8 O100'
_cell_volume   5925.38340131
_cell_formula_units_Z   4
loop_
 _symmetry_equiv_pos_site_id
 _symmetry_equiv_pos_as_xyz
  1  'x, y, z'
loop_
 _atom_site_type_symbol
 _atom_site_label
 _atom_site_symmetry_multiplicity
 _atom_site_fract_x
 _atom_site_fract_y
 _atom_site_fract_z
 _atom_site_occupancy
  O  O1  1  -0.000000  -0.000000  0.279621  1
  O  O2  1  0.499926  0.000000  0.506845  1
  O  O3  1  -0.000000  -0.000000  0.470371  1
  O  O4  1  0.499946  0.000000  0.243141  1
  O  O5  1  0.000000  0.500049  0.279622  1
  O  O6  1  0.499928  0.500213  0.506850  1
  O  O7  1  -0.000000  0.500226  0.470369  1
  O  O8  1  0.499945  0.500056  0.243140  1
  O  O9  1  0.082414  0.250068  0.295516  1
  O  O10  1  0.582802  0.250187  0.522438  1
  O  O11  1  0.082379  0.250201  0.454470  1
  O  O12  1  0.582827  0.250059  0.227546  1
  O  O13  1  0.917484  0.750060  0.295515  1
  O  O14  1  0.417044  0.750206  0.522440  1
  O  O15  1  0.917463  0.750182  0.454468  1
  O  O16  1  0.417068  0.750073  0.227547  1
  O  O17  1  0.096934  0.922039  0.318094  1
  O  O18  1  0.596357  0.922355  0.545521  1
  O  O19  1  0.096905  0.922161  0.431891  1
  O  O20  1  0.596365  0.922239  0.204467  1
  O  O21  1  0.902944  0.422023  0.318089  1
  O  O22  1  0.403512  0.422377  0.545529  1
  O  O23  1  0.902962  0.422140  0.431888  1
  O  O24  1  0.403509  0.422253  0.204471  1
  O  O25  1  0.902952  0.078216  0.431885  1
  O  O26  1  0.403521  0.077901  0.204464  1
  O  O27  1  0.902950  0.078095  0.318099  1
  O  O28  1  0.403499  0.078023  0.545520  1
  O  O29  1  0.096927  0.578239  0.431894  1
  O  O30  1  0.596357  0.577885  0.204458  1
  O  O31  1  0.096921  0.578109  0.318103  1
  O  O32  1  0.596373  0.578002  0.545517  1
  O  O33  1  0.123495  -0.000000  0.257698  1
  O  O34  1  0.623306  0.995605  0.484997  1
  O  O35  1  0.123467  -0.000000  0.492289  1
  O  O36  1  0.623328  0.995478  0.264991  1
  O  O37  1  0.876403  0.499088  0.257691  1
  O  O38  1  0.376549  0.495599  0.485004  1
  O  O39  1  0.876383  0.499210  0.492286  1
  O  O40  1  0.376571  0.495510  0.264997  1
  O  O41  1  0.876364  0.001159  0.492282  1
  O  O42  1  0.376568  0.004649  0.264990  1
  O  O43  1  0.876396  0.001027  0.257700  1
  O  O44  1  0.376540  0.004788  0.484998  1
  O  O45  1  0.123476  0.501163  0.492295  1
  O  O46  1  0.623324  0.504645  0.264985  1
  O  O47  1  0.123491  0.501065  0.257702  1
  O  O48  1  0.623301  0.504771  0.484991  1
  O  O49  1  0.305030  0.250068  0.292308  1
  O  O50  1  0.809128  0.250211  0.520727  1
  O  O51  1  0.305006  0.250220  0.457679  1
  O  O52  1  0.809122  0.250047  0.229268  1
  O  O53  1  0.694857  0.750044  0.292310  1
  O  O54  1  0.190742  0.750227  0.520721  1
  O  O55  1  0.694864  0.750200  0.457686  1
  O  O56  1  0.190765  0.750062  0.229266  1
  O  O57  1  0.250351  0.994861  0.260912  1
  O  O58  1  0.749516  0.005459  0.489083  1
  O  O59  1  0.250314  0.994980  0.489054  1
  O  O60  1  0.749552  0.005287  0.260935  1
  O  O61  1  0.749546  0.494812  0.260926  1
  O  O62  1  0.250329  0.505456  0.489068  1
  O  O63  1  0.749521  0.494955  0.489070  1
  O  O64  1  0.250352  0.505298  0.260923  1
  O  O65  1  0.304113  0.920563  0.316604  1
  O  O66  1  0.803897  0.920021  0.544151  1
  O  O67  1  0.304117  0.920715  0.433374  1
  O  O68  1  0.803879  0.919863  0.205850  1
  O  O69  1  0.695753  0.420540  0.316609  1
  O  O70  1  0.195987  0.420047  0.544148  1
  O  O71  1  0.695755  0.420692  0.433377  1
  O  O72  1  0.195992  0.419884  0.205849  1
  O  O73  1  0.695764  0.079700  0.433385  1
  O  O74  1  0.195983  0.080249  0.205839  1
  O  O75  1  0.695753  0.079547  0.316616  1
  O  O76  1  0.195988  0.080411  0.544138  1
  O  O77  1  0.304122  0.579727  0.433382  1
  O  O78  1  0.803878  0.580227  0.205845  1
  O  O79  1  0.304118  0.579572  0.316614  1
  O  O80  1  0.803891  0.580393  0.544142  1
  O  O81  1  0.394255  0.250136  0.147515  1
  O  O82  1  0.893646  0.250154  0.374991  1
  O  O83  1  0.605618  0.750131  0.147508  1
  O  O84  1  0.106229  0.750157  0.374997  1
  O  O85  1  0.299043  0.250057  0.189364  1
  O  O86  1  0.798347  0.250203  0.416734  1
  O  O87  1  0.299039  0.250226  0.560631  1
  O  O88  1  0.798340  0.250056  0.333257  1
  O  O89  1  0.700827  0.750058  0.189360  1
  O  O90  1  0.201528  0.750215  0.416736  1
  O  O91  1  0.700836  0.750206  0.560626  1
  O  O92  1  0.201531  0.750062  0.333257  1
  O  O93  1  0.203933  0.250142  0.147513  1
  O  O94  1  0.703095  0.250118  0.374997  1
  O  O95  1  0.795942  0.750105  0.147516  1
  O  O96  1  0.296776  0.750146  0.374994  1
  O  O97  1  0.394255  0.250136  0.602477  1
  O  O98  1  0.605618  0.750131  0.602471  1
  O  O99  1  0.203933  0.250142  0.602476  1
  O  O100  1  0.795942  0.750105  0.602478  1
  Si  Si101  1  0.075674  0.043650  0.287777  1
  Si  Si102  1  0.575660  0.043483  0.515005  1
  Si  Si103  1  0.075646  0.043780  0.462208  1
  Si  Si104  1  0.575680  0.043362  0.234984  1
  Si  Si105  1  0.924215  0.543641  0.287775  1
  Si  Si106  1  0.424196  0.543503  0.515010  1
  Si  Si107  1  0.924205  0.543766  0.462207  1
  Si  Si108  1  0.424212  0.543374  0.234986  1
  Si  Si109  1  0.924192  0.956602  0.462206  1
  Si  Si110  1  0.424213  0.956775  0.234981  1
  Si  Si111  1  0.924215  0.956485  0.287781  1
  Si  Si112  1  0.424192  0.956903  0.515003  1
  Si  Si113  1  0.075663  0.456623  0.462211  1
  Si  Si114  1  0.575677  0.456762  0.234978  1
  Si  Si115  1  0.075674  0.456491  0.287783  1
  Si  Si116  1  0.575661  0.456888  0.515001  1
  Si  Si117  1  0.309837  0.043632  0.284680  1
  Si  Si118  1  0.810665  0.043990  0.512461  1
  Si  Si119  1  0.309820  0.043779  0.465301  1
  Si  Si120  1  0.810670  0.043830  0.237538  1
  Si  Si121  1  0.690045  0.543608  0.284683  1
  Si  Si122  1  0.189198  0.544003  0.512457  1
  Si  Si123  1  0.690035  0.543758  0.465304  1
  Si  Si124  1  0.189215  0.543848  0.237538  1
  Si  Si125  1  0.690042  0.956638  0.465311  1
  Si  Si126  1  0.189212  0.956285  0.237530  1
  Si  Si127  1  0.690047  0.956485  0.284688  1
  Si  Si128  1  0.189194  0.956444  0.512450  1
  Si  Si129  1  0.309825  0.456653  0.465308  1
  Si  Si130  1  0.810672  0.456268  0.237534  1
  Si  Si131  1  0.309843  0.456511  0.284687  1
  Si  Si132  1  0.810664  0.456424  0.512453  1
  Si  Si133  1  0.377095  0.250083  0.185964  1
  Si  Si134  1  0.876386  0.250188  0.413415  1
  Si  Si135  1  0.377089  0.250191  0.564028  1
  Si  Si136  1  0.876380  0.250074  0.336567  1
  Si  Si137  1  0.622777  0.750073  0.185958  1
  Si  Si138  1  0.123488  0.750204  0.413421  1
  Si  Si139  1  0.622785  0.750178  0.564022  1
  Si  Si140  1  0.123492  0.750083  0.336571  1
  Si  Si141  1  0.220876  0.250081  0.185986  1
  Si  Si142  1  0.720162  0.250185  0.413483  1
  Si  Si143  1  0.220870  0.250210  0.564003  1
  Si  Si144  1  0.720157  0.250059  0.336511  1
  Si  Si145  1  0.778996  0.750056  0.185988  1
  Si  Si146  1  0.279712  0.750201  0.413480  1
  Si  Si147  1  0.779005  0.750189  0.564005  1
  Si  Si148  1  0.279714  0.750084  0.336508  1
  H  H149  1  0.394255  0.250136  0.125014  1
  H  H150  1  0.605618  0.750131  0.125007  1
  H  H151  1  0.203933  0.250142  0.125012  1
  H  H152  1  0.795942  0.750105  0.125015  1
  H  H153  1  0.394255  0.250136  0.624979  1
  H  H154  1  0.605618  0.750131  0.624972  1
  H  H155  1  0.203933  0.250142  0.624977  1
  H  H156  1  0.795942  0.750105  0.624980  1
