# generated using pymatgen
data_Si19H2O39
_symmetry_space_group_name_H-M   'P 1'
_cell_length_a   5.06243706
_cell_length_b   11.18977051
_cell_length_c   57.11264550
_cell_angle_alpha   90.00000000
_cell_angle_beta   90.00000000
_cell_angle_gamma   90.00000000
_symmetry_Int_Tables_number   1
_chemical_formula_structural   Si19H2O39
_chemical_formula_sum   'Si38 H4 O78'
_cell_volume   3235.2890958
_cell_formula_units_Z   2
loop_
 _symmetry_equiv_pos_site_id
 _symmetry_equiv_pos_as_xyz
  1  'x, y, z'
loop_
 _atom_site_type_symbol
 _atom_site_label
 _atom_site_symmetry_multiplicity
 _atom_site_fract_x
 _atom_site_fract_y
 _atom_site_fract_z
 _atom_site_occupancy
  O  O1  1  0.006394  0.766132  0.103305  1
  O  O2  1  0.509298  0.451902  0.104476  1
  O  O3  1  0.009485  0.141682  0.439003  1
  O  O4  1  0.009861  0.141667  0.195490  1
  O  O5  1  0.509865  0.858160  0.248592  1
  O  O6  1  0.509433  0.858188  0.385907  1
  O  O7  1  0.290962  0.001774  0.414403  1
  O  O8  1  0.791219  0.998157  0.223993  1
  O  O9  1  0.291222  0.001674  0.220089  1
  O  O10  1  0.790961  0.998094  0.410507  1
  O  O11  1  0.009735  0.911989  0.446954  1
  O  O12  1  0.009806  0.911978  0.187544  1
  O  O13  1  0.509786  0.087851  0.256538  1
  O  O14  1  0.509773  0.087880  0.377956  1
  O  O15  1  0.248564  0.334448  0.453646  1
  O  O16  1  0.748121  0.328719  0.181537  1
  O  O17  1  0.248038  0.671124  0.262536  1
  O  O18  1  0.749228  0.665590  0.371288  1
  O  O19  1  0.249292  0.670783  0.371897  1
  O  O20  1  0.747975  0.665183  0.263258  1
  O  O21  1  0.248056  0.334626  0.180827  1
  O  O22  1  0.748630  0.328925  0.452980  1
  O  O23  1  0.005560  0.328961  0.415089  1
  O  O24  1  0.005473  0.328939  0.219404  1
  O  O25  1  0.505522  0.670891  0.224676  1
  O  O26  1  0.505625  0.670901  0.409817  1
  O  O27  1  0.006394  0.766132  0.484132  1
  O  O28  1  0.006300  0.766147  0.150362  1
  O  O29  1  0.506204  0.233693  0.293718  1
  O  O30  1  0.506372  0.233718  0.340776  1
  O  O31  1  0.216090  0.706960  0.445490  1
  O  O32  1  0.718379  0.728467  0.186097  1
  O  O33  1  0.218301  0.271348  0.257982  1
  O  O34  1  0.716118  0.292930  0.379412  1
  O  O35  1  0.218375  0.271387  0.376508  1
  O  O36  1  0.716046  0.292904  0.255084  1
  O  O37  1  0.216125  0.706932  0.188996  1
  O  O38  1  0.718347  0.728467  0.448403  1
  O  O39  1  0.508796  0.522807  0.444039  1
  O  O40  1  0.508874  0.522789  0.190455  1
  O  O41  1  0.008833  0.477035  0.253625  1
  O  O42  1  0.008932  0.477063  0.380868  1
  O  O43  1  0.509298  0.451902  0.485303  1
  O  O44  1  0.509508  0.451888  0.149192  1
  O  O45  1  0.009534  0.547945  0.294888  1
  O  O46  1  0.009152  0.547952  0.339604  1
  O  O47  1  0.727260  0.621544  0.126829  1
  O  O48  1  0.224698  0.600805  0.126842  1
  O  O49  1  0.724627  0.399042  0.317233  1
  O  O50  1  0.227189  0.378299  0.317257  1
  O  O51  1  0.009861  0.141667  0.576317  1
  O  O52  1  0.509865  0.858160  0.629419  1
  O  O53  1  0.791219  0.998157  0.604820  1
  O  O54  1  0.291222  0.001674  0.600916  1
  O  O55  1  0.009806  0.911978  0.568371  1
  O  O56  1  0.509786  0.087851  0.637365  1
  O  O57  1  0.748121  0.328719  0.562364  1
  O  O58  1  0.248038  0.671124  0.643363  1
  O  O59  1  0.747975  0.665183  0.644085  1
  O  O60  1  0.248056  0.334626  0.561654  1
  O  O61  1  0.005473  0.328939  0.600231  1
  O  O62  1  0.505522  0.670891  0.605503  1
  O  O63  1  0.006300  0.766147  0.531189  1
  O  O64  1  0.506204  0.233693  0.674545  1
  O  O65  1  0.506372  0.233718  0.721603  1
  O  O66  1  0.718379  0.728467  0.566924  1
  O  O67  1  0.218301  0.271348  0.638809  1
  O  O68  1  0.716046  0.292904  0.635911  1
  O  O69  1  0.216125  0.706932  0.569823  1
  O  O70  1  0.508874  0.522789  0.571282  1
  O  O71  1  0.008833  0.477035  0.634452  1
  O  O72  1  0.509508  0.451888  0.530019  1
  O  O73  1  0.009534  0.547945  0.675715  1
  O  O74  1  0.009152  0.547952  0.720431  1
  O  O75  1  0.727260  0.621544  0.507656  1
  O  O76  1  0.224698  0.600805  0.507669  1
  O  O77  1  0.724627  0.399042  0.698060  1
  O  O78  1  0.227189  0.378299  0.698084  1
  Si  Si79  1  0.024980  0.013660  0.428021  1
  Si  Si80  1  0.025231  0.013647  0.206475  1
  Si  Si81  1  0.525230  0.986182  0.237606  1
  Si  Si82  1  0.524979  0.986211  0.396889  1
  Si  Si83  1  0.003426  0.281316  0.440792  1
  Si  Si84  1  0.003254  0.281296  0.193700  1
  Si  Si85  1  0.503223  0.718531  0.250379  1
  Si  Si86  1  0.503752  0.718553  0.384115  1
  Si  Si87  1  0.987889  0.781288  0.456720  1
  Si  Si88  1  0.987903  0.781285  0.177775  1
  Si  Si89  1  0.487835  0.218546  0.266305  1
  Si  Si90  1  0.487915  0.218576  0.368188  1
  Si  Si91  1  0.487400  0.657371  0.436935  1
  Si  Si92  1  0.487414  0.657355  0.197558  1
  Si  Si93  1  0.987347  0.342471  0.246521  1
  Si  Si94  1  0.987428  0.342500  0.387972  1
  Si  Si95  1  0.503695  0.406876  0.459405  1
  Si  Si96  1  0.503530  0.406856  0.175089  1
  Si  Si97  1  0.003491  0.592971  0.268990  1
  Si  Si98  1  0.004024  0.592988  0.365500  1
  Si  Si99  1  0.492296  0.531718  0.126835  1
  Si  Si100  1  0.992228  0.468126  0.317246  1
  Si  Si101  1  0.992483  0.692674  0.126834  1
  Si  Si102  1  0.492415  0.307171  0.317246  1
  Si  Si103  1  0.025231  0.013647  0.587302  1
  Si  Si104  1  0.525230  0.986182  0.618433  1
  Si  Si105  1  0.003254  0.281296  0.574527  1
  Si  Si106  1  0.503223  0.718531  0.631206  1
  Si  Si107  1  0.987903  0.781285  0.558602  1
  Si  Si108  1  0.487835  0.218546  0.647132  1
  Si  Si109  1  0.487414  0.657355  0.578385  1
  Si  Si110  1  0.987347  0.342471  0.627349  1
  Si  Si111  1  0.503530  0.406856  0.555916  1
  Si  Si112  1  0.003491  0.592971  0.649817  1
  Si  Si113  1  0.492296  0.531718  0.507662  1
  Si  Si114  1  0.992228  0.468126  0.698073  1
  Si  Si115  1  0.992483  0.692674  0.507661  1
  Si  Si116  1  0.492415  0.307171  0.698073  1
  H  H117  1  0.006394  0.766132  0.087546  1
  H  H118  1  0.509298  0.451902  0.088717  1
  H  H119  1  0.506372  0.233718  0.737361  1
  H  H120  1  0.009152  0.547952  0.736189  1
