# generated using pymatgen
data_Si18H2O37
_symmetry_space_group_name_H-M   'P 1'
_cell_length_a   18.09186212
_cell_length_b   7.53764703
_cell_length_c   63.84542291
_cell_angle_alpha   90.00000000
_cell_angle_beta   120.00000000
_cell_angle_gamma   90.00000000
_symmetry_Int_Tables_number   1
_chemical_formula_structural   Si18H2O37
_chemical_formula_sum   'Si72 H8 O148'
_cell_volume   7540.14097305
_cell_formula_units_Z   4
loop_
 _symmetry_equiv_pos_site_id
 _symmetry_equiv_pos_as_xyz
  1  'x, y, z'
loop_
 _atom_site_type_symbol
 _atom_site_label
 _atom_site_symmetry_multiplicity
 _atom_site_fract_x
 _atom_site_fract_y
 _atom_site_fract_z
 _atom_site_occupancy
  O  O1  1  0.739725  0.751612  0.121067  1
  O  O2  1  0.845406  0.751600  0.104531  1
  O  O3  1  0.575676  0.751606  0.104526  1
  O  O4  1  0.119630  0.420780  0.177984  1
  O  O5  1  0.119628  0.082459  0.177985  1
  O  O6  1  0.096300  0.751619  0.187302  1
  O  O7  1  0.257991  0.251616  0.194475  1
  O  O8  1  0.480496  0.251599  0.194480  1
  O  O9  1  0.152329  0.251602  0.147998  1
  O  O10  1  0.422060  0.251597  0.148003  1
  O  O11  1  0.710224  0.001608  0.186151  1
  O  O12  1  0.998885  0.501615  0.186163  1
  O  O13  1  0.998882  0.001617  0.186162  1
  O  O14  1  0.710224  0.501604  0.186151  1
  O  O15  1  0.681491  0.920773  0.143773  1
  O  O16  1  0.878086  0.920778  0.143779  1
  O  O17  1  0.560616  0.420758  0.177974  1
  O  O18  1  0.681493  0.582453  0.143774  1
  O  O19  1  0.560616  0.082444  0.177974  1
  O  O20  1  0.878088  0.582455  0.143781  1
  O  O21  1  0.832011  0.021369  0.173378  1
  O  O22  1  0.832013  0.481858  0.173379  1
  O  O23  1  0.714342  0.251612  0.159701  1
  O  O24  1  0.901435  0.251617  0.159708  1
  O  O25  1  0.616824  0.751601  0.187289  1
  O  O26  1  0.316282  0.420776  0.233684  1
  O  O27  1  0.316279  0.082461  0.233684  1
  O  O28  1  0.165767  0.521377  0.220644  1
  O  O29  1  0.165765  0.981858  0.220644  1
  O  O30  1  0.283440  0.751618  0.240306  1
  O  O31  1  0.422041  0.251605  0.224397  1
  O  O32  1  0.560594  0.420750  0.233690  1
  O  O33  1  0.560591  0.082440  0.233689  1
  O  O34  1  0.665041  0.521361  0.220632  1
  O  O35  1  0.665040  0.981836  0.220632  1
  O  O36  1  0.616799  0.751594  0.240306  1
  O  O37  1  0.437145  0.920765  0.302146  1
  O  O38  1  0.437143  0.582453  0.302146  1
  O  O39  1  0.332695  0.021368  0.315203  1
  O  O40  1  0.332694  0.481843  0.315203  1
  O  O41  1  0.380938  0.251610  0.295530  1
  O  O42  1  0.287551  0.001612  0.267922  1
  O  O43  1  0.287550  0.501613  0.267922  1
  O  O44  1  0.681458  0.920742  0.302151  1
  O  O45  1  0.681455  0.582428  0.302151  1
  O  O46  1  0.831971  0.021345  0.315191  1
  O  O47  1  0.831969  0.481826  0.315191  1
  O  O48  1  0.714296  0.251586  0.295530  1
  O  O49  1  0.575695  0.751599  0.311438  1
  O  O50  1  0.710185  0.001592  0.267913  1
  O  O51  1  0.710186  0.501590  0.267913  1
  O  O52  1  0.287511  0.501599  0.349684  1
  O  O53  1  0.287512  0.001595  0.349684  1
  O  O54  1  0.316243  0.420751  0.392061  1
  O  O55  1  0.437120  0.920760  0.357861  1
  O  O56  1  0.119647  0.420747  0.392054  1
  O  O57  1  0.316245  0.082430  0.392062  1
  O  O58  1  0.119649  0.082424  0.392056  1
  O  O59  1  0.437120  0.582447  0.357861  1
  O  O60  1  0.165723  0.521345  0.362456  1
  O  O61  1  0.165725  0.981833  0.362457  1
  O  O62  1  0.283394  0.751591  0.376134  1
  O  O63  1  0.380912  0.251602  0.348547  1
  O  O64  1  0.096301  0.751586  0.376127  1
  O  O65  1  0.998851  0.501588  0.349672  1
  O  O66  1  0.878108  0.920744  0.357850  1
  O  O67  1  0.878105  0.582423  0.357851  1
  O  O68  1  0.901435  0.251584  0.348533  1
  O  O69  1  0.739725  0.751612  0.404373  1
  O  O70  1  0.739745  0.751587  0.341361  1
  O  O71  1  0.517240  0.751605  0.341355  1
  O  O72  1  0.845406  0.751600  0.387837  1
  O  O73  1  0.575676  0.751606  0.387832  1
  O  O74  1  0.998854  0.001585  0.349673  1
  O  O75  1  0.119630  0.420780  0.461291  1
  O  O76  1  0.119628  0.082459  0.461291  1
  O  O77  1  0.096300  0.751619  0.470608  1
  O  O78  1  0.258011  0.251591  0.414768  1
  O  O79  1  0.257991  0.251616  0.477781  1
  O  O80  1  0.480496  0.251599  0.477786  1
  O  O81  1  0.152329  0.251602  0.431304  1
  O  O82  1  0.422060  0.251597  0.431309  1
  O  O83  1  0.710224  0.001608  0.469457  1
  O  O84  1  0.998885  0.501615  0.469469  1
  O  O85  1  0.998882  0.001617  0.469468  1
  O  O86  1  0.710224  0.501604  0.469457  1
  O  O87  1  0.681491  0.920773  0.427079  1
  O  O88  1  0.878086  0.920778  0.427086  1
  O  O89  1  0.560616  0.420758  0.461281  1
  O  O90  1  0.681493  0.582453  0.427080  1
  O  O91  1  0.560616  0.082444  0.461281  1
  O  O92  1  0.878088  0.582455  0.427087  1
  O  O93  1  0.832011  0.021369  0.456685  1
  O  O94  1  0.832013  0.481858  0.456685  1
  O  O95  1  0.714342  0.251612  0.443007  1
  O  O96  1  0.901435  0.251617  0.443014  1
  O  O97  1  0.616824  0.751601  0.470595  1
  O  O98  1  0.316282  0.420776  0.516990  1
  O  O99  1  0.316279  0.082461  0.516990  1
  O  O100  1  0.165767  0.521377  0.503950  1
  O  O101  1  0.165765  0.981858  0.503950  1
  O  O102  1  0.283440  0.751618  0.523612  1
  O  O103  1  0.422041  0.251605  0.507703  1
  O  O104  1  0.560594  0.420750  0.516996  1
  O  O105  1  0.560591  0.082440  0.516996  1
  O  O106  1  0.665041  0.521361  0.503938  1
  O  O107  1  0.665040  0.981836  0.503938  1
  O  O108  1  0.616799  0.751594  0.523612  1
  O  O109  1  0.437145  0.920765  0.585452  1
  O  O110  1  0.437143  0.582453  0.585452  1
  O  O111  1  0.332695  0.021368  0.598510  1
  O  O112  1  0.332694  0.481843  0.598509  1
  O  O113  1  0.380938  0.251610  0.578836  1
  O  O114  1  0.287551  0.001612  0.551229  1
  O  O115  1  0.287550  0.501613  0.551228  1
  O  O116  1  0.681458  0.920742  0.585457  1
  O  O117  1  0.681455  0.582428  0.585457  1
  O  O118  1  0.831971  0.021345  0.598497  1
  O  O119  1  0.831969  0.481826  0.598497  1
  O  O120  1  0.714296  0.251586  0.578836  1
  O  O121  1  0.575695  0.751599  0.594744  1
  O  O122  1  0.710185  0.001592  0.551219  1
  O  O123  1  0.710186  0.501590  0.551220  1
  O  O124  1  0.287511  0.501599  0.632990  1
  O  O125  1  0.287512  0.001595  0.632990  1
  O  O126  1  0.316243  0.420751  0.675367  1
  O  O127  1  0.437120  0.920760  0.641167  1
  O  O128  1  0.119647  0.420747  0.675360  1
  O  O129  1  0.316245  0.082430  0.675368  1
  O  O130  1  0.119649  0.082424  0.675362  1
  O  O131  1  0.437120  0.582447  0.641167  1
  O  O132  1  0.165723  0.521345  0.645762  1
  O  O133  1  0.165725  0.981833  0.645763  1
  O  O134  1  0.283394  0.751591  0.659441  1
  O  O135  1  0.380912  0.251602  0.631853  1
  O  O136  1  0.096301  0.751586  0.659433  1
  O  O137  1  0.998851  0.501588  0.632979  1
  O  O138  1  0.878108  0.920744  0.641156  1
  O  O139  1  0.878105  0.582423  0.641157  1
  O  O140  1  0.901435  0.251584  0.631839  1
  O  O141  1  0.739745  0.751587  0.624667  1
  O  O142  1  0.517240  0.751605  0.624661  1
  O  O143  1  0.845406  0.751600  0.671144  1
  O  O144  1  0.575676  0.751606  0.671138  1
  O  O145  1  0.998854  0.001585  0.632979  1
  O  O146  1  0.258011  0.251591  0.698074  1
  O  O147  1  0.152329  0.251602  0.714610  1
  O  O148  1  0.422060  0.251597  0.714615  1
  Si  Si149  1  0.094070  0.547745  0.193046  1
  Si  Si150  1  0.094068  0.955492  0.193047  1
  Si  Si151  1  0.161606  0.251615  0.173668  1
  Si  Si152  1  0.734602  0.047738  0.166080  1
  Si  Si153  1  0.903680  0.047742  0.166086  1
  Si  Si154  1  0.639329  0.547728  0.193033  1
  Si  Si155  1  0.734603  0.455485  0.166080  1
  Si  Si156  1  0.639330  0.955474  0.193033  1
  Si  Si157  1  0.903682  0.455490  0.166087  1
  Si  Si158  1  0.836109  0.751613  0.127570  1
  Si  Si159  1  0.666275  0.751611  0.127564  1
  Si  Si160  1  0.503410  0.251600  0.173665  1
  Si  Si161  1  0.331470  0.251616  0.221780  1
  Si  Si162  1  0.263180  0.547744  0.240944  1
  Si  Si163  1  0.263178  0.955490  0.240944  1
  Si  Si164  1  0.639306  0.955468  0.240940  1
  Si  Si165  1  0.639308  0.547722  0.240940  1
  Si  Si166  1  0.503389  0.251597  0.221786  1
  Si  Si167  1  0.494346  0.751607  0.314049  1
  Si  Si168  1  0.358430  0.047737  0.294895  1
  Si  Si169  1  0.358428  0.455482  0.294895  1
  Si  Si170  1  0.666266  0.751588  0.314055  1
  Si  Si171  1  0.734558  0.047713  0.294891  1
  Si  Si172  1  0.734556  0.455459  0.294891  1
  Si  Si173  1  0.358407  0.455475  0.342802  1
  Si  Si174  1  0.263133  0.547717  0.369755  1
  Si  Si175  1  0.358406  0.047730  0.342802  1
  Si  Si176  1  0.094053  0.547712  0.369748  1
  Si  Si177  1  0.263134  0.955466  0.369755  1
  Si  Si178  1  0.094056  0.955461  0.369749  1
  Si  Si179  1  0.494326  0.751604  0.362170  1
  Si  Si180  1  0.331461  0.251592  0.408271  1
  Si  Si181  1  0.161627  0.251590  0.408265  1
  Si  Si182  1  0.903668  0.047711  0.342788  1
  Si  Si183  1  0.903666  0.455458  0.342789  1
  Si  Si184  1  0.836130  0.751587  0.362167  1
  Si  Si185  1  0.094070  0.547745  0.476352  1
  Si  Si186  1  0.094068  0.955492  0.476353  1
  Si  Si187  1  0.161606  0.251615  0.456974  1
  Si  Si188  1  0.734602  0.047738  0.449386  1
  Si  Si189  1  0.903680  0.047742  0.449392  1
  Si  Si190  1  0.639329  0.547728  0.476339  1
  Si  Si191  1  0.734603  0.455485  0.449387  1
  Si  Si192  1  0.639330  0.955474  0.476339  1
  Si  Si193  1  0.903682  0.455490  0.449393  1
  Si  Si194  1  0.836109  0.751613  0.410876  1
  Si  Si195  1  0.666275  0.751611  0.410870  1
  Si  Si196  1  0.503410  0.251600  0.456972  1
  Si  Si197  1  0.331470  0.251616  0.505086  1
  Si  Si198  1  0.263180  0.547744  0.524250  1
  Si  Si199  1  0.263178  0.955490  0.524250  1
  Si  Si200  1  0.639306  0.955468  0.524246  1
  Si  Si201  1  0.639308  0.547722  0.524247  1
  Si  Si202  1  0.503389  0.251597  0.505093  1
  Si  Si203  1  0.494346  0.751607  0.597355  1
  Si  Si204  1  0.358430  0.047737  0.578202  1
  Si  Si205  1  0.358428  0.455482  0.578201  1
  Si  Si206  1  0.666266  0.751588  0.597361  1
  Si  Si207  1  0.734558  0.047713  0.578197  1
  Si  Si208  1  0.734556  0.455459  0.578197  1
  Si  Si209  1  0.358407  0.455475  0.626108  1
  Si  Si210  1  0.263133  0.547717  0.653061  1
  Si  Si211  1  0.358406  0.047730  0.626108  1
  Si  Si212  1  0.094053  0.547712  0.653054  1
  Si  Si213  1  0.263134  0.955466  0.653061  1
  Si  Si214  1  0.094056  0.955461  0.653055  1
  Si  Si215  1  0.494326  0.751604  0.645476  1
  Si  Si216  1  0.331461  0.251592  0.691577  1
  Si  Si217  1  0.161627  0.251590  0.691571  1
  Si  Si218  1  0.903668  0.047711  0.626095  1
  Si  Si219  1  0.903666  0.455458  0.626095  1
  Si  Si220  1  0.836130  0.751587  0.645473  1
  H  H221  1  0.845406  0.751600  0.090435  1
  H  H222  1  0.575676  0.751606  0.090429  1
  H  H223  1  0.152329  0.251602  0.133901  1
  H  H224  1  0.422060  0.251597  0.133906  1
  H  H225  1  0.845406  0.751600  0.685240  1
  H  H226  1  0.575676  0.751606  0.685235  1
  H  H227  1  0.152329  0.251602  0.728706  1
  H  H228  1  0.422060  0.251597  0.728712  1
