# generated using pymatgen
data_Si4H2O9
_symmetry_space_group_name_H-M   'P 1'
_cell_length_a   14.18479336
_cell_length_b   9.93846944
_cell_length_c   35.35813088
_cell_angle_alpha   119.65059947
_cell_angle_beta   90.00000000
_cell_angle_gamma   90.00000000
_symmetry_Int_Tables_number   1
_chemical_formula_structural   Si4H2O9
_chemical_formula_sum   'Si24 H12 O54'
_cell_volume   4331.92340692
_cell_formula_units_Z   6
loop_
 _symmetry_equiv_pos_site_id
 _symmetry_equiv_pos_as_xyz
  1  'x, y, z'
loop_
 _atom_site_type_symbol
 _atom_site_label
 _atom_site_symmetry_multiplicity
 _atom_site_fract_x
 _atom_site_fract_y
 _atom_site_fract_z
 _atom_site_occupancy
  O  O1  1  0.731432  0.721273  0.206930  1
  O  O2  1  0.730069  0.280139  0.188352  1
  O  O3  1  0.769798  0.221366  0.249708  1
  O  O4  1  0.269799  0.278818  0.188170  1
  O  O5  1  0.269310  0.719946  0.206748  1
  O  O6  1  0.230068  0.220045  0.249522  1
  O  O7  1  0.899363  0.318369  0.214843  1
  O  O8  1  0.600550  0.182429  0.265480  1
  O  O9  1  0.599506  0.811277  0.267541  1
  O  O10  1  0.100550  0.317756  0.214771  1
  O  O11  1  0.401197  0.810678  0.267450  1
  O  O12  1  0.399363  0.181815  0.265382  1
  O  O13  1  0.774472  0.501802  0.267423  1
  O  O14  1  0.725831  -0.000000  0.267149  1
  O  O15  1  0.225831  0.500488  0.267259  1
  O  O16  1  0.274472  0.998382  0.266948  1
  O  O17  1  0.500185  0.972297  0.200560  1
  O  O18  1  0.000000  0.527887  0.208290  1
  O  O19  1  0.731432  0.721273  0.345983  1
  O  O20  1  0.730069  0.280139  0.327405  1
  O  O21  1  0.769798  0.221366  0.388761  1
  O  O22  1  0.769310  0.780239  0.284658  1
  O  O23  1  0.269799  0.278818  0.327223  1
  O  O24  1  0.269310  0.719946  0.345801  1
  O  O25  1  0.231432  0.778912  0.284472  1
  O  O26  1  0.230068  0.220045  0.388575  1
  O  O27  1  0.901196  0.689507  0.320127  1
  O  O28  1  0.899363  0.318369  0.353896  1
  O  O29  1  0.600550  0.182429  0.404533  1
  O  O30  1  0.599506  0.811277  0.406594  1
  O  O31  1  0.100550  0.317756  0.353824  1
  O  O32  1  0.099506  0.688907  0.320052  1
  O  O33  1  0.401197  0.810678  0.406503  1
  O  O34  1  0.399363  0.181815  0.404435  1
  O  O35  1  0.774472  0.501802  0.406476  1
  O  O36  1  0.725831  -0.000000  0.406202  1
  O  O37  1  0.225831  0.500488  0.406312  1
  O  O38  1  0.274472  0.998382  0.406001  1
  O  O39  1  0.500128  0.016424  0.276924  1
  O  O40  1  0.000000  0.483760  0.272382  1
  O  O41  1  0.500185  0.972297  0.339613  1
  O  O42  1  0.000000  0.527887  0.347343  1
  O  O43  1  0.731432  0.721273  0.485036  1
  O  O44  1  0.730069  0.280139  0.466458  1
  O  O45  1  0.769310  0.780239  0.423711  1
  O  O46  1  0.269799  0.278818  0.466276  1
  O  O47  1  0.269310  0.719946  0.484854  1
  O  O48  1  0.231432  0.778912  0.423525  1
  O  O49  1  0.901196  0.689507  0.459180  1
  O  O50  1  0.099506  0.688907  0.459105  1
  O  O51  1  0.500128  0.016424  0.415977  1
  O  O52  1  0.000000  0.483760  0.411435  1
  O  O53  1  0.500185  0.972297  0.478666  1
  O  O54  1  0.000000  0.527887  0.486396  1
  Si  Si55  1  0.792338  0.330298  0.230199  1
  Si  Si56  1  0.706307  0.828368  0.256500  1
  Si  Si57  1  0.207604  0.329098  0.230036  1
  Si  Si58  1  0.294358  0.827175  0.256330  1
  Si  Si59  1  0.500044  0.102594  0.250445  1
  Si  Si60  1  0.000000  0.397591  0.221939  1
  Si  Si61  1  0.794358  0.673009  0.304419  1
  Si  Si62  1  0.792338  0.330298  0.369252  1
  Si  Si63  1  0.707604  0.171086  0.277591  1
  Si  Si64  1  0.706307  0.828368  0.395553  1
  Si  Si65  1  0.207604  0.329098  0.369090  1
  Si  Si66  1  0.206307  0.671817  0.304258  1
  Si  Si67  1  0.294358  0.827175  0.395383  1
  Si  Si68  1  0.292339  0.169887  0.277420  1
  Si  Si69  1  0.500044  0.102594  0.389498  1
  Si  Si70  1  0.500270  0.884891  0.288139  1
  Si  Si71  1  0.000000  0.615293  0.320177  1
  Si  Si72  1  0.000000  0.397591  0.360992  1
  Si  Si73  1  0.794358  0.673009  0.443472  1
  Si  Si74  1  0.707604  0.171086  0.416644  1
  Si  Si75  1  0.206307  0.671817  0.443311  1
  Si  Si76  1  0.292339  0.169887  0.416473  1
  Si  Si77  1  0.500270  0.884891  0.427192  1
  Si  Si78  1  0.000000  0.615293  0.459230  1
  H  H79  1  0.731432  0.721273  0.181476  1
  H  H80  1  0.730069  0.280139  0.162898  1
  H  H81  1  0.269799  0.278818  0.162717  1
  H  H82  1  0.269310  0.719946  0.181294  1
  H  H83  1  0.500185  0.972297  0.175106  1
  H  H84  1  0.000000  0.527887  0.182837  1
  H  H85  1  0.731432  0.721273  0.510490  1
  H  H86  1  0.730069  0.280139  0.491912  1
  H  H87  1  0.269799  0.278818  0.491730  1
  H  H88  1  0.269310  0.719946  0.510308  1
  H  H89  1  0.500185  0.972297  0.504120  1
  H  H90  1  0.000000  0.527887  0.511850  1
