# generated using pymatgen
data_Si24H2O49
_symmetry_space_group_name_H-M   'P 1'
_cell_length_a   7.06595653
_cell_length_b   7.06598947
_cell_length_c   73.29120221
_cell_angle_alpha   90.00000000
_cell_angle_beta   90.00000000
_cell_angle_gamma   90.00000000
_symmetry_Int_Tables_number   1
_chemical_formula_structural   Si24H2O49
_chemical_formula_sum   'Si48 H4 O98'
_cell_volume   3659.28127015
_cell_formula_units_Z   2
loop_
 _symmetry_equiv_pos_site_id
 _symmetry_equiv_pos_as_xyz
  1  'x, y, z'
loop_
 _atom_site_type_symbol
 _atom_site_label
 _atom_site_symmetry_multiplicity
 _atom_site_fract_x
 _atom_site_fract_y
 _atom_site_fract_z
 _atom_site_occupancy
  O  O1  1  0.018143  0.499834  0.080502  1
  O  O2  1  0.981787  0.000000  0.080501  1
  O  O3  1  -0.000000  0.249835  0.105731  1
  O  O4  1  0.500154  0.749752  0.222823  1
  O  O5  1  0.500184  0.249820  0.281370  1
  O  O6  1  0.000000  0.749773  0.164277  1
  O  O7  1  -0.000000  0.749834  0.289457  1
  O  O8  1  0.499772  0.249751  0.172365  1
  O  O9  1  0.499742  0.749820  0.113819  1
  O  O10  1  -0.000000  0.249774  0.230911  1
  O  O11  1  0.821389  0.572274  0.108840  1
  O  O12  1  0.321793  0.072180  0.225957  1
  O  O13  1  0.178536  0.072274  0.286347  1
  O  O14  1  0.678133  0.572180  0.169231  1
  O  O15  1  0.678533  0.427313  0.225930  1
  O  O16  1  0.178129  0.927407  0.108862  1
  O  O17  1  0.321393  0.927313  0.169258  1
  O  O18  1  0.821796  0.427407  0.286327  1
  O  O19  1  0.177313  0.571460  0.110709  1
  O  O20  1  0.677739  0.071389  0.227785  1
  O  O21  1  0.822612  0.071460  0.284480  1
  O  O22  1  0.322186  0.571389  0.167404  1
  O  O23  1  0.322606  0.428130  0.227797  1
  O  O24  1  0.822179  0.928201  0.110689  1
  O  O25  1  0.677319  0.928130  0.167391  1
  O  O26  1  0.177746  0.428201  0.284500  1
  O  O27  1  0.018143  0.499834  0.314687  1
  O  O28  1  0.518143  0.000000  0.197596  1
  O  O29  1  0.250094  0.231647  0.256150  1
  O  O30  1  0.749834  0.731646  0.139039  1
  O  O31  1  0.481787  0.499784  0.197592  1
  O  O32  1  0.981787  0.000000  0.314686  1
  O  O33  1  0.249834  0.767999  0.139057  1
  O  O34  1  0.750094  0.267999  0.256131  1
  O  O35  1  -0.000000  0.249835  0.339916  1
  O  O36  1  0.500154  0.749752  0.457008  1
  O  O37  1  0.500184  0.249820  0.515555  1
  O  O38  1  -0.000000  0.749773  0.398462  1
  O  O39  1  -0.000000  0.749834  0.523642  1
  O  O40  1  0.499772  0.249751  0.406550  1
  O  O41  1  0.499742  0.749820  0.348003  1
  O  O42  1  -0.000000  0.249774  0.465096  1
  O  O43  1  0.821389  0.572274  0.343025  1
  O  O44  1  0.321793  0.072180  0.460141  1
  O  O45  1  0.178536  0.072274  0.520532  1
  O  O46  1  0.678133  0.572180  0.403416  1
  O  O47  1  0.678533  0.427313  0.460115  1
  O  O48  1  0.178129  0.927407  0.343046  1
  O  O49  1  0.321393  0.927313  0.403443  1
  O  O50  1  0.821796  0.427407  0.520512  1
  O  O51  1  0.177313  0.571460  0.344893  1
  O  O52  1  0.677739  0.071389  0.461970  1
  O  O53  1  0.822612  0.071460  0.518665  1
  O  O54  1  0.322186  0.571389  0.401589  1
  O  O55  1  0.322606  0.428130  0.461982  1
  O  O56  1  0.822179  0.928201  0.344874  1
  O  O57  1  0.677319  0.928130  0.401576  1
  O  O58  1  0.177746  0.428201  0.518684  1
  O  O59  1  0.018143  0.499834  0.548872  1
  O  O60  1  0.518143  0.000000  0.431781  1
  O  O61  1  0.250094  0.231647  0.490334  1
  O  O62  1  0.749834  0.731646  0.373224  1
  O  O63  1  0.481787  0.499784  0.431777  1
  O  O64  1  0.981787  0.000000  0.548871  1
  O  O65  1  0.249834  0.767999  0.373242  1
  O  O66  1  0.750094  0.267999  0.490316  1
  O  O67  1  -0.000000  0.249835  0.574101  1
  O  O68  1  0.500154  0.749752  0.691193  1
  O  O69  1  0.500184  0.249820  0.749740  1
  O  O70  1  -0.000000  0.749773  0.632647  1
  O  O71  1  0.000000  0.749834  0.757827  1
  O  O72  1  0.499772  0.249751  0.640735  1
  O  O73  1  0.499742  0.749820  0.582188  1
  O  O74  1  -0.000000  0.249774  0.699281  1
  O  O75  1  0.821389  0.572274  0.577210  1
  O  O76  1  0.321793  0.072180  0.694326  1
  O  O77  1  0.178536  0.072274  0.754717  1
  O  O78  1  0.678133  0.572180  0.637601  1
  O  O79  1  0.678533  0.427313  0.694300  1
  O  O80  1  0.178129  0.927407  0.577231  1
  O  O81  1  0.321393  0.927313  0.637628  1
  O  O82  1  0.821796  0.427407  0.754697  1
  O  O83  1  0.177313  0.571460  0.579078  1
  O  O84  1  0.677739  0.071389  0.696155  1
  O  O85  1  0.822612  0.071460  0.752850  1
  O  O86  1  0.322186  0.571389  0.635774  1
  O  O87  1  0.322606  0.428130  0.696167  1
  O  O88  1  0.822179  0.928201  0.579058  1
  O  O89  1  0.677319  0.928130  0.635760  1
  O  O90  1  0.177746  0.428201  0.752869  1
  O  O91  1  0.018143  0.499834  0.783057  1
  O  O92  1  0.518143  -0.000000  0.665966  1
  O  O93  1  0.250094  0.231647  0.724519  1
  O  O94  1  0.749834  0.731646  0.607408  1
  O  O95  1  0.481787  0.499784  0.665962  1
  O  O96  1  0.981787  0.000000  0.783056  1
  O  O97  1  0.249834  0.767999  0.607427  1
  O  O98  1  0.750094  0.267999  0.724501  1
  Si  Si99  1  0.003717  0.467735  0.101536  1
  Si  Si100  1  0.504033  0.967659  0.218632  1
  Si  Si101  1  0.282265  0.245918  0.277183  1
  Si  Si102  1  0.781858  0.745862  0.160075  1
  Si  Si103  1  0.496208  0.531856  0.218626  1
  Si  Si104  1  0.995892  0.031932  0.101537  1
  Si  Si105  1  0.217664  0.753686  0.160091  1
  Si  Si106  1  0.718071  0.253742  0.277167  1
  Si  Si107  1  0.004035  0.531933  0.293652  1
  Si  Si108  1  0.503719  0.031856  0.176562  1
  Si  Si109  1  0.717660  0.745918  0.118005  1
  Si  Si110  1  0.218068  0.245863  0.235113  1
  Si  Si111  1  0.495894  0.467659  0.176557  1
  Si  Si112  1  0.996211  0.967735  0.293652  1
  Si  Si113  1  0.782261  0.253687  0.235097  1
  Si  Si114  1  0.281853  0.753742  0.118021  1
  Si  Si115  1  0.003717  0.467735  0.335721  1
  Si  Si116  1  0.504033  0.967659  0.452817  1
  Si  Si117  1  0.282265  0.245918  0.511368  1
  Si  Si118  1  0.781858  0.745862  0.394260  1
  Si  Si119  1  0.496208  0.531856  0.452811  1
  Si  Si120  1  0.995892  0.031932  0.335722  1
  Si  Si121  1  0.217664  0.753686  0.394276  1
  Si  Si122  1  0.718071  0.253742  0.511352  1
  Si  Si123  1  0.004035  0.531933  0.527837  1
  Si  Si124  1  0.503719  0.031856  0.410747  1
  Si  Si125  1  0.717660  0.745918  0.352189  1
  Si  Si126  1  0.218068  0.245863  0.469298  1
  Si  Si127  1  0.495894  0.467659  0.410742  1
  Si  Si128  1  0.996211  0.967735  0.527837  1
  Si  Si129  1  0.782261  0.253687  0.469282  1
  Si  Si130  1  0.281853  0.753742  0.352206  1
  Si  Si131  1  0.003717  0.467735  0.569906  1
  Si  Si132  1  0.504033  0.967659  0.687002  1
  Si  Si133  1  0.282265  0.245918  0.745553  1
  Si  Si134  1  0.781858  0.745862  0.628445  1
  Si  Si135  1  0.496208  0.531856  0.686996  1
  Si  Si136  1  0.995892  0.031932  0.569907  1
  Si  Si137  1  0.217664  0.753686  0.628461  1
  Si  Si138  1  0.718071  0.253742  0.745537  1
  Si  Si139  1  0.004035  0.531933  0.762022  1
  Si  Si140  1  0.503719  0.031856  0.644932  1
  Si  Si141  1  0.717660  0.745918  0.586374  1
  Si  Si142  1  0.218068  0.245863  0.703483  1
  Si  Si143  1  0.495894  0.467659  0.644926  1
  Si  Si144  1  0.996211  0.967735  0.762022  1
  Si  Si145  1  0.782261  0.253687  0.703467  1
  Si  Si146  1  0.281853  0.753742  0.586391  1
  H  H147  1  0.018143  0.499834  0.068223  1
  H  H148  1  0.981787  0.000000  0.068221  1
  H  H149  1  0.018143  0.499834  0.795337  1
  H  H150  1  0.981787  0.000000  0.795335  1
