# generated using pymatgen
data_Si10H2O21
_symmetry_space_group_name_H-M   'P 1'
_cell_length_a   15.08014935
_cell_length_b   13.75080220
_cell_length_c   41.34950144
_cell_angle_alpha   90.00000000
_cell_angle_beta   90.00000000
_cell_angle_gamma   90.00000000
_symmetry_Int_Tables_number   1
_chemical_formula_structural   Si10H2O21
_chemical_formula_sum   'Si80 H16 O168'
_cell_volume   8574.40425485
_cell_formula_units_Z   8
loop_
 _symmetry_equiv_pos_site_id
 _symmetry_equiv_pos_as_xyz
  1  'x, y, z'
loop_
 _atom_site_type_symbol
 _atom_site_label
 _atom_site_symmetry_multiplicity
 _atom_site_fract_x
 _atom_site_fract_y
 _atom_site_fract_z
 _atom_site_occupancy
  O  O1  1  0.083995  0.754606  0.192511  1
  O  O2  1  0.411814  0.254907  0.196303  1
  O  O3  1  0.416559  0.745427  0.192129  1
  O  O4  1  0.081257  0.245343  0.191545  1
  O  O5  1  0.144393  0.842889  0.143629  1
  O  O6  1  0.359037  0.341717  0.145811  1
  O  O7  1  0.355924  0.658022  0.143158  1
  O  O8  1  0.143520  0.158055  0.142686  1
  O  O9  1  0.250030  0.749492  0.181424  1
  O  O10  1  0.248049  0.249345  0.181613  1
  O  O11  1  0.177561  0.906347  0.199608  1
  O  O12  1  0.317973  0.406704  0.200968  1
  O  O13  1  0.324424  0.592659  0.198835  1
  O  O14  1  0.173081  0.092155  0.198235  1
  O  O15  1  0.253009  0.005376  0.244140  1
  O  O16  1  0.252928  0.508600  0.247185  1
  O  O17  1  0.419352  -0.000000  0.253291  1
  O  O18  1  0.419228  0.499408  0.237904  1
  O  O19  1  0.085180  0.499080  0.252091  1
  O  O20  1  0.085108  -0.000000  0.239219  1
  O  O21  1  0.499754  0.599396  0.279744  1
  O  O22  1  0.319149  0.902222  0.289638  1
  O  O23  1  0.005212  0.749608  0.245910  1
  O  O24  1  0.005498  0.249672  0.245499  1
  O  O25  1  0.495431  0.749784  0.245476  1
  O  O26  1  0.581114  0.255527  0.191247  1
  O  O27  1  0.914441  0.755015  0.194758  1
  O  O28  1  0.911595  0.245161  0.195180  1
  O  O29  1  0.586275  0.744577  0.194320  1
  O  O30  1  0.646206  0.347588  0.143936  1
  O  O31  1  0.857623  0.844104  0.145324  1
  O  O32  1  0.861480  0.160594  0.143856  1
  O  O33  1  0.638295  0.661213  0.142851  1
  O  O34  1  0.747313  0.244836  0.180650  1
  O  O35  1  0.750755  0.744569  0.180664  1
  O  O36  1  0.678851  0.402446  0.200896  1
  O  O37  1  0.817581  0.903336  0.201167  1
  O  O38  1  0.823132  0.089309  0.198308  1
  O  O39  1  0.673843  0.588121  0.197109  1
  O  O40  1  0.753080  0.506170  0.244348  1
  O  O41  1  0.753017  0.005359  0.247149  1
  O  O42  1  0.919233  0.500411  0.253815  1
  O  O43  1  0.919129  0.998704  0.237620  1
  O  O44  1  0.585270  0.998847  0.252210  1
  O  O45  1  0.585264  0.500298  0.239107  1
  O  O46  1  0.998644  0.400744  0.211543  1
  O  O47  1  -0.000000  0.599348  0.211681  1
  O  O48  1  -0.000000  0.099159  0.279634  1
  O  O49  1  -0.000000  0.900587  0.279891  1
  O  O50  1  0.508776  0.249575  0.245873  1
  O  O51  1  0.500265  0.900472  0.211296  1
  O  O52  1  0.500228  0.400681  0.279874  1
  O  O53  1  0.500447  0.099279  0.211571  1
  O  O54  1  0.081207  0.255229  0.299454  1
  O  O55  1  0.083114  0.254446  0.458755  1
  O  O56  1  0.416674  0.754835  0.298877  1
  O  O57  1  0.419144  0.755614  0.457299  1
  O  O58  1  0.414974  0.246142  0.459290  1
  O  O59  1  0.411381  0.245259  0.295334  1
  O  O60  1  0.088117  0.745326  0.462252  1
  O  O61  1  0.084517  0.745766  0.299161  1
  O  O62  1  0.146077  0.346535  0.346936  1
  O  O63  1  0.142759  0.340997  0.409436  1
  O  O64  1  0.353167  0.846309  0.346435  1
  O  O65  1  0.354574  0.843852  0.408994  1
  O  O66  1  0.356610  0.159232  0.409827  1
  O  O67  1  0.362298  0.161765  0.347008  1
  O  O68  1  0.141272  0.657369  0.412073  1
  O  O69  1  0.141913  0.660783  0.349250  1
  O  O70  1  0.247227  0.244168  0.310132  1
  O  O71  1  0.249263  0.250066  0.447656  1
  O  O72  1  0.250782  0.744282  0.309949  1
  O  O73  1  0.252229  0.749652  0.447899  1
  O  O74  1  0.175138  0.407412  0.464865  1
  O  O75  1  0.325778  0.907167  0.465012  1
  O  O76  1  0.322791  0.093099  0.465334  1
  O  O77  1  0.323798  0.088369  0.292969  1
  O  O78  1  0.171269  0.588299  0.294422  1
  O  O79  1  0.118123  0.501411  0.379624  1
  O  O80  1  0.381361  0.002512  0.378130  1
  O  O81  1  0.001548  0.372714  0.377437  1
  O  O82  1  0.496994  0.872763  0.377619  1
  O  O83  1  0.181476  0.593177  0.467378  1
  O  O84  1  0.179428  0.402530  0.290219  1
  O  O85  1  0.586220  0.754951  0.296658  1
  O  O86  1  0.588628  0.754347  0.461902  1
  O  O87  1  0.911657  0.254410  0.295863  1
  O  O88  1  0.913434  0.255345  0.460195  1
  O  O89  1  0.918674  0.744648  0.457790  1
  O  O90  1  0.914869  0.744863  0.297182  1
  O  O91  1  0.584539  0.244614  0.460357  1
  O  O92  1  0.580717  0.244811  0.300589  1
  O  O93  1  0.640386  0.840937  0.347272  1
  O  O94  1  0.636672  0.837833  0.410115  1
  O  O95  1  0.858881  0.341641  0.346262  1
  O  O96  1  0.860496  0.339882  0.409104  1
  O  O97  1  0.854160  0.653564  0.410181  1
  O  O98  1  0.859497  0.659319  0.347643  1
  O  O99  1  0.643631  0.154155  0.411518  1
  O  O100  1  0.644333  0.156218  0.348981  1
  O  O101  1  0.750373  0.750477  0.310469  1
  O  O102  1  0.752671  0.755914  0.446813  1
  O  O103  1  0.747548  0.250309  0.310295  1
  O  O104  1  0.748712  0.255656  0.447000  1
  O  O105  1  0.678389  0.907702  0.292181  1
  O  O106  1  0.675734  0.911214  0.464170  1
  O  O107  1  0.818969  0.406676  0.290956  1
  O  O108  1  0.825932  0.411835  0.463594  1
  O  O109  1  0.820467  0.597737  0.466986  1
  O  O110  1  0.822363  0.592609  0.292599  1
  O  O111  1  0.501154  0.127201  0.379924  1
  O  O112  1  0.673644  0.093303  0.292881  1
  O  O113  1  0.616917  0.997485  0.379515  1
  O  O114  1  0.882780  0.498682  0.377857  1
  O  O115  1  -0.000000  0.627396  0.380208  1
  O  O116  1  0.088028  0.755223  0.562086  1
  O  O117  1  0.415186  0.254235  0.565065  1
  O  O118  1  0.418708  0.744472  0.565984  1
  O  O119  1  0.083559  0.246250  0.564629  1
  O  O120  1  0.139066  0.839910  0.613306  1
  O  O121  1  0.358667  0.338417  0.615473  1
  O  O122  1  0.352873  0.652518  0.613161  1
  O  O123  1  0.144913  0.155506  0.612710  1
  O  O124  1  0.252440  0.755464  0.576263  1
  O  O125  1  0.249160  0.255398  0.576315  1
  O  O126  1  0.176707  0.911315  0.558864  1
  O  O127  1  0.328208  0.411542  0.560779  1
  O  O128  1  0.320569  0.597353  0.556242  1
  O  O129  1  0.180052  0.097619  0.556282  1
  O  O130  1  0.250098  0.490541  0.512658  1
  O  O131  1  0.246132  0.996996  0.510236  1
  O  O132  1  0.417377  0.500046  0.519091  1
  O  O133  1  0.414212  0.001203  0.505605  1
  O  O134  1  0.079976  0.001103  0.519753  1
  O  O135  1  0.083193  0.499677  0.505018  1
  O  O136  1  0.492644  0.750423  0.511713  1
  O  O137  1  0.496345  0.250439  0.512137  1
  O  O138  1  -0.000000  0.599453  0.546186  1
  O  O139  1  0.002391  0.250426  0.511742  1
  O  O140  1  0.499980  0.900846  0.545908  1
  O  O141  1  0.584881  0.255129  0.563797  1
  O  O142  1  0.918556  0.755012  0.566441  1
  O  O143  1  0.914016  0.244222  0.563499  1
  O  O144  1  0.588159  0.745621  0.561694  1
  O  O145  1  0.640788  0.341608  0.613966  1
  O  O146  1  0.856462  0.842344  0.615290  1
  O  O147  1  0.857517  0.156968  0.613512  1
  O  O148  1  0.639862  0.659641  0.612507  1
  O  O149  1  0.749734  0.250574  0.576717  1
  O  O150  1  0.751922  0.750209  0.576594  1
  O  O151  1  0.676774  0.407727  0.558799  1
  O  O152  1  0.826204  0.907378  0.559529  1
  O  O153  1  0.820212  0.092937  0.557966  1
  O  O154  1  0.681047  0.593383  0.557473  1
  O  O155  1  0.746407  0.992963  0.513306  1
  O  O156  1  0.750174  0.494140  0.511454  1
  O  O157  1  0.914075  -0.000000  0.518484  1
  O  O158  1  0.917287  0.501147  0.504524  1
  O  O159  1  0.583330  0.500725  0.519229  1
  O  O160  1  0.580213  0.000000  0.503863  1
  O  O161  1  0.500229  0.099480  0.546183  1
  O  O162  1  -0.000000  0.900784  0.477916  1
  O  O163  1  0.682005  0.097088  0.467773  1
  O  O164  1  0.998987  0.099529  0.477658  1
  O  O165  1  0.992542  0.750390  0.512141  1
  O  O166  1  0.500551  0.400752  0.477905  1
  O  O167  1  0.998497  0.400729  0.546023  1
  O  O168  1  0.500079  0.599360  0.477723  1
  Si  Si169  1  -0.000000  0.499920  0.230625  1
  Si  Si170  1  0.000000  0.714207  0.210269  1
  Si  Si171  1  0.164769  0.812478  0.179147  1
  Si  Si172  1  0.333521  0.312297  0.180920  1
  Si  Si173  1  0.335814  0.687496  0.178786  1
  Si  Si174  1  0.162379  0.187451  0.178426  1
  Si  Si175  1  0.327349  0.998641  0.270084  1
  Si  Si176  1  0.327157  0.501785  0.221171  1
  Si  Si177  1  0.173690  0.499763  0.271057  1
  Si  Si178  1  0.173572  0.000000  0.220262  1
  Si  Si179  1  0.499973  0.785569  0.209864  1
  Si  Si180  1  -0.000000  -0.000000  0.260739  1
  Si  Si181  1  -0.000000  0.785732  0.281479  1
  Si  Si182  1  0.499830  0.714275  0.281113  1
  Si  Si183  1  -0.000000  0.285882  0.209968  1
  Si  Si184  1  0.664383  0.311652  0.179044  1
  Si  Si185  1  0.834133  0.810870  0.180244  1
  Si  Si186  1  0.835167  0.186020  0.179277  1
  Si  Si187  1  0.663033  0.685744  0.178521  1
  Si  Si188  1  0.827016  0.501275  0.270486  1
  Si  Si189  1  0.826800  -0.000000  0.220996  1
  Si  Si190  1  0.673825  0.001266  0.271131  1
  Si  Si191  1  0.674112  0.499191  0.220326  1
  Si  Si192  1  0.000000  0.214013  0.281089  1
  Si  Si193  1  0.501104  0.499929  0.260823  1
  Si  Si194  1  0.501303  -0.000000  0.230405  1
  Si  Si195  1  0.500256  0.214189  0.210273  1
  Si  Si196  1  0.500015  0.285792  0.281378  1
  Si  Si197  1  0.398469  0.114569  0.378652  1
  Si  Si198  1  0.394747  0.889803  0.377762  1
  Si  Si199  1  0.102076  0.613654  0.380388  1
  Si  Si200  1  0.103880  0.388900  0.378335  1
  Si  Si201  1  0.164407  0.311160  0.311786  1
  Si  Si202  1  0.163529  0.312144  0.445069  1
  Si  Si203  1  0.333876  0.811030  0.311354  1
  Si  Si204  1  0.337042  0.812922  0.444686  1
  Si  Si205  1  0.335096  0.187940  0.445389  1
  Si  Si206  1  0.335444  0.185981  0.311547  1
  Si  Si207  1  0.166426  0.687269  0.447163  1
  Si  Si208  1  0.163073  0.685793  0.313276  1
  Si  Si209  1  0.599715  0.885422  0.378633  1
  Si  Si210  1  0.664502  0.812599  0.311900  1
  Si  Si211  1  0.664218  0.813722  0.445525  1
  Si  Si212  1  0.833546  0.312374  0.311109  1
  Si  Si213  1  0.836383  0.314589  0.444768  1
  Si  Si214  1  0.835518  0.688910  0.445321  1
  Si  Si215  1  0.835927  0.687910  0.312235  1
  Si  Si216  1  0.665699  0.188839  0.446436  1
  Si  Si217  1  0.662525  0.187282  0.313339  1
  Si  Si218  1  0.603397  0.110200  0.380079  1
  Si  Si219  1  0.897128  0.611224  0.378908  1
  Si  Si220  1  0.898910  0.386408  0.377664  1
  Si  Si221  1  -0.000000  0.714352  0.547679  1
  Si  Si222  1  0.499340  0.285897  0.476493  1
  Si  Si223  1  0.498784  -0.000000  0.527038  1
  Si  Si224  1  0.499345  0.214336  0.547726  1
  Si  Si225  1  0.164699  0.814447  0.577826  1
  Si  Si226  1  0.336898  0.313864  0.579514  1
  Si  Si227  1  0.335196  0.688417  0.578015  1
  Si  Si228  1  0.165458  0.189590  0.577612  1
  Si  Si229  1  0.327556  0.499829  0.537272  1
  Si  Si230  1  0.325912  -0.000000  0.486516  1
  Si  Si231  1  0.172208  0.001873  0.536378  1
  Si  Si232  1  0.173921  0.497761  0.487439  1
  Si  Si233  1  -0.000000  0.785896  0.476547  1
  Si  Si234  1  -0.000000  0.500223  0.527114  1
  Si  Si235  1  0.663897  0.312628  0.578559  1
  Si  Si236  1  0.837327  0.812614  0.579591  1
  Si  Si237  1  0.834714  0.187014  0.578178  1
  Si  Si238  1  0.665961  0.688100  0.577352  1
  Si  Si239  1  0.825419  0.998512  0.537352  1
  Si  Si240  1  0.827079  0.501320  0.486572  1
  Si  Si241  1  0.674185  0.499211  0.536765  1
  Si  Si242  1  0.672499  -0.000000  0.487215  1
  Si  Si243  1  0.998214  0.000000  0.496770  1
  Si  Si244  1  0.500442  0.500205  0.496827  1
  Si  Si245  1  -0.000000  0.214405  0.476160  1
  Si  Si246  1  -0.000000  0.285865  0.547400  1
  Si  Si247  1  0.500249  0.714243  0.476187  1
  Si  Si248  1  0.500105  0.785966  0.547307  1
  H  H249  1  0.144393  0.842889  0.121864  1
  H  H250  1  0.359037  0.341717  0.124045  1
  H  H251  1  0.355924  0.658022  0.121392  1
  H  H252  1  0.143520  0.158055  0.120920  1
  H  H253  1  0.646206  0.347588  0.122171  1
  H  H254  1  0.857623  0.844104  0.123559  1
  H  H255  1  0.861480  0.160594  0.122090  1
  H  H256  1  0.638295  0.661213  0.121086  1
  H  H257  1  0.139066  0.839910  0.635072  1
  H  H258  1  0.358667  0.338417  0.637239  1
  H  H259  1  0.352873  0.652518  0.634926  1
  H  H260  1  0.144913  0.155506  0.634475  1
  H  H261  1  0.640788  0.341608  0.635732  1
  H  H262  1  0.856462  0.842344  0.637056  1
  H  H263  1  0.857517  0.156968  0.635278  1
  H  H264  1  0.639862  0.659641  0.634273  1
