# generated using pymatgen
data_Si60H14O127
_symmetry_space_group_name_H-M   'P 1'
_cell_length_a   13.65576622
_cell_length_b   30.53718233
_cell_length_c   53.26633794
_cell_angle_alpha   116.55342932
_cell_angle_beta   90.00000000
_cell_angle_gamma   90.00000000
_symmetry_Int_Tables_number   1
_chemical_formula_structural   Si60H14O127
_chemical_formula_sum   'Si120 H28 O254'
_cell_volume   19869.498415
_cell_formula_units_Z   2
loop_
 _symmetry_equiv_pos_site_id
 _symmetry_equiv_pos_as_xyz
  1  'x, y, z'
loop_
 _atom_site_type_symbol
 _atom_site_label
 _atom_site_symmetry_multiplicity
 _atom_site_fract_x
 _atom_site_fract_y
 _atom_site_fract_z
 _atom_site_occupancy
  O  O1  1  0.500702  0.934225  0.121833  1
  O  O2  1  0.729230  0.364857  0.360570  1
  O  O3  1  0.729230  0.864857  0.232430  1
  O  O4  1  0.794281  0.834140  0.267657  1
  O  O5  1  0.793876  0.334196  0.309623  1
  O  O6  1  0.793876  0.834196  0.181483  1
  O  O7  1  0.838787  0.919263  0.269102  1
  O  O8  1  0.839440  0.794271  0.301052  1
  O  O9  1  0.838532  0.419290  0.351804  1
  O  O10  1  0.838532  0.919290  0.223664  1
  O  O11  1  0.838888  0.294297  0.255838  1
  O  O12  1  0.838888  0.794297  0.383978  1
  O  O13  1  0.669700  0.834213  0.300016  1
  O  O14  1  0.668681  0.397145  0.325629  1
  O  O15  1  0.668681  0.897146  0.197489  1
  O  O16  1  0.668678  0.896736  0.283706  1
  O  O17  1  0.668735  0.334300  0.277378  1
  O  O18  1  0.668735  0.834300  0.149238  1
  O  O19  1  0.729215  0.250069  0.272355  1
  O  O20  1  0.869117  0.250030  0.203039  1
  O  O21  1  0.869117  0.750031  0.331179  1
  O  O22  1  0.499364  0.864952  0.292208  1
  O  O23  1  0.500375  0.365018  0.301721  1
  O  O24  1  0.500375  0.865019  0.173581  1
  O  O25  1  0.499471  0.499739  0.233093  1
  O  O26  1  0.499471  0.000000  0.361233  1
  O  O27  1  0.500702  0.434225  0.249973  1
  O  O28  1  0.500702  0.934225  0.378113  1
  O  O29  1  0.588803  0.419123  0.204717  1
  O  O30  1  0.588803  0.919123  0.332857  1
  O  O31  1  0.412193  0.419549  0.287603  1
  O  O32  1  0.412193  0.919550  0.159463  1
  O  O33  1  0.589455  0.419348  0.287638  1
  O  O34  1  0.589455  0.919348  0.159498  1
  O  O35  1  0.408844  0.419094  0.205210  1
  O  O36  1  0.408844  0.919094  0.333350  1
  O  O37  1  0.266600  0.365319  0.360417  1
  O  O38  1  0.266600  0.865319  0.232276  1
  O  O39  1  0.200249  0.334434  0.309561  1
  O  O40  1  0.200249  0.834434  0.181421  1
  O  O41  1  0.206662  0.835047  0.268588  1
  O  O42  1  0.160445  0.419560  0.351101  1
  O  O43  1  0.160445  0.919560  0.222961  1
  O  O44  1  0.160608  0.295641  0.256037  1
  O  O45  1  0.160608  0.795641  0.384177  1
  O  O46  1  0.161452  0.919442  0.269025  1
  O  O47  1  0.162042  0.795629  0.301929  1
  O  O48  1  0.269436  0.250345  0.391016  1
  O  O49  1  0.269436  0.750345  0.262876  1
  O  O50  1  0.266534  0.250568  0.272244  1
  O  O51  1  0.330417  0.335032  0.277806  1
  O  O52  1  0.330417  0.835032  0.149666  1
  O  O53  1  0.330218  0.396703  0.325101  1
  O  O54  1  0.330218  0.896703  0.196961  1
  O  O55  1  0.332073  0.833996  0.301424  1
  O  O56  1  0.330180  0.896244  0.284044  1
  O  O57  1  0.132465  0.250297  0.203166  1
  O  O58  1  0.132465  0.750297  0.331306  1
  O  O59  1  0.000000  0.434193  0.378179  1
  O  O60  1  0.000000  0.934193  0.250039  1
  O  O61  1  0.001134  0.750259  0.297503  1
  O  O62  1  0.000000  0.250082  0.236835  1
  O  O63  1  0.000000  0.750082  0.364975  1
  O  O64  1  0.668365  0.165810  0.384962  1
  O  O65  1  0.668365  0.665810  0.256821  1
  O  O66  1  0.729035  0.135284  0.301774  1
  O  O67  1  0.729035  0.635284  0.173634  1
  O  O68  1  0.793633  0.165915  0.266483  1
  O  O69  1  0.793633  0.665915  0.394623  1
  O  O70  1  0.793802  0.165785  0.352758  1
  O  O71  1  0.793802  0.665786  0.224618  1
  O  O72  1  0.838540  0.080894  0.265084  1
  O  O73  1  0.838540  0.580894  0.393224  1
  O  O74  1  0.838738  0.205695  0.233100  1
  O  O75  1  0.838738  0.705695  0.361240  1
  O  O76  1  0.838429  0.080858  0.310518  1
  O  O77  1  0.838429  0.580858  0.182378  1
  O  O78  1  0.839064  0.705669  0.278386  1
  O  O79  1  0.868771  -0.000000  0.267094  1
  O  O80  1  0.868771  0.500117  0.395234  1
  O  O81  1  0.729646  0.249949  0.389984  1
  O  O82  1  0.729646  0.749950  0.261844  1
  O  O83  1  0.668615  0.103032  0.250292  1
  O  O84  1  0.668615  0.603033  0.378432  1
  O  O85  1  0.668389  0.165904  0.234290  1
  O  O86  1  0.668389  0.665905  0.362431  1
  O  O87  1  0.668115  0.103105  0.336679  1
  O  O88  1  0.668115  0.603105  0.208539  1
  O  O89  1  0.499793  0.135366  0.360576  1
  O  O90  1  0.499793  0.635366  0.232436  1
  O  O91  1  0.499233  0.134679  0.242745  1
  O  O92  1  0.499233  0.634679  0.370885  1
  O  O93  1  0.588433  0.080688  0.374441  1
  O  O94  1  0.588433  0.580687  0.246301  1
  O  O95  1  0.499942  0.065744  0.155733  1
  O  O96  1  0.499942  0.565744  0.283873  1
  O  O97  1  0.411182  0.080470  0.374429  1
  O  O98  1  0.411182  0.580470  0.246289  1
  O  O99  1  0.589275  0.081089  0.201059  1
  O  O100  1  0.589275  0.581089  0.329199  1
  O  O101  1  0.411904  0.081165  0.201474  1
  O  O102  1  0.411904  0.581165  0.329615  1
  O  O103  1  0.501020  0.000000  0.172583  1
  O  O104  1  0.501020  0.500214  0.300723  1
  O  O105  1  0.270171  0.134545  0.301377  1
  O  O106  1  0.270171  0.634545  0.173237  1
  O  O107  1  0.206137  0.165675  0.352733  1
  O  O108  1  0.206137  0.665675  0.224593  1
  O  O109  1  0.206497  0.165293  0.265993  1
  O  O110  1  0.206497  0.665293  0.394133  1
  O  O111  1  0.161562  0.080727  0.310671  1
  O  O112  1  0.161562  0.580728  0.182531  1
  O  O113  1  0.161962  0.705612  0.278423  1
  O  O114  1  0.163180  0.080946  0.265206  1
  O  O115  1  0.163180  0.580946  0.393346  1
  O  O116  1  0.161643  0.205610  0.232969  1
  O  O117  1  0.161643  0.705610  0.361110  1
  O  O118  1  -0.000000  0.065953  0.283946  1
  O  O119  1  0.331377  0.102934  0.336679  1
  O  O120  1  0.331377  0.602934  0.208539  1
  O  O121  1  0.330634  0.165743  0.234500  1
  O  O122  1  0.330634  0.665744  0.362640  1
  O  O123  1  0.331297  0.165281  0.384868  1
  O  O124  1  0.331297  0.665281  0.256728  1
  O  O125  1  0.332589  0.101929  0.250235  1
  O  O126  1  0.332589  0.601929  0.378375  1
  O  O127  1  0.131603  0.000000  0.266939  1
  O  O128  1  0.131603  0.500023  0.395079  1
  O  O129  1  0.729230  0.364857  0.616850  1
  O  O130  1  0.729230  0.864857  0.488710  1
  O  O131  1  0.794281  0.334139  0.395797  1
  O  O132  1  0.794281  0.834140  0.523937  1
  O  O133  1  0.793876  0.334196  0.565903  1
  O  O134  1  0.793876  0.834196  0.437763  1
  O  O135  1  0.838787  0.419263  0.397242  1
  O  O136  1  0.838787  0.919264  0.525382  1
  O  O137  1  0.839440  0.294271  0.429192  1
  O  O138  1  0.839440  0.794271  0.557332  1
  O  O139  1  0.838532  0.419290  0.608084  1
  O  O140  1  0.838532  0.919290  0.479944  1
  O  O141  1  0.838888  0.294297  0.512118  1
  O  O142  1  0.669700  0.334213  0.428156  1
  O  O143  1  0.669700  0.834213  0.556296  1
  O  O144  1  0.668681  0.397145  0.581909  1
  O  O145  1  0.668681  0.897145  0.453769  1
  O  O146  1  0.668678  0.396736  0.411846  1
  O  O147  1  0.668678  0.896736  0.539986  1
  O  O148  1  0.668735  0.334300  0.533658  1
  O  O149  1  0.668735  0.834300  0.405518  1
  O  O150  1  0.729215  0.250069  0.528635  1
  O  O151  1  0.729215  0.750069  0.400495  1
  O  O152  1  0.869117  0.250030  0.459319  1
  O  O153  1  0.869117  0.750030  0.587459  1
  O  O154  1  0.499364  0.364951  0.420348  1
  O  O155  1  0.499364  0.864951  0.548488  1
  O  O156  1  0.500375  0.365018  0.558001  1
  O  O157  1  0.500375  0.865019  0.429861  1
  O  O158  1  0.499471  0.499739  0.489373  1
  O  O159  1  0.499471  0.000000  0.617513  1
  O  O160  1  0.500702  0.434225  0.506253  1
  O  O161  1  0.500702  0.934225  0.634393  1
  O  O162  1  0.588803  0.419123  0.460997  1
  O  O163  1  0.588803  0.919123  0.589137  1
  O  O164  1  0.412193  0.419549  0.543883  1
  O  O165  1  0.412193  0.919550  0.415743  1
  O  O166  1  0.589455  0.419348  0.543918  1
  O  O167  1  0.589455  0.919348  0.415778  1
  O  O168  1  0.408844  0.419094  0.461490  1
  O  O169  1  0.408844  0.919094  0.589630  1
  O  O170  1  0.266600  0.365319  0.616697  1
  O  O171  1  0.266600  0.865319  0.488557  1
  O  O172  1  0.200249  0.334434  0.565841  1
  O  O173  1  0.200249  0.834434  0.437701  1
  O  O174  1  0.206662  0.335047  0.396728  1
  O  O175  1  0.206662  0.835047  0.524869  1
  O  O176  1  0.160445  0.419560  0.607381  1
  O  O177  1  0.160445  0.919560  0.479241  1
  O  O178  1  0.160608  0.295641  0.512317  1
  O  O179  1  0.161452  0.419442  0.397165  1
  O  O180  1  0.161452  0.919442  0.525305  1
  O  O181  1  0.162042  0.295629  0.430069  1
  O  O182  1  0.162042  0.795629  0.558209  1
  O  O183  1  0.269436  0.750345  0.519156  1
  O  O184  1  0.266534  0.250567  0.528524  1
  O  O185  1  0.266534  0.750568  0.400384  1
  O  O186  1  0.330417  0.335032  0.534086  1
  O  O187  1  0.330417  0.835032  0.405946  1
  O  O188  1  0.330218  0.396703  0.581381  1
  O  O189  1  0.330218  0.896703  0.453241  1
  O  O190  1  0.332073  0.333996  0.429565  1
  O  O191  1  0.332073  0.833996  0.557705  1
  O  O192  1  0.330180  0.396244  0.412184  1
  O  O193  1  0.330180  0.896244  0.540324  1
  O  O194  1  0.132465  0.250297  0.459446  1
  O  O195  1  0.132465  0.750297  0.587586  1
  O  O196  1  0.000000  0.934193  0.506319  1
  O  O197  1  0.001134  0.250259  0.425643  1
  O  O198  1  0.001134  0.750259  0.553783  1
  O  O199  1  0.000000  0.250082  0.493115  1
  O  O200  1  0.668365  0.165810  0.641242  1
  O  O201  1  0.668365  0.665810  0.513102  1
  O  O202  1  0.729035  0.135284  0.558054  1
  O  O203  1  0.729035  0.635284  0.429914  1
  O  O204  1  0.793633  0.165915  0.522763  1
  O  O205  1  0.793802  0.165785  0.609038  1
  O  O206  1  0.793802  0.665786  0.480898  1
  O  O207  1  0.838540  0.080894  0.521364  1
  O  O208  1  0.838738  0.205695  0.489380  1
  O  O209  1  0.838429  0.080858  0.566798  1
  O  O210  1  0.838429  0.580857  0.438658  1
  O  O211  1  0.839064  0.205669  0.406526  1
  O  O212  1  0.839064  0.705669  0.534666  1
  O  O213  1  0.868771  0.000000  0.523374  1
  O  O214  1  0.729646  0.749950  0.518124  1
  O  O215  1  0.668615  0.103032  0.506572  1
  O  O216  1  0.668389  0.165904  0.490571  1
  O  O217  1  0.668115  0.103105  0.592959  1
  O  O218  1  0.668115  0.603105  0.464819  1
  O  O219  1  0.499793  0.135366  0.616857  1
  O  O220  1  0.499793  0.635366  0.488717  1
  O  O221  1  0.499233  0.134679  0.499025  1
  O  O222  1  0.588433  0.080687  0.630721  1
  O  O223  1  0.588433  0.580688  0.502581  1
  O  O224  1  0.499942  0.065744  0.412013  1
  O  O225  1  0.499942  0.565743  0.540153  1
  O  O226  1  0.411182  0.080470  0.630709  1
  O  O227  1  0.411182  0.580470  0.502569  1
  O  O228  1  0.589275  0.081089  0.457339  1
  O  O229  1  0.589275  0.581090  0.585479  1
  O  O230  1  0.411904  0.081165  0.457755  1
  O  O231  1  0.411904  0.581165  0.585895  1
  O  O232  1  0.501020  0.000000  0.428863  1
  O  O233  1  0.501020  0.500215  0.557004  1
  O  O234  1  0.270171  0.134544  0.557657  1
  O  O235  1  0.270171  0.634545  0.429517  1
  O  O236  1  0.206137  0.165675  0.609013  1
  O  O237  1  0.206137  0.665675  0.480873  1
  O  O238  1  0.206497  0.165293  0.522273  1
  O  O239  1  0.161562  0.080727  0.566951  1
  O  O240  1  0.161562  0.580728  0.438811  1
  O  O241  1  0.161962  0.205611  0.406563  1
  O  O242  1  0.161962  0.705612  0.534703  1
  O  O243  1  0.163180  0.080946  0.521486  1
  O  O244  1  0.161643  0.205610  0.489250  1
  O  O245  1  0.000000  0.065953  0.540226  1
  O  O246  1  0.000000  0.565953  0.412086  1
  O  O247  1  0.331377  0.102934  0.592959  1
  O  O248  1  0.331377  0.602934  0.464819  1
  O  O249  1  0.330634  0.165743  0.490780  1
  O  O250  1  0.331297  0.165281  0.641148  1
  O  O251  1  0.331297  0.665281  0.513008  1
  O  O252  1  0.332589  0.101930  0.506515  1
  O  O253  1  0.131603  -0.000000  0.523219  1
  O  O254  1  0.499942  0.065744  0.668293  1
  Si  Si255  1  0.759438  0.302546  0.278180  1
  Si  Si256  1  0.888607  0.444242  0.380914  1
  Si  Si257  1  0.888607  0.944242  0.252774  1
  Si  Si258  1  0.759525  0.379727  0.391275  1
  Si  Si259  1  0.759525  0.879727  0.263135  1
  Si  Si260  1  0.760011  0.802418  0.282912  1
  Si  Si261  1  0.759299  0.379740  0.337470  1
  Si  Si262  1  0.759299  0.879741  0.209330  1
  Si  Si263  1  0.498962  0.443755  0.223710  1
  Si  Si264  1  0.498962  0.943755  0.351850  1
  Si  Si265  1  0.390687  0.878644  0.303236  1
  Si  Si266  1  0.605576  0.379849  0.297863  1
  Si  Si267  1  0.605576  0.879849  0.169722  1
  Si  Si268  1  0.395541  0.380065  0.297802  1
  Si  Si269  1  0.395541  0.880065  0.169662  1
  Si  Si270  1  0.607551  0.879373  0.302624  1
  Si  Si271  1  0.501085  0.444458  0.281214  1
  Si  Si272  1  0.501085  0.944458  0.153074  1
  Si  Si273  1  0.112125  0.444130  0.380442  1
  Si  Si274  1  0.112125  0.944130  0.252302  1
  Si  Si275  1  0.237520  0.379099  0.336104  1
  Si  Si276  1  0.237520  0.879100  0.207964  1
  Si  Si277  1  0.237645  0.304900  0.279137  1
  Si  Si278  1  0.239836  0.379816  0.391778  1
  Si  Si279  1  0.239836  0.879817  0.263638  1
  Si  Si280  1  0.242540  0.804720  0.284410  1
  Si  Si281  1  0.113071  0.750574  0.302660  1
  Si  Si282  1  0.112639  0.250563  0.231928  1
  Si  Si283  1  0.112639  0.750563  0.360068  1
  Si  Si284  1  0.888649  0.055996  0.281419  1
  Si  Si285  1  0.759095  0.120337  0.271027  1
  Si  Si286  1  0.759161  0.197572  0.251221  1
  Si  Si287  1  0.759161  0.697572  0.379361  1
  Si  Si288  1  0.759084  0.120355  0.324863  1
  Si  Si289  1  0.759084  0.620355  0.196723  1
  Si  Si290  1  0.759455  0.197448  0.384220  1
  Si  Si291  1  0.759455  0.697448  0.256080  1
  Si  Si292  1  0.888942  0.249978  0.231686  1
  Si  Si293  1  0.888942  0.749978  0.359826  1
  Si  Si294  1  0.889311  0.749966  0.302516  1
  Si  Si295  1  0.499904  0.055590  0.380797  1
  Si  Si296  1  0.499904  0.555590  0.252657  1
  Si  Si297  1  0.604743  0.120438  0.364423  1
  Si  Si298  1  0.604743  0.620439  0.236283  1
  Si  Si299  1  0.391366  0.120571  0.232181  1
  Si  Si300  1  0.391366  0.620571  0.360321  1
  Si  Si301  1  0.606373  0.120505  0.231557  1
  Si  Si302  1  0.606373  0.620505  0.359697  1
  Si  Si303  1  0.394996  0.120103  0.364343  1
  Si  Si304  1  0.394996  0.620102  0.236203  1
  Si  Si305  1  0.500765  0.055860  0.181748  1
  Si  Si306  1  0.500765  0.555860  0.309888  1
  Si  Si307  1  0.111603  0.055680  0.281511  1
  Si  Si308  1  0.239973  0.196562  0.250953  1
  Si  Si309  1  0.239973  0.696562  0.379093  1
  Si  Si310  1  0.240576  0.120378  0.325226  1
  Si  Si311  1  0.240576  0.620378  0.197086  1
  Si  Si312  1  0.240605  0.196232  0.383893  1
  Si  Si313  1  0.240605  0.696232  0.255753  1
  Si  Si314  1  0.243450  0.120348  0.270057  1
  Si  Si315  1  0.759438  0.302546  0.534460  1
  Si  Si316  1  0.759438  0.802546  0.406320  1
  Si  Si317  1  0.888607  0.944242  0.509054  1
  Si  Si318  1  0.759525  0.879727  0.519415  1
  Si  Si319  1  0.760011  0.302417  0.411052  1
  Si  Si320  1  0.760011  0.802418  0.539192  1
  Si  Si321  1  0.759299  0.379740  0.593750  1
  Si  Si322  1  0.759299  0.879741  0.465610  1
  Si  Si323  1  0.498962  0.443755  0.479990  1
  Si  Si324  1  0.498962  0.943755  0.608130  1
  Si  Si325  1  0.390687  0.378644  0.431376  1
  Si  Si326  1  0.390687  0.878645  0.559516  1
  Si  Si327  1  0.605576  0.379849  0.554143  1
  Si  Si328  1  0.605576  0.879849  0.426003  1
  Si  Si329  1  0.395541  0.380065  0.554082  1
  Si  Si330  1  0.395541  0.880065  0.425942  1
  Si  Si331  1  0.607551  0.379373  0.430764  1
  Si  Si332  1  0.607551  0.879373  0.558904  1
  Si  Si333  1  0.501085  0.444458  0.537494  1
  Si  Si334  1  0.501085  0.944458  0.409354  1
  Si  Si335  1  0.112125  0.944130  0.508582  1
  Si  Si336  1  0.237520  0.379099  0.592384  1
  Si  Si337  1  0.237520  0.879100  0.464244  1
  Si  Si338  1  0.237645  0.304900  0.535417  1
  Si  Si339  1  0.237645  0.804901  0.407277  1
  Si  Si340  1  0.239836  0.879817  0.519918  1
  Si  Si341  1  0.242540  0.304720  0.412550  1
  Si  Si342  1  0.242540  0.804720  0.540690  1
  Si  Si343  1  0.113071  0.250573  0.430800  1
  Si  Si344  1  0.113071  0.750573  0.558940  1
  Si  Si345  1  0.112639  0.250563  0.488208  1
  Si  Si346  1  0.888649  0.055996  0.537699  1
  Si  Si347  1  0.888649  0.555996  0.409559  1
  Si  Si348  1  0.759095  0.120337  0.527307  1
  Si  Si349  1  0.759095  0.620337  0.399167  1
  Si  Si350  1  0.759161  0.197572  0.507501  1
  Si  Si351  1  0.759084  0.120355  0.581143  1
  Si  Si352  1  0.759084  0.620355  0.453003  1
  Si  Si353  1  0.759455  0.697448  0.512360  1
  Si  Si354  1  0.888942  0.249978  0.487966  1
  Si  Si355  1  0.889311  0.249966  0.430656  1
  Si  Si356  1  0.889311  0.749966  0.558796  1
  Si  Si357  1  0.499904  0.055590  0.637078  1
  Si  Si358  1  0.499904  0.555590  0.508938  1
  Si  Si359  1  0.604743  0.120439  0.620703  1
  Si  Si360  1  0.604743  0.620439  0.492563  1
  Si  Si361  1  0.391366  0.120571  0.488462  1
  Si  Si362  1  0.606373  0.120505  0.487837  1
  Si  Si363  1  0.394996  0.120103  0.620623  1
  Si  Si364  1  0.394996  0.620102  0.492483  1
  Si  Si365  1  0.500765  0.055860  0.438029  1
  Si  Si366  1  0.500765  0.555859  0.566169  1
  Si  Si367  1  0.111603  0.055680  0.537791  1
  Si  Si368  1  0.111603  0.555680  0.409651  1
  Si  Si369  1  0.239973  0.196562  0.507234  1
  Si  Si370  1  0.240576  0.120378  0.581506  1
  Si  Si371  1  0.240576  0.620377  0.453366  1
  Si  Si372  1  0.240605  0.696233  0.512034  1
  Si  Si373  1  0.243450  0.120348  0.526337  1
  Si  Si374  1  0.243450  0.620348  0.398197  1
  H  H375  1  0.500702  0.934225  0.104937  1
  H  H376  1  0.793876  0.834196  0.164587  1
  H  H377  1  0.668735  0.834300  0.132342  1
  H  H378  1  0.869117  0.250030  0.186142  1
  H  H379  1  0.588803  0.419123  0.187821  1
  H  H380  1  0.408844  0.419094  0.188314  1
  H  H381  1  0.200249  0.834434  0.164525  1
  H  H382  1  0.330417  0.835032  0.132770  1
  H  H383  1  0.132465  0.250297  0.186270  1
  H  H384  1  0.729035  0.635284  0.156738  1
  H  H385  1  0.838429  0.580858  0.165482  1
  H  H386  1  0.499942  0.065744  0.138837  1
  H  H387  1  0.270171  0.634545  0.156341  1
  H  H388  1  0.161562  0.580728  0.165634  1
  H  H389  1  0.729230  0.364857  0.633746  1
  H  H390  1  0.838532  0.419290  0.624980  1
  H  H391  1  0.869117  0.750030  0.604355  1
  H  H392  1  0.500702  0.934225  0.651290  1
  H  H393  1  0.266600  0.365319  0.633593  1
  H  H394  1  0.160445  0.419560  0.624278  1
  H  H395  1  0.132465  0.750297  0.604483  1
  H  H396  1  0.668365  0.165810  0.658138  1
  H  H397  1  0.793802  0.165785  0.625935  1
  H  H398  1  0.589275  0.581090  0.602375  1
  H  H399  1  0.411904  0.581165  0.602791  1
  H  H400  1  0.206137  0.165675  0.625909  1
  H  H401  1  0.331297  0.165281  0.658044  1
  H  H402  1  0.499942  0.065744  0.685189  1
