# generated using pymatgen
data_Si15(HO8)4
_symmetry_space_group_name_H-M   'P 1'
_cell_length_a   11.71879790
_cell_length_b   9.93299442
_cell_length_c   42.14128788
_cell_angle_alpha   134.99886015
_cell_angle_beta   90.00000000
_cell_angle_gamma   90.00000000
_symmetry_Int_Tables_number   1
_chemical_formula_structural   Si15(HO8)4
_chemical_formula_sum   'Si30 H8 O64'
_cell_volume   3468.68371944
_cell_formula_units_Z   2
loop_
 _symmetry_equiv_pos_site_id
 _symmetry_equiv_pos_as_xyz
  1  'x, y, z'
loop_
 _atom_site_type_symbol
 _atom_site_label
 _atom_site_symmetry_multiplicity
 _atom_site_fract_x
 _atom_site_fract_y
 _atom_site_fract_z
 _atom_site_occupancy
  Si  Si1  1  0.215979  0.000526  0.298949  1
  Si  Si2  1  0.715253  0.499801  0.299042  1
  Si  Si3  1  0.785167  0.794084  0.299003  1
  Si  Si4  1  0.284411  0.293577  0.298938  1
  Si  Si5  1  0.996305  0.000331  0.333361  1
  Si  Si6  1  0.503967  0.500511  0.333442  1
  Si  Si7  1  0.215979  0.000526  0.465615  1
  Si  Si8  1  0.715253  0.499801  0.465709  1
  Si  Si9  1  0.785167  0.794084  0.465669  1
  Si  Si10  1  0.284411  0.293577  0.465604  1
  Si  Si11  1  0.215919  0.000425  0.367899  1
  Si  Si12  1  0.715355  0.499701  0.367537  1
  Si  Si13  1  0.784683  0.205184  0.367536  1
  Si  Si14  1  0.284375  0.707349  0.367915  1
  O  O15  1  0.915621  0.826519  0.304358  1
  O  O16  1  0.416694  0.329683  0.304968  1
  O  O17  1  0.083668  0.000655  0.304960  1
  O  O18  1  0.584774  0.500537  0.304506  1
  O  O19  1  0.762968  0.499485  0.333240  1
  O  O20  1  0.737255  0.999480  0.333266  1
  O  O21  1  0.250245  0.180757  0.310183  1
  O  O22  1  0.750507  0.680382  0.310198  1
  O  O23  1  0.750352  0.680437  0.249927  1
  O  O24  1  0.250197  0.180658  0.250082  1
  O  O25  1  0.749746  0.318796  0.249936  1
  O  O26  1  0.250095  0.820202  0.250092  1
  O  O27  1  0.915621  0.826519  0.471025  1
  O  O28  1  0.416694  0.329683  0.471635  1
  O  O29  1  0.083622  0.000402  0.361851  1
  O  O30  1  0.584860  0.500259  0.362320  1
  O  O31  1  0.915218  0.173612  0.362254  1
  O  O32  1  0.416669  0.671300  0.361946  1
  O  O33  1  0.083668  0.000655  0.471627  1
  O  O34  1  0.584774  0.500537  0.471173  1
  O  O35  1  0.262684  0.000450  0.333423  1
  O  O36  1  0.762968  0.499485  0.499907  1
  O  O37  1  0.737255  0.999480  0.499933  1
  O  O38  1  0.237659  0.500452  0.333413  1
  O  O39  1  0.250245  0.180757  0.476849  1
  O  O40  1  0.750507  0.680382  0.476864  1
  O  O41  1  0.750352  0.680437  0.416594  1
  O  O42  1  0.250197  0.180658  0.416748  1
  O  O43  1  0.250231  0.820221  0.356679  1
  O  O44  1  0.749799  0.318694  0.356311  1
  O  O45  1  0.749746  0.318796  0.416602  1
  O  O46  1  0.250095  0.820202  0.416759  1
  H  H47  1  0.750352  0.680437  0.228570  1
  H  H48  1  0.250197  0.180658  0.228724  1
  H  H49  1  0.749746  0.318796  0.228578  1
  H  H50  1  0.250095  0.820202  0.228736  1
  Si  Si51  1  0.996305  0.000331  0.500028  1
  Si  Si52  1  0.503967  0.500511  0.500108  1
  Si  Si53  1  0.215979  0.000526  0.632282  1
  Si  Si54  1  0.715253  0.499801  0.632376  1
  Si  Si55  1  0.785167  0.794084  0.632336  1
  Si  Si56  1  0.284411  0.293577  0.632271  1
  Si  Si57  1  0.215919  0.000425  0.534566  1
  Si  Si58  1  0.715355  0.499701  0.534204  1
  Si  Si59  1  0.784683  0.205184  0.534203  1
  Si  Si60  1  0.284375  0.707349  0.534582  1
  Si  Si61  1  0.996305  0.000331  0.666694  1
  Si  Si62  1  0.503967  0.500511  0.666775  1
  Si  Si63  1  0.215919  0.000425  0.701233  1
  Si  Si64  1  0.715355  0.499701  0.700870  1
  Si  Si65  1  0.784683  0.205184  0.700870  1
  Si  Si66  1  0.284375  0.707349  0.701248  1
  O  O67  1  0.915621  0.826519  0.637691  1
  O  O68  1  0.416694  0.329683  0.638301  1
  O  O69  1  0.083622  0.000402  0.528517  1
  O  O70  1  0.584860  0.500259  0.528987  1
  O  O71  1  0.915218  0.173612  0.528920  1
  O  O72  1  0.416669  0.671300  0.528613  1
  O  O73  1  0.083668  0.000655  0.638293  1
  O  O74  1  0.584774  0.500537  0.637840  1
  O  O75  1  0.262684  0.000450  0.500090  1
  O  O76  1  0.762968  0.499485  0.666574  1
  O  O77  1  0.737255  0.999480  0.666599  1
  O  O78  1  0.237659  0.500452  0.500081  1
  O  O79  1  0.250245  0.180757  0.643516  1
  O  O80  1  0.750507  0.680382  0.643531  1
  O  O81  1  0.750352  0.680437  0.583260  1
  O  O82  1  0.250197  0.180658  0.583414  1
  O  O83  1  0.250231  0.820221  0.523345  1
  O  O84  1  0.749799  0.318694  0.522978  1
  O  O85  1  0.749746  0.318796  0.583268  1
  O  O86  1  0.250095  0.820202  0.583426  1
  O  O87  1  0.083622  0.000402  0.695183  1
  O  O88  1  0.584860  0.500259  0.695653  1
  O  O89  1  0.915218  0.173612  0.695586  1
  O  O90  1  0.416669  0.671300  0.695279  1
  O  O91  1  0.262684  0.000450  0.666756  1
  O  O92  1  0.237659  0.500452  0.666747  1
  O  O93  1  0.750352  0.680437  0.749927  1
  O  O94  1  0.250197  0.180658  0.750082  1
  O  O95  1  0.250231  0.820221  0.690012  1
  O  O96  1  0.749799  0.318694  0.689644  1
  O  O97  1  0.749746  0.318796  0.749935  1
  O  O98  1  0.250095  0.820202  0.750092  1
  H  H99  1  0.750352  0.680437  0.771284  1
  H  H100  1  0.250197  0.180658  0.771438  1
  H  H101  1  0.749746  0.318796  0.771292  1
  H  H102  1  0.250095  0.820202  0.771449  1
