# generated using pymatgen
data_Si12H2O25
_symmetry_space_group_name_H-M   'P 1'
_cell_length_a   15.08014935
_cell_length_b   13.75080220
_cell_length_c   46.54072931
_cell_angle_alpha   90.00000000
_cell_angle_beta   90.00000000
_cell_angle_gamma   90.00000000
_symmetry_Int_Tables_number   1
_chemical_formula_structural   Si12H2O25
_chemical_formula_sum   'Si96 H16 O200'
_cell_volume   9650.87881303
_cell_formula_units_Z   8
loop_
 _symmetry_equiv_pos_site_id
 _symmetry_equiv_pos_as_xyz
  1  'x, y, z'
loop_
 _atom_site_type_symbol
 _atom_site_label
 _atom_site_symmetry_multiplicity
 _atom_site_fract_x
 _atom_site_fract_y
 _atom_site_fract_z
 _atom_site_occupancy
  O  O1  1  0.083114  0.254446  0.226716  1
  O  O2  1  0.419144  0.755614  0.225423  1
  O  O3  1  0.414974  0.246142  0.227191  1
  O  O4  1  0.088117  0.745326  0.229823  1
  O  O5  1  0.146077  0.346535  0.127370  1
  O  O6  1  0.142759  0.340997  0.182898  1
  O  O7  1  0.353167  0.846309  0.126924  1
  O  O8  1  0.354574  0.843852  0.182505  1
  O  O9  1  0.356610  0.159232  0.183245  1
  O  O10  1  0.362298  0.161765  0.127434  1
  O  O11  1  0.141272  0.657369  0.185241  1
  O  O12  1  0.141913  0.660783  0.129425  1
  O  O13  1  0.249263  0.250066  0.216855  1
  O  O14  1  0.252229  0.749652  0.217070  1
  O  O15  1  0.175138  0.407412  0.232145  1
  O  O16  1  0.325778  0.907167  0.232275  1
  O  O17  1  0.322791  0.093099  0.232561  1
  O  O18  1  0.118123  0.501411  0.156411  1
  O  O19  1  0.381361  0.002512  0.155084  1
  O  O20  1  0.001548  0.372714  0.154468  1
  O  O21  1  0.496994  0.872763  0.154630  1
  O  O22  1  0.181476  0.593177  0.234377  1
  O  O23  1  0.588628  0.754347  0.229512  1
  O  O24  1  0.913434  0.255345  0.227995  1
  O  O25  1  0.918674  0.744648  0.225859  1
  O  O26  1  0.584539  0.244614  0.228139  1
  O  O27  1  0.640386  0.840937  0.127668  1
  O  O28  1  0.636672  0.837833  0.183501  1
  O  O29  1  0.858881  0.341641  0.126771  1
  O  O30  1  0.860496  0.339882  0.182603  1
  O  O31  1  0.854160  0.653564  0.183560  1
  O  O32  1  0.859497  0.659319  0.127997  1
  O  O33  1  0.643631  0.154155  0.184748  1
  O  O34  1  0.644333  0.156218  0.129186  1
  O  O35  1  0.752671  0.755914  0.216106  1
  O  O36  1  0.748712  0.255656  0.216272  1
  O  O37  1  0.675734  0.911214  0.231527  1
  O  O38  1  0.825932  0.411835  0.231015  1
  O  O39  1  0.820467  0.597737  0.234029  1
  O  O40  1  0.501154  0.127201  0.156678  1
  O  O41  1  0.616917  0.997485  0.156314  1
  O  O42  1  0.882780  0.498682  0.154841  1
  O  O43  1  0.000000  0.627396  0.156930  1
  O  O44  1  0.088028  0.755223  0.318521  1
  O  O45  1  0.415186  0.254235  0.321168  1
  O  O46  1  0.418708  0.744472  0.321985  1
  O  O47  1  0.083559  0.246250  0.320781  1
  O  O48  1  0.139066  0.839910  0.364028  1
  O  O49  1  0.358667  0.338417  0.365953  1
  O  O50  1  0.352873  0.652518  0.363899  1
  O  O51  1  0.144913  0.155506  0.363498  1
  O  O52  1  0.252440  0.755464  0.331117  1
  O  O53  1  0.249160  0.255398  0.331163  1
  O  O54  1  0.176707  0.911315  0.315659  1
  O  O55  1  0.328208  0.411542  0.317360  1
  O  O56  1  0.320569  0.597353  0.313329  1
  O  O57  1  0.180052  0.097619  0.313364  1
  O  O58  1  0.250098  0.490541  0.274607  1
  O  O59  1  0.246132  0.996996  0.272454  1
  O  O60  1  0.417377  0.500046  0.280322  1
  O  O61  1  0.414212  0.001203  0.268340  1
  O  O62  1  0.079976  0.001103  0.280910  1
  O  O63  1  0.083193  0.499677  0.267819  1
  O  O64  1  0.118112  0.998984  0.391623  1
  O  O65  1  0.001314  0.127372  0.391167  1
  O  O66  1  0.492644  0.750423  0.273767  1
  O  O67  1  0.496345  0.250439  0.274143  1
  O  O68  1  0.497445  0.627405  0.391057  1
  O  O69  1  0.000000  0.599453  0.304395  1
  O  O70  1  0.002391  0.250426  0.273793  1
  O  O71  1  0.499980  0.900846  0.304148  1
  O  O72  1  0.584881  0.255129  0.320041  1
  O  O73  1  0.918556  0.755012  0.322391  1
  O  O74  1  0.914016  0.244222  0.319777  1
  O  O75  1  0.588159  0.745621  0.318173  1
  O  O76  1  0.640788  0.341608  0.364615  1
  O  O77  1  0.856462  0.842344  0.365791  1
  O  O78  1  0.857517  0.156968  0.364211  1
  O  O79  1  0.639862  0.659641  0.363319  1
  O  O80  1  0.749734  0.250574  0.331520  1
  O  O81  1  0.751922  0.750209  0.331411  1
  O  O82  1  0.676774  0.407727  0.315601  1
  O  O83  1  0.826204  0.907378  0.316250  1
  O  O84  1  0.820212  0.092937  0.314861  1
  O  O85  1  0.681047  0.593383  0.314423  1
  O  O86  1  0.746407  0.992963  0.275182  1
  O  O87  1  0.750174  0.494140  0.273537  1
  O  O88  1  0.914075  -0.000000  0.279783  1
  O  O89  1  0.917287  0.501147  0.267380  1
  O  O90  1  0.583330  0.500725  0.280445  1
  O  O91  1  0.580213  0.000000  0.266792  1
  O  O92  1  0.500229  0.099480  0.304392  1
  O  O93  1  0.000000  0.900784  0.243739  1
  O  O94  1  0.682005  0.097088  0.234728  1
  O  O95  1  0.998987  0.099529  0.243510  1
  O  O96  1  0.616863  0.502328  0.391372  1
  O  O97  1  0.992542  0.750390  0.274147  1
  O  O98  1  0.500551  0.400752  0.243730  1
  O  O99  1  0.998497  0.400729  0.304250  1
  O  O100  1  0.500079  0.599360  0.243568  1
  O  O101  1  0.083995  0.754606  0.463292  1
  O  O102  1  0.411814  0.254907  0.466661  1
  O  O103  1  0.416559  0.745427  0.462953  1
  O  O104  1  0.081257  0.245343  0.462434  1
  O  O105  1  0.144393  0.842889  0.419863  1
  O  O106  1  0.359037  0.341717  0.421801  1
  O  O107  1  0.355924  0.658022  0.419444  1
  O  O108  1  0.143520  0.158055  0.419025  1
  O  O109  1  0.250030  0.749492  0.453442  1
  O  O110  1  0.248049  0.249345  0.453610  1
  O  O111  1  0.177561  0.906347  0.469598  1
  O  O112  1  0.317973  0.406704  0.470806  1
  O  O113  1  0.324424  0.592659  0.468911  1
  O  O114  1  0.173081  0.092155  0.468378  1
  O  O115  1  0.253009  0.005376  0.509162  1
  O  O116  1  0.252928  0.508600  0.511868  1
  O  O117  1  0.419352  0.000000  0.517293  1
  O  O118  1  0.419228  0.499408  0.503622  1
  O  O119  1  0.085180  0.499080  0.516227  1
  O  O120  1  0.085108  0.000000  0.504791  1
  O  O121  1  0.499754  0.599396  0.540796  1
  O  O122  1  0.319149  0.902222  0.549585  1
  O  O123  1  0.381470  0.497867  0.392978  1
  O  O124  1  0.005212  0.749608  0.510735  1
  O  O125  1  0.005498  0.249672  0.510370  1
  O  O126  1  0.495431  0.749784  0.510349  1
  O  O127  1  0.581114  0.255527  0.462169  1
  O  O128  1  0.914441  0.755015  0.465289  1
  O  O129  1  0.911595  0.245161  0.465664  1
  O  O130  1  0.586275  0.744577  0.464900  1
  O  O131  1  0.646206  0.347588  0.420136  1
  O  O132  1  0.857623  0.844104  0.421369  1
  O  O133  1  0.861480  0.160594  0.420064  1
  O  O134  1  0.638295  0.661213  0.419172  1
  O  O135  1  0.747313  0.244836  0.452754  1
  O  O136  1  0.750755  0.744569  0.452767  1
  O  O137  1  0.678851  0.402446  0.470742  1
  O  O138  1  0.817581  0.903336  0.470982  1
  O  O139  1  0.823132  0.089309  0.468443  1
  O  O140  1  0.673843  0.588121  0.467378  1
  O  O141  1  0.753080  0.506170  0.509347  1
  O  O142  1  0.753017  0.005359  0.511836  1
  O  O143  1  0.919233  0.500411  0.517758  1
  O  O144  1  0.919129  0.998704  0.503370  1
  O  O145  1  0.585270  0.998847  0.516332  1
  O  O146  1  0.585264  0.500298  0.504691  1
  O  O147  1  0.998644  0.400744  0.480202  1
  O  O148  1  0.500783  0.372821  0.393540  1
  O  O149  1  -0.000000  0.599348  0.480324  1
  O  O150  1  0.000000  0.099159  0.540697  1
  O  O151  1  0.882799  0.001057  0.392979  1
  O  O152  1  -0.000000  0.872629  0.393169  1
  O  O153  1  0.000000  0.900587  0.540926  1
  O  O154  1  0.508776  0.249575  0.510702  1
  O  O155  1  0.500265  0.900472  0.479982  1
  O  O156  1  0.500228  0.400681  0.540911  1
  O  O157  1  0.500447  0.099279  0.480226  1
  O  O158  1  0.081207  0.255229  0.558307  1
  O  O159  1  0.416674  0.754835  0.557794  1
  O  O160  1  0.411381  0.245259  0.554647  1
  O  O161  1  0.084517  0.745766  0.558047  1
  O  O162  1  0.146077  0.346535  0.600493  1
  O  O163  1  0.142759  0.340997  0.656021  1
  O  O164  1  0.353167  0.846309  0.600048  1
  O  O165  1  0.354574  0.843852  0.655628  1
  O  O166  1  0.356610  0.159232  0.656369  1
  O  O167  1  0.362298  0.161765  0.600557  1
  O  O168  1  0.141272  0.657369  0.658364  1
  O  O169  1  0.141913  0.660783  0.602548  1
  O  O170  1  0.247227  0.244168  0.567794  1
  O  O171  1  0.250782  0.744282  0.567631  1
  O  O172  1  0.323798  0.088369  0.552545  1
  O  O173  1  0.171269  0.588299  0.553836  1
  O  O174  1  0.118123  0.501411  0.629534  1
  O  O175  1  0.381361  0.002512  0.628207  1
  O  O176  1  0.001548  0.372714  0.627591  1
  O  O177  1  0.496994  0.872763  0.627753  1
  O  O178  1  0.179428  0.402530  0.550102  1
  O  O179  1  0.586220  0.754951  0.555823  1
  O  O180  1  0.911657  0.254410  0.555116  1
  O  O181  1  0.914869  0.744863  0.556288  1
  O  O182  1  0.580717  0.244811  0.559315  1
  O  O183  1  0.640386  0.840937  0.600791  1
  O  O184  1  0.636672  0.837833  0.656624  1
  O  O185  1  0.858881  0.341641  0.599894  1
  O  O186  1  0.860496  0.339882  0.655727  1
  O  O187  1  0.854160  0.653564  0.656683  1
  O  O188  1  0.859497  0.659319  0.601121  1
  O  O189  1  0.643631  0.154155  0.657871  1
  O  O190  1  0.644333  0.156218  0.602309  1
  O  O191  1  0.750373  0.750477  0.568093  1
  O  O192  1  0.747548  0.250309  0.567939  1
  O  O193  1  0.678389  0.907702  0.551845  1
  O  O194  1  0.818969  0.406676  0.550756  1
  O  O195  1  0.822363  0.592609  0.552216  1
  O  O196  1  0.501154  0.127201  0.629801  1
  O  O197  1  0.673644  0.093303  0.552467  1
  O  O198  1  0.616917  0.997485  0.629437  1
  O  O199  1  0.882780  0.498682  0.627964  1
  O  O200  1  0.000000  0.627396  0.630053  1
  Si  Si201  1  0.398469  0.114569  0.155548  1
  Si  Si202  1  0.394747  0.889803  0.154757  1
  Si  Si203  1  0.102076  0.613654  0.157090  1
  Si  Si204  1  0.103880  0.388900  0.155266  1
  Si  Si205  1  0.163529  0.312144  0.214557  1
  Si  Si206  1  0.337042  0.812922  0.214216  1
  Si  Si207  1  0.335096  0.187940  0.214841  1
  Si  Si208  1  0.166426  0.687269  0.216417  1
  Si  Si209  1  0.599715  0.885422  0.155531  1
  Si  Si210  1  0.664218  0.813722  0.214961  1
  Si  Si211  1  0.836383  0.314589  0.214289  1
  Si  Si212  1  0.835518  0.688910  0.214781  1
  Si  Si213  1  0.665699  0.188839  0.215771  1
  Si  Si214  1  0.603397  0.110200  0.156816  1
  Si  Si215  1  0.897128  0.611224  0.155775  1
  Si  Si216  1  0.898910  0.386408  0.154670  1
  Si  Si217  1  0.000000  0.714352  0.305721  1
  Si  Si218  1  0.499340  0.285897  0.242475  1
  Si  Si219  1  0.498784  -0.000000  0.287383  1
  Si  Si220  1  0.499345  0.214336  0.305763  1
  Si  Si221  1  0.164699  0.814447  0.332506  1
  Si  Si222  1  0.336898  0.313864  0.334006  1
  Si  Si223  1  0.335196  0.688417  0.332674  1
  Si  Si224  1  0.165458  0.189590  0.332316  1
  Si  Si225  1  0.327556  0.499829  0.296475  1
  Si  Si226  1  0.325912  -0.000000  0.251380  1
  Si  Si227  1  0.172208  0.001873  0.295680  1
  Si  Si228  1  0.173921  0.497761  0.252200  1
  Si  Si229  1  0.103715  0.111523  0.391310  1
  Si  Si230  1  0.395205  0.610457  0.391820  1
  Si  Si231  1  0.102248  0.886701  0.392119  1
  Si  Si232  1  0.000000  0.785896  0.242524  1
  Si  Si233  1  -0.000000  0.500223  0.287450  1
  Si  Si234  1  0.898752  0.113317  0.392101  1
  Si  Si235  1  0.600169  0.614507  0.391221  1
  Si  Si236  1  0.663897  0.312628  0.333157  1
  Si  Si237  1  0.837327  0.812614  0.334073  1
  Si  Si238  1  0.834714  0.187014  0.332819  1
  Si  Si239  1  0.665961  0.688100  0.332085  1
  Si  Si240  1  0.825419  0.998512  0.296546  1
  Si  Si241  1  0.827079  0.501320  0.251431  1
  Si  Si242  1  0.674185  0.499211  0.296025  1
  Si  Si243  1  0.672499  0.000000  0.252001  1
  Si  Si244  1  0.998214  -0.000000  0.260490  1
  Si  Si245  1  0.500442  0.500205  0.260542  1
  Si  Si246  1  -0.000000  0.214405  0.242179  1
  Si  Si247  1  0.000000  0.285865  0.305473  1
  Si  Si248  1  0.500249  0.714243  0.242204  1
  Si  Si249  1  0.500105  0.785966  0.305391  1
  Si  Si250  1  0.398052  0.385723  0.393658  1
  Si  Si251  1  0.000000  0.499920  0.497155  1
  Si  Si252  1  0.000000  0.714207  0.479070  1
  Si  Si253  1  0.164769  0.812478  0.451419  1
  Si  Si254  1  0.333521  0.312297  0.452994  1
  Si  Si255  1  0.335814  0.687496  0.451098  1
  Si  Si256  1  0.162379  0.187451  0.450779  1
  Si  Si257  1  0.327349  0.998641  0.532213  1
  Si  Si258  1  0.327157  0.501785  0.488756  1
  Si  Si259  1  0.173690  0.499763  0.533077  1
  Si  Si260  1  0.173572  -0.000000  0.487948  1
  Si  Si261  1  0.499973  0.785569  0.478710  1
  Si  Si262  1  0.000000  0.000000  0.523910  1
  Si  Si263  1  -0.000000  0.785732  0.542337  1
  Si  Si264  1  0.499830  0.714275  0.542011  1
  Si  Si265  1  0.602982  0.389707  0.392362  1
  Si  Si266  1  -0.000000  0.285882  0.478802  1
  Si  Si267  1  0.664383  0.311652  0.451327  1
  Si  Si268  1  0.834133  0.810870  0.452393  1
  Si  Si269  1  0.835167  0.186020  0.451534  1
  Si  Si270  1  0.663033  0.685744  0.450863  1
  Si  Si271  1  0.827016  0.501275  0.532570  1
  Si  Si272  1  0.826800  0.000000  0.488600  1
  Si  Si273  1  0.673825  0.001266  0.533143  1
  Si  Si274  1  0.674112  0.499191  0.488004  1
  Si  Si275  1  0.000000  0.214013  0.541991  1
  Si  Si276  1  0.897307  0.888520  0.393405  1
  Si  Si277  1  0.501104  0.499929  0.523985  1
  Si  Si278  1  0.501303  0.000000  0.496959  1
  Si  Si279  1  0.500256  0.214189  0.479073  1
  Si  Si280  1  0.500015  0.285792  0.542247  1
  Si  Si281  1  0.398469  0.114569  0.628671  1
  Si  Si282  1  0.394747  0.889803  0.627880  1
  Si  Si283  1  0.102076  0.613654  0.630213  1
  Si  Si284  1  0.103880  0.388900  0.628389  1
  Si  Si285  1  0.164407  0.311160  0.569263  1
  Si  Si286  1  0.333876  0.811030  0.568879  1
  Si  Si287  1  0.335444  0.185981  0.569050  1
  Si  Si288  1  0.163073  0.685793  0.570587  1
  Si  Si289  1  0.599715  0.885422  0.628654  1
  Si  Si290  1  0.664502  0.812599  0.569364  1
  Si  Si291  1  0.833546  0.312374  0.568662  1
  Si  Si292  1  0.835927  0.687910  0.569662  1
  Si  Si293  1  0.662525  0.187282  0.570643  1
  Si  Si294  1  0.603397  0.110200  0.629939  1
  Si  Si295  1  0.897128  0.611224  0.628898  1
  Si  Si296  1  0.898910  0.386408  0.627793  1
  H  H297  1  0.146077  0.346535  0.108032  1
  H  H298  1  0.353167  0.846309  0.107587  1
  H  H299  1  0.362298  0.161765  0.108096  1
  H  H300  1  0.141913  0.660783  0.110087  1
  H  H301  1  0.640386  0.840937  0.108330  1
  H  H302  1  0.858881  0.341641  0.107433  1
  H  H303  1  0.859497  0.659319  0.108660  1
  H  H304  1  0.644333  0.156218  0.109848  1
  H  H305  1  0.142759  0.340997  0.675359  1
  H  H306  1  0.354574  0.843852  0.674966  1
  H  H307  1  0.356610  0.159232  0.675706  1
  H  H308  1  0.141272  0.657369  0.677702  1
  H  H309  1  0.636672  0.837833  0.675962  1
  H  H310  1  0.860496  0.339882  0.675064  1
  H  H311  1  0.854160  0.653564  0.676021  1
  H  H312  1  0.643631  0.154155  0.677209  1
