# generated using pymatgen
data_Si16H2O33
_symmetry_space_group_name_H-M   'P 1'
_cell_length_a   25.36503145
_cell_length_b   13.87769178
_cell_length_c   41.48282301
_cell_angle_alpha   90.00000000
_cell_angle_beta   90.00000000
_cell_angle_gamma   90.00000000
_symmetry_Int_Tables_number   1
_chemical_formula_structural   Si16H2O33
_chemical_formula_sum   'Si128 H16 O264'
_cell_volume   14602.2892322
_cell_formula_units_Z   8
loop_
 _symmetry_equiv_pos_site_id
 _symmetry_equiv_pos_as_xyz
  1  'x, y, z'
loop_
 _atom_site_type_symbol
 _atom_site_label
 _atom_site_symmetry_multiplicity
 _atom_site_fract_x
 _atom_site_fract_y
 _atom_site_fract_z
 _atom_site_occupancy
  O  O1  1  0.149841  0.259891  0.304239  1
  O  O2  1  0.149735  0.740196  0.304214  1
  O  O3  1  0.149737  0.239782  0.187077  1
  O  O4  1  0.149825  0.759352  0.187045  1
  O  O5  1  0.319412  0.750103  0.245634  1
  O  O6  1  0.180506  0.250034  0.245652  1
  O  O7  1  0.319452  0.249987  0.245657  1
  O  O8  1  0.180534  0.749916  0.245638  1
  O  O9  1  0.249959  0.750130  0.288668  1
  O  O10  1  0.250040  0.249990  0.288688  1
  O  O11  1  0.249952  0.250450  0.202625  1
  O  O12  1  0.250033  0.750166  0.202611  1
  O  O13  1  0.309260  0.600231  0.280415  1
  O  O14  1  0.190124  0.100239  0.280481  1
  O  O15  1  0.309947  0.399834  0.280546  1
  O  O16  1  0.189964  0.899852  0.280493  1
  O  O17  1  0.190322  0.399765  0.210715  1
  O  O18  1  0.309146  0.899986  0.210799  1
  O  O19  1  0.191138  0.600142  0.210790  1
  O  O20  1  0.308770  0.100296  0.210797  1
  O  O21  1  0.095160  0.408946  0.294984  1
  O  O22  1  0.094686  0.591637  0.294789  1
  O  O23  1  0.094766  0.090834  0.196232  1
  O  O24  1  0.094669  0.907882  0.196543  1
  O  O25  1  0.084712  0.336884  0.348884  1
  O  O26  1  0.085106  0.662193  0.348921  1
  O  O27  1  0.084593  0.163152  0.142370  1
  O  O28  1  0.085435  0.838047  0.142278  1
  O  O29  1  0.050380  0.250067  0.298311  1
  O  O30  1  0.050008  0.750454  0.298948  1
  O  O31  1  0.050328  0.250104  0.192963  1
  O  O32  1  0.050074  0.748927  0.191921  1
  O  O33  1  0.150776  0.500405  0.254613  1
  O  O34  1  0.151708  -0.000000  0.236028  1
  O  O35  1  0.250522  0.000000  0.246462  1
  O  O36  1  0.249345  0.498429  0.246248  1
  O  O37  1  0.049940  0.499540  0.250659  1
  O  O38  1  0.050671  0.000000  0.240943  1
  O  O39  1  0.071622  0.499500  0.379369  1
  O  O40  1  -0.000000  0.599140  0.211064  1
  O  O41  1  0.000000  0.099085  0.280297  1
  O  O42  1  0.001098  0.751145  0.245359  1
  O  O43  1  0.149893  0.759406  0.571805  1
  O  O44  1  0.149789  0.240032  0.571722  1
  O  O45  1  0.149844  0.740209  0.454649  1
  O  O46  1  0.149918  0.259800  0.454595  1
  O  O47  1  0.319560  0.250091  0.513222  1
  O  O48  1  0.180611  0.749988  0.513232  1
  O  O49  1  0.319603  0.750136  0.513234  1
  O  O50  1  0.180584  0.250118  0.513170  1
  O  O51  1  0.250004  0.250240  0.556197  1
  O  O52  1  0.250140  0.750411  0.556236  1
  O  O53  1  0.250059  0.750106  0.470231  1
  O  O54  1  0.250144  0.250307  0.470186  1
  O  O55  1  0.308978  0.100245  0.547967  1
  O  O56  1  0.191359  0.600245  0.548060  1
  O  O57  1  0.309426  0.900013  0.548024  1
  O  O58  1  0.190624  0.399879  0.548068  1
  O  O59  1  0.190039  0.899876  0.478359  1
  O  O60  1  0.310279  0.399940  0.478354  1
  O  O61  1  0.190387  0.100295  0.478371  1
  O  O62  1  0.309579  0.600411  0.478400  1
  O  O63  1  0.094773  0.908060  0.562311  1
  O  O64  1  0.094765  0.091049  0.562526  1
  O  O65  1  0.094507  0.592057  0.464199  1
  O  O66  1  0.095510  0.409232  0.463789  1
  O  O67  1  0.085529  0.838237  0.616568  1
  O  O68  1  0.084909  0.162879  0.616478  1
  O  O69  1  0.085472  0.661785  0.409876  1
  O  O70  1  0.084765  0.336986  0.409968  1
  O  O71  1  0.050101  0.749191  0.566967  1
  O  O72  1  0.050301  0.250176  0.566075  1
  O  O73  1  0.049988  0.750979  0.459486  1
  O  O74  1  0.050443  0.250458  0.460569  1
  O  O75  1  0.151702  -0.000000  0.522767  1
  O  O76  1  0.151267  0.500678  0.504107  1
  O  O77  1  0.249737  0.498791  0.512602  1
  O  O78  1  0.250533  -0.000000  0.512467  1
  O  O79  1  0.050662  0.000000  0.517894  1
  O  O80  1  0.050646  0.498965  0.508438  1
  O  O81  1  -0.000000  0.624497  0.379509  1
  O  O82  1  0.000000  0.099178  0.478525  1
  O  O83  1  0.001875  0.750298  0.513252  1
  O  O84  1  0.000000  0.599139  0.547823  1
  O  O85  1  0.350260  0.759512  0.304161  1
  O  O86  1  0.649861  0.759292  0.304258  1
  O  O87  1  0.350293  0.240139  0.304204  1
  O  O88  1  0.649826  0.240393  0.304167  1
  O  O89  1  0.649857  0.740442  0.187061  1
  O  O90  1  0.350323  0.740419  0.187121  1
  O  O91  1  0.649838  0.259594  0.187044  1
  O  O92  1  0.350229  0.259386  0.187088  1
  O  O93  1  0.594804  0.907951  0.294748  1
  O  O94  1  0.404790  0.908855  0.294857  1
  O  O95  1  0.595353  0.090884  0.294973  1
  O  O96  1  0.405508  0.091724  0.294705  1
  O  O97  1  0.404911  0.590913  0.196304  1
  O  O98  1  0.594761  0.591823  0.196539  1
  O  O99  1  0.405428  0.407835  0.196666  1
  O  O100  1  0.595248  0.408920  0.196309  1
  O  O101  1  0.585590  0.838170  0.349092  1
  O  O102  1  0.415358  0.836905  0.348722  1
  O  O103  1  0.584784  0.162872  0.348815  1
  O  O104  1  0.414791  0.162155  0.348940  1
  O  O105  1  0.415414  0.663144  0.142524  1
  O  O106  1  0.585589  0.661645  0.142228  1
  O  O107  1  0.414599  0.338045  0.142344  1
  O  O108  1  0.584954  0.337393  0.142361  1
  O  O109  1  0.550065  0.749211  0.299507  1
  O  O110  1  0.449764  0.750070  0.298205  1
  O  O111  1  0.550399  0.249721  0.298262  1
  O  O112  1  0.450109  0.250679  0.299183  1
  O  O113  1  0.449785  0.749841  0.193105  1
  O  O114  1  0.550072  0.750621  0.191820  1
  O  O115  1  0.450064  0.248924  0.191891  1
  O  O116  1  0.550371  0.250086  0.192751  1
  O  O117  1  0.349051  -0.000000  0.254630  1
  O  O118  1  0.651048  -0.000000  0.254641  1
  O  O119  1  0.650612  0.500174  0.236767  1
  O  O120  1  0.348080  0.500008  0.236076  1
  O  O121  1  0.550481  0.000000  0.250476  1
  O  O122  1  0.449653  -0.000000  0.250356  1
  O  O123  1  0.448912  0.500631  0.241151  1
  O  O124  1  0.549915  0.499416  0.240622  1
  O  O125  1  0.500312  0.900778  0.210958  1
  O  O126  1  0.500123  0.099141  0.210961  1
  O  O127  1  0.500227  0.599180  0.280301  1
  O  O128  1  0.499996  0.400832  0.280288  1
  O  O129  1  0.502207  0.750057  0.245663  1
  O  O130  1  0.498462  0.250330  0.245507  1
  O  O131  1  0.428495  0.000000  0.379208  1
  O  O132  1  0.500119  0.875421  0.379367  1
  O  O133  1  0.350213  0.259428  0.571822  1
  O  O134  1  0.649723  0.259405  0.571786  1
  O  O135  1  0.350345  0.740456  0.571831  1
  O  O136  1  0.649831  0.740742  0.571840  1
  O  O137  1  0.649816  0.240070  0.454575  1
  O  O138  1  0.350329  0.239832  0.454696  1
  O  O139  1  0.649710  0.760089  0.454696  1
  O  O140  1  0.350224  0.759978  0.454631  1
  O  O141  1  0.594909  0.408373  0.562483  1
  O  O142  1  0.404938  0.408602  0.562542  1
  O  O143  1  0.595607  0.591031  0.562632  1
  O  O144  1  0.405481  0.591684  0.562531  1
  O  O145  1  0.405863  0.091723  0.464222  1
  O  O146  1  0.595080  0.091056  0.463850  1
  O  O147  1  0.405373  0.908590  0.463947  1
  O  O148  1  0.594469  0.908382  0.464229  1
  O  O149  1  0.584711  0.336829  0.616490  1
  O  O150  1  0.414646  0.338055  0.616625  1
  O  O151  1  0.584837  0.662826  0.616450  1
  O  O152  1  0.414802  0.662449  0.616709  1
  O  O153  1  0.414697  0.161621  0.409921  1
  O  O154  1  0.584756  0.163044  0.409911  1
  O  O155  1  0.414731  0.837737  0.409761  1
  O  O156  1  0.584779  0.837686  0.410106  1
  O  O157  1  0.550230  0.249726  0.566009  1
  O  O158  1  0.449945  0.249787  0.566844  1
  O  O159  1  0.550356  0.749373  0.565859  1
  O  O160  1  0.450084  0.750740  0.566914  1
  O  O161  1  0.450102  0.251141  0.459510  1
  O  O162  1  0.550351  0.249989  0.460453  1
  O  O163  1  0.449913  0.749197  0.459512  1
  O  O164  1  0.550175  0.749372  0.460385  1
  O  O165  1  0.348495  0.500600  0.522759  1
  O  O166  1  0.651870  0.499509  0.522704  1
  O  O167  1  0.650941  0.000000  0.504181  1
  O  O168  1  0.349003  -0.000000  0.503998  1
  O  O169  1  0.550767  0.500705  0.518115  1
  O  O170  1  0.449509  0.499492  0.518122  1
  O  O171  1  0.449500  -0.000000  0.508680  1
  O  O172  1  0.550335  0.000000  0.508526  1
  O  O173  1  0.571558  -0.000000  0.379520  1
  O  O174  1  0.500373  0.400834  0.478790  1
  O  O175  1  0.499796  0.598941  0.478712  1
  O  O176  1  0.499715  0.099113  0.548075  1
  O  O177  1  0.500429  0.900639  0.547998  1
  O  O178  1  0.498391  0.249405  0.513186  1
  O  O179  1  0.498239  0.750251  0.513156  1
  O  O180  1  0.499905  0.124542  0.379406  1
  O  O181  1  0.850253  0.259751  0.304212  1
  O  O182  1  0.850264  0.740021  0.304226  1
  O  O183  1  0.850273  0.239979  0.187030  1
  O  O184  1  0.850241  0.760224  0.187047  1
  O  O185  1  0.819599  0.250001  0.245601  1
  O  O186  1  0.680599  0.749954  0.245652  1
  O  O187  1  0.819608  0.749963  0.245643  1
  O  O188  1  0.680623  0.249961  0.245603  1
  O  O189  1  0.750077  0.249706  0.288614  1
  O  O190  1  0.750077  0.750238  0.288650  1
  O  O191  1  0.750082  0.749485  0.202650  1
  O  O192  1  0.750079  0.250037  0.202591  1
  O  O193  1  0.810077  0.100089  0.280413  1
  O  O194  1  0.691144  0.600122  0.280479  1
  O  O195  1  0.810085  0.899826  0.280433  1
  O  O196  1  0.691102  0.399752  0.280436  1
  O  O197  1  0.691148  0.899690  0.210779  1
  O  O198  1  0.809977  0.399809  0.210730  1
  O  O199  1  0.691016  0.100119  0.210791  1
  O  O200  1  0.810034  0.600234  0.210775  1
  O  O201  1  0.905625  0.407891  0.294682  1
  O  O202  1  0.904951  0.590798  0.295095  1
  O  O203  1  0.905651  0.091704  0.196463  1
  O  O204  1  0.905515  0.908733  0.196290  1
  O  O205  1  0.914619  0.338258  0.349003  1
  O  O206  1  0.915344  0.663143  0.348927  1
  O  O207  1  0.914688  0.161772  0.142231  1
  O  O208  1  0.915073  0.837248  0.142233  1
  O  O209  1  0.950099  0.248909  0.299421  1
  O  O210  1  0.949737  0.749752  0.298341  1
  O  O211  1  0.950071  0.250869  0.191885  1
  O  O212  1  0.949781  0.749396  0.192454  1
  O  O213  1  0.847893  0.499697  0.255352  1
  O  O214  1  0.848343  0.000000  0.235914  1
  O  O215  1  0.749192  0.500006  0.244615  1
  O  O216  1  0.749522  -0.000000  0.246401  1
  O  O217  1  0.948813  0.500713  0.250182  1
  O  O218  1  0.949359  0.000000  0.241008  1
  O  O219  1  0.998195  0.249917  0.245643  1
  O  O220  1  0.000000  0.400910  0.211056  1
  O  O221  1  -0.000000  0.900863  0.280331  1
  O  O222  1  0.850338  0.759771  0.571703  1
  O  O223  1  0.850195  0.240557  0.571732  1
  O  O224  1  0.850187  0.740047  0.454628  1
  O  O225  1  0.850286  0.259702  0.454612  1
  O  O226  1  0.819453  0.749894  0.513174  1
  O  O227  1  0.680519  0.249935  0.513157  1
  O  O228  1  0.819445  0.250047  0.513165  1
  O  O229  1  0.680557  0.749984  0.513236  1
  O  O230  1  0.750077  0.749933  0.556235  1
  O  O231  1  0.749957  0.249916  0.556188  1
  O  O232  1  0.750028  0.249799  0.470123  1
  O  O233  1  0.749943  0.749950  0.470166  1
  O  O234  1  0.809176  0.600138  0.548031  1
  O  O235  1  0.690905  0.100125  0.548012  1
  O  O236  1  0.808885  0.399847  0.548015  1
  O  O237  1  0.691108  0.899879  0.548035  1
  O  O238  1  0.690268  0.399719  0.478257  1
  O  O239  1  0.809876  0.899727  0.478337  1
  O  O240  1  0.689973  0.600209  0.478308  1
  O  O241  1  0.809983  0.100118  0.478321  1
  O  O242  1  0.905296  0.908838  0.562440  1
  O  O243  1  0.905347  0.091885  0.562284  1
  O  O244  1  0.904821  0.590825  0.463822  1
  O  O245  1  0.905507  0.407981  0.464198  1
  O  O246  1  0.915346  0.836973  0.616371  1
  O  O247  1  0.914519  0.161911  0.616516  1
  O  O248  1  0.915337  0.663191  0.410002  1
  O  O249  1  0.914763  0.338131  0.409924  1
  O  O250  1  0.949807  0.749722  0.565941  1
  O  O251  1  0.949994  0.250837  0.566907  1
  O  O252  1  0.949676  0.749773  0.460606  1
  O  O253  1  0.950134  0.249109  0.459593  1
  O  O254  1  0.848317  0.000000  0.522763  1
  O  O255  1  0.849173  0.499675  0.504216  1
  O  O256  1  0.749481  0.000000  0.512363  1
  O  O257  1  0.750648  0.500404  0.512294  1
  O  O258  1  0.949360  -0.000000  0.517817  1
  O  O259  1  0.949799  0.500801  0.508358  1
  O  O260  1  0.928453  0.500605  0.379479  1
  O  O261  1  -0.000000  0.375567  0.379427  1
  O  O262  1  0.998446  0.249613  0.513294  1
  O  O263  1  -0.000000  0.400812  0.547851  1
  O  O264  1  -0.000000  0.900912  0.478528  1
  Si  Si265  1  0.000000  0.712495  0.209939  1
  Si  Si266  1  0.307484  0.714535  0.280968  1
  Si  Si267  1  0.192443  0.214593  0.281002  1
  Si  Si268  1  0.307635  0.285439  0.281025  1
  Si  Si269  1  0.192343  0.785491  0.280995  1
  Si  Si270  1  0.192299  0.285404  0.210274  1
  Si  Si271  1  0.307578  0.785638  0.210283  1
  Si  Si272  1  0.192534  0.714467  0.210292  1
  Si  Si273  1  0.307434  0.214640  0.210303  1
  Si  Si274  1  0.096233  0.310744  0.312882  1
  Si  Si275  1  0.096180  0.689370  0.312965  1
  Si  Si276  1  0.096086  0.189137  0.178392  1
  Si  Si277  1  0.096363  0.810397  0.178212  1
  Si  Si278  1  0.304496  -0.000000  0.228693  1
  Si  Si279  1  0.195251  0.499880  0.228622  1
  Si  Si280  1  0.195234  -0.000000  0.262667  1
  Si  Si281  1  0.304465  0.499908  0.262652  1
  Si  Si282  1  0.098099  0.500123  0.273647  1
  Si  Si283  1  0.098378  -0.000000  0.217562  1
  Si  Si284  1  -0.000000  0.000000  0.262102  1
  Si  Si285  1  0.000000  0.787366  0.281065  1
  Si  Si286  1  0.000000  0.787458  0.477663  1
  Si  Si287  1  0.307524  0.214571  0.548546  1
  Si  Si288  1  0.192654  0.714587  0.548575  1
  Si  Si289  1  0.307736  0.785666  0.548581  1
  Si  Si290  1  0.192413  0.285511  0.548536  1
  Si  Si291  1  0.192440  0.785502  0.477875  1
  Si  Si292  1  0.307778  0.285549  0.477860  1
  Si  Si293  1  0.192579  0.214656  0.477833  1
  Si  Si294  1  0.307641  0.714734  0.477887  1
  Si  Si295  1  0.096456  0.810563  0.580636  1
  Si  Si296  1  0.096215  0.189197  0.580458  1
  Si  Si297  1  0.096301  0.689467  0.445818  1
  Si  Si298  1  0.096363  0.310893  0.445967  1
  Si  Si299  1  0.304856  0.500109  0.496202  1
  Si  Si300  1  0.195314  0.000000  0.496187  1
  Si  Si301  1  0.195613  0.500037  0.530188  1
  Si  Si302  1  0.304640  -0.000000  0.530079  1
  Si  Si303  1  0.098395  0.000000  0.541250  1
  Si  Si304  1  0.098471  0.500279  0.485194  1
  Si  Si305  1  0.061407  0.611456  0.379414  1
  Si  Si306  1  0.061127  0.387634  0.379423  1
  Si  Si307  1  -0.000000  0.499954  0.529687  1
  Si  Si308  1  0.000000  0.000000  0.496728  1
  Si  Si309  1  0.000000  0.712552  0.548776  1
  Si  Si310  1  0.000000  0.212643  0.477682  1
  Si  Si311  1  0.499729  0.500031  0.262121  1
  Si  Si312  1  0.596470  0.810544  0.313136  1
  Si  Si313  1  0.403828  0.810623  0.312740  1
  Si  Si314  1  0.596316  0.189167  0.312820  1
  Si  Si315  1  0.403841  0.189339  0.312971  1
  Si  Si316  1  0.403881  0.689308  0.178517  1
  Si  Si317  1  0.596453  0.689259  0.178180  1
  Si  Si318  1  0.403704  0.310415  0.178279  1
  Si  Si319  1  0.596351  0.310829  0.178350  1
  Si  Si320  1  0.598374  -0.000000  0.273665  1
  Si  Si321  1  0.401800  -0.000000  0.273577  1
  Si  Si322  1  0.401404  0.499729  0.217626  1
  Si  Si323  1  0.598060  0.500152  0.217634  1
  Si  Si324  1  0.500137  0.000000  0.229119  1
  Si  Si325  1  0.499953  0.287358  0.281113  1
  Si  Si326  1  0.500423  0.787322  0.210088  1
  Si  Si327  1  0.499966  0.212565  0.209988  1
  Si  Si328  1  0.500408  0.712625  0.281218  1
  Si  Si329  1  0.438866  0.887773  0.379255  1
  Si  Si330  1  0.438699  0.111547  0.379395  1
  Si  Si331  1  0.561152  0.112272  0.379378  1
  Si  Si332  1  0.499997  0.000000  0.529904  1
  Si  Si333  1  0.596165  0.310378  0.580500  1
  Si  Si334  1  0.403586  0.310779  0.580672  1
  Si  Si335  1  0.596381  0.689289  0.580481  1
  Si  Si336  1  0.403800  0.689445  0.580717  1
  Si  Si337  1  0.403908  0.189206  0.445878  1
  Si  Si338  1  0.596208  0.189223  0.445922  1
  Si  Si339  1  0.403722  0.810817  0.445756  1
  Si  Si340  1  0.596020  0.810659  0.446060  1
  Si  Si341  1  0.598700  0.499824  0.541324  1
  Si  Si342  1  0.401663  0.500151  0.541379  1
  Si  Si343  1  0.401949  -0.000000  0.485229  1
  Si  Si344  1  0.598154  -0.000000  0.485272  1
  Si  Si345  1  0.500122  0.499939  0.496982  1
  Si  Si346  1  0.499914  0.787184  0.548771  1
  Si  Si347  1  0.561333  0.888408  0.379531  1
  Si  Si348  1  0.499707  0.212598  0.548823  1
  Si  Si349  1  0.499666  0.712363  0.477648  1
  Si  Si350  1  0.499948  0.287441  0.477700  1
  Si  Si351  1  -0.000000  0.212512  0.281205  1
  Si  Si352  1  0.000000  0.287483  0.210099  1
  Si  Si353  1  0.807708  0.214445  0.280948  1
  Si  Si354  1  0.692577  0.714481  0.280994  1
  Si  Si355  1  0.807710  0.785476  0.280990  1
  Si  Si356  1  0.692569  0.285399  0.280946  1
  Si  Si357  1  0.692585  0.785323  0.210300  1
  Si  Si358  1  0.807696  0.285426  0.210241  1
  Si  Si359  1  0.692547  0.214474  0.210264  1
  Si  Si360  1  0.807756  0.714554  0.210279  1
  Si  Si361  1  0.903792  0.310487  0.313069  1
  Si  Si362  1  0.903850  0.689155  0.312911  1
  Si  Si363  1  0.903820  0.189274  0.178182  1
  Si  Si364  1  0.903863  0.810760  0.178245  1
  Si  Si365  1  0.804593  0.499979  0.228558  1
  Si  Si366  1  0.695530  -0.000000  0.228657  1
  Si  Si367  1  0.695372  0.499967  0.262557  1
  Si  Si368  1  0.804834  -0.000000  0.262570  1
  Si  Si369  1  0.901324  0.499724  0.273725  1
  Si  Si370  1  0.901769  -0.000000  0.217541  1
  Si  Si371  1  0.000000  0.500048  0.229236  1
  Si  Si372  1  0.901855  0.499750  0.485212  1
  Si  Si373  1  0.901666  0.000000  0.541206  1
  Si  Si374  1  0.807618  0.714490  0.548539  1
  Si  Si375  1  0.692409  0.214465  0.548517  1
  Si  Si376  1  0.807475  0.285508  0.548511  1
  Si  Si377  1  0.692557  0.785547  0.548570  1
  Si  Si378  1  0.692451  0.285338  0.477794  1
  Si  Si379  1  0.807543  0.785372  0.477826  1
  Si  Si380  1  0.692343  0.714583  0.477859  1
  Si  Si381  1  0.807634  0.214473  0.477812  1
  Si  Si382  1  0.903925  0.810677  0.580370  1
  Si  Si383  1  0.903636  0.189458  0.580570  1
  Si  Si384  1  0.903804  0.689187  0.446012  1
  Si  Si385  1  0.903841  0.310510  0.445854  1
  Si  Si386  1  0.804760  0.000000  0.496146  1
  Si  Si387  1  0.695377  0.499940  0.496067  1
  Si  Si388  1  0.695496  0.000000  0.530121  1
  Si  Si389  1  0.804574  0.500011  0.530121  1
  Si  Si390  1  -0.000000  0.287399  0.548813  1
  Si  Si391  1  0.938662  0.388657  0.379457  1
  Si  Si392  1  0.938953  0.612460  0.379472  1
  H  H393  1  0.084593  0.163152  0.120675  1
  H  H394  1  0.085435  0.838047  0.120583  1
  H  H395  1  0.085529  0.838237  0.638264  1
  H  H396  1  0.084909  0.162879  0.638174  1
  H  H397  1  0.415414  0.663144  0.120828  1
  H  H398  1  0.585589  0.661645  0.120532  1
  H  H399  1  0.414599  0.338045  0.120648  1
  H  H400  1  0.584954  0.337393  0.120666  1
  H  H401  1  0.584711  0.336829  0.638186  1
  H  H402  1  0.414646  0.338055  0.638321  1
  H  H403  1  0.584837  0.662826  0.638146  1
  H  H404  1  0.414802  0.662449  0.638405  1
  H  H405  1  0.914688  0.161772  0.120535  1
  H  H406  1  0.915073  0.837248  0.120537  1
  H  H407  1  0.915346  0.836973  0.638067  1
  H  H408  1  0.914519  0.161911  0.638211  1
