# generated using pymatgen
data_Si22H2O45
_symmetry_space_group_name_H-M   'P 1'
_cell_length_a   15.08014935
_cell_length_b   13.75080220
_cell_length_c   68.53014484
_cell_angle_alpha   90.00000000
_cell_angle_beta   90.00000000
_cell_angle_gamma   90.00000000
_symmetry_Int_Tables_number   1
_chemical_formula_structural   Si22H2O45
_chemical_formula_sum   'Si176 H16 O360'
_cell_volume   14210.6952925
_cell_formula_units_Z   8
loop_
 _symmetry_equiv_pos_site_id
 _symmetry_equiv_pos_as_xyz
  1  'x, y, z'
loop_
 _atom_site_type_symbol
 _atom_site_label
 _atom_site_symmetry_multiplicity
 _atom_site_fract_x
 _atom_site_fract_y
 _atom_site_fract_z
 _atom_site_occupancy
  O  O1  1  0.083114  0.254446  0.153864  1
  O  O2  1  0.419144  0.755614  0.152986  1
  O  O3  1  0.414974  0.246142  0.154187  1
  O  O4  1  0.088117  0.745326  0.155975  1
  O  O5  1  0.142759  0.340997  0.124107  1
  O  O6  1  0.353167  0.846309  0.086093  1
  O  O7  1  0.354574  0.843852  0.123840  1
  O  O8  1  0.356610  0.159232  0.124343  1
  O  O9  1  0.362298  0.161765  0.086439  1
  O  O10  1  0.141272  0.657369  0.125698  1
  O  O11  1  0.249263  0.250066  0.147168  1
  O  O12  1  0.252229  0.749652  0.147314  1
  O  O13  1  0.175138  0.407412  0.157551  1
  O  O14  1  0.325778  0.907167  0.157640  1
  O  O15  1  0.322791  0.093099  0.157834  1
  O  O16  1  0.381361  0.002512  0.105218  1
  O  O17  1  0.496994  0.872763  0.104909  1
  O  O18  1  0.181476  0.593177  0.159067  1
  O  O19  1  0.588628  0.754347  0.155763  1
  O  O20  1  0.913434  0.255345  0.154734  1
  O  O21  1  0.918674  0.744648  0.153283  1
  O  O22  1  0.584539  0.244614  0.154831  1
  O  O23  1  0.640386  0.840937  0.086598  1
  O  O24  1  0.636672  0.837833  0.124516  1
  O  O25  1  0.860496  0.339882  0.123907  1
  O  O26  1  0.854160  0.653564  0.124556  1
  O  O27  1  0.643631  0.154155  0.125363  1
  O  O28  1  0.644333  0.156218  0.087629  1
  O  O29  1  0.752671  0.755914  0.146659  1
  O  O30  1  0.748712  0.255656  0.146772  1
  O  O31  1  0.675734  0.911214  0.157132  1
  O  O32  1  0.825932  0.411835  0.156785  1
  O  O33  1  0.820467  0.597737  0.158831  1
  O  O34  1  0.501154  0.127201  0.106300  1
  O  O35  1  0.616917  0.997485  0.106053  1
  O  O36  1  0.088028  0.755223  0.216212  1
  O  O37  1  0.415186  0.254235  0.218009  1
  O  O38  1  0.418708  0.744472  0.218564  1
  O  O39  1  0.083559  0.246250  0.217747  1
  O  O40  1  0.139066  0.839910  0.247117  1
  O  O41  1  0.358667  0.338417  0.248425  1
  O  O42  1  0.352873  0.652518  0.247030  1
  O  O43  1  0.144913  0.155506  0.246757  1
  O  O44  1  0.252440  0.755464  0.224766  1
  O  O45  1  0.249160  0.255398  0.224798  1
  O  O46  1  0.176707  0.911315  0.214268  1
  O  O47  1  0.328208  0.411542  0.215423  1
  O  O48  1  0.320569  0.597353  0.212686  1
  O  O49  1  0.180052  0.097619  0.212710  1
  O  O50  1  0.250098  0.490541  0.186389  1
  O  O51  1  0.246132  0.996996  0.184927  1
  O  O52  1  0.417377  0.500046  0.190270  1
  O  O53  1  0.414212  0.001203  0.182133  1
  O  O54  1  0.079976  0.001103  0.190670  1
  O  O55  1  0.083193  0.499677  0.181779  1
  O  O56  1  0.118112  0.998984  0.265857  1
  O  O57  1  0.001314  0.127372  0.265548  1
  O  O58  1  0.492644  0.750423  0.185818  1
  O  O59  1  0.496345  0.250439  0.186074  1
  O  O60  1  0.497445  0.627405  0.265473  1
  O  O61  1  0.000000  0.599453  0.206619  1
  O  O62  1  0.002391  0.250426  0.185836  1
  O  O63  1  0.499980  0.900846  0.206451  1
  O  O64  1  0.584881  0.255129  0.217245  1
  O  O65  1  0.918556  0.755012  0.218840  1
  O  O66  1  0.914016  0.244222  0.217065  1
  O  O67  1  0.588159  0.745621  0.215975  1
  O  O68  1  0.640788  0.341608  0.247516  1
  O  O69  1  0.856462  0.842344  0.248314  1
  O  O70  1  0.857517  0.156968  0.247242  1
  O  O71  1  0.639862  0.659641  0.246635  1
  O  O72  1  0.749734  0.250574  0.225040  1
  O  O73  1  0.751922  0.750209  0.224966  1
  O  O74  1  0.676774  0.407727  0.214229  1
  O  O75  1  0.826204  0.907378  0.214670  1
  O  O76  1  0.820212  0.092937  0.213726  1
  O  O77  1  0.681047  0.593383  0.213429  1
  O  O78  1  0.746407  0.992963  0.186780  1
  O  O79  1  0.750174  0.494140  0.185662  1
  O  O80  1  0.914075  -0.000000  0.189904  1
  O  O81  1  0.917287  0.501147  0.181481  1
  O  O82  1  0.583330  0.500725  0.190353  1
  O  O83  1  0.580213  0.000000  0.181082  1
  O  O84  1  0.500229  0.099480  0.206617  1
  O  O85  1  0.000000  0.900784  0.165426  1
  O  O86  1  0.682005  0.097088  0.159306  1
  O  O87  1  0.998987  0.099529  0.165270  1
  O  O88  1  0.616863  0.502328  0.265687  1
  O  O89  1  0.992542  0.750390  0.186077  1
  O  O90  1  0.500551  0.400752  0.165419  1
  O  O91  1  0.998497  0.400729  0.206520  1
  O  O92  1  0.500079  0.599360  0.165310  1
  O  O93  1  0.083995  0.754606  0.314530  1
  O  O94  1  0.411814  0.254907  0.316818  1
  O  O95  1  0.416559  0.745427  0.314300  1
  O  O96  1  0.081257  0.245343  0.313947  1
  O  O97  1  0.144393  0.842889  0.285036  1
  O  O98  1  0.359037  0.341717  0.286353  1
  O  O99  1  0.355924  0.658022  0.284752  1
  O  O100  1  0.143520  0.158055  0.284467  1
  O  O101  1  0.250030  0.749492  0.307841  1
  O  O102  1  0.248049  0.249345  0.307955  1
  O  O103  1  0.177561  0.906347  0.318813  1
  O  O104  1  0.317973  0.406704  0.319633  1
  O  O105  1  0.324424  0.592659  0.318346  1
  O  O106  1  0.173081  0.092155  0.317984  1
  O  O107  1  0.253009  0.005376  0.345682  1
  O  O108  1  0.252928  0.508600  0.347519  1
  O  O109  1  0.419352  0.000000  0.351204  1
  O  O110  1  0.419228  0.499408  0.341919  1
  O  O111  1  0.085180  0.499080  0.350479  1
  O  O112  1  0.085108  0.000000  0.342713  1
  O  O113  1  0.499754  0.599396  0.367165  1
  O  O114  1  0.319149  0.902222  0.373134  1
  O  O115  1  0.381470  0.497867  0.266778  1
  O  O116  1  0.005212  0.749608  0.346750  1
  O  O117  1  0.005498  0.249672  0.346502  1
  O  O118  1  0.495431  0.749784  0.346488  1
  O  O119  1  0.581114  0.255527  0.313767  1
  O  O120  1  0.914441  0.755015  0.315886  1
  O  O121  1  0.911595  0.245161  0.316141  1
  O  O122  1  0.586275  0.744577  0.315622  1
  O  O123  1  0.646206  0.347588  0.285222  1
  O  O124  1  0.857623  0.844104  0.286059  1
  O  O125  1  0.861480  0.160594  0.285173  1
  O  O126  1  0.638295  0.661213  0.284567  1
  O  O127  1  0.747313  0.244836  0.307373  1
  O  O128  1  0.750755  0.744569  0.307382  1
  O  O129  1  0.678851  0.402446  0.319589  1
  O  O130  1  0.817581  0.903336  0.319753  1
  O  O131  1  0.823132  0.089309  0.318028  1
  O  O132  1  0.673843  0.588121  0.317305  1
  O  O133  1  0.753080  0.506170  0.345808  1
  O  O134  1  0.753017  0.005359  0.347497  1
  O  O135  1  0.919233  0.500411  0.351520  1
  O  O136  1  0.919129  0.998704  0.341748  1
  O  O137  1  0.585270  0.998847  0.350551  1
  O  O138  1  0.585264  0.500298  0.342645  1
  O  O139  1  0.998644  0.400744  0.326014  1
  O  O140  1  0.500783  0.372821  0.267159  1
  O  O141  1  -0.000000  0.599348  0.326097  1
  O  O142  1  0.000000  0.099159  0.367098  1
  O  O143  1  0.882799  0.001057  0.266779  1
  O  O144  1  -0.000000  0.872629  0.266908  1
  O  O145  1  -0.000000  0.900587  0.367253  1
  O  O146  1  0.508776  0.249575  0.346728  1
  O  O147  1  0.500265  0.900472  0.325864  1
  O  O148  1  0.500228  0.400681  0.367243  1
  O  O149  1  0.500447  0.099279  0.326031  1
  O  O150  1  0.081207  0.255229  0.379057  1
  O  O151  1  0.083114  0.254446  0.475176  1
  O  O152  1  0.416674  0.754835  0.378709  1
  O  O153  1  0.419144  0.755614  0.474297  1
  O  O154  1  0.414974  0.246142  0.475498  1
  O  O155  1  0.411381  0.245259  0.376572  1
  O  O156  1  0.088117  0.745326  0.477286  1
  O  O157  1  0.084517  0.745766  0.378881  1
  O  O158  1  0.146077  0.346535  0.407707  1
  O  O159  1  0.142759  0.340997  0.445418  1
  O  O160  1  0.353167  0.846309  0.407405  1
  O  O161  1  0.354574  0.843852  0.445151  1
  O  O162  1  0.356610  0.159232  0.445654  1
  O  O163  1  0.362298  0.161765  0.407750  1
  O  O164  1  0.141272  0.657369  0.447009  1
  O  O165  1  0.141913  0.660783  0.409103  1
  O  O166  1  0.247227  0.244168  0.385500  1
  O  O167  1  0.249263  0.250066  0.468479  1
  O  O168  1  0.250782  0.744282  0.385390  1
  O  O169  1  0.252229  0.749652  0.468625  1
  O  O170  1  0.175138  0.407412  0.478863  1
  O  O171  1  0.325778  0.907167  0.478951  1
  O  O172  1  0.322791  0.093099  0.479145  1
  O  O173  1  0.323798  0.088369  0.375144  1
  O  O174  1  0.171269  0.588299  0.376021  1
  O  O175  1  0.118123  0.501411  0.427430  1
  O  O176  1  0.381361  0.002512  0.426529  1
  O  O177  1  0.001548  0.372714  0.426110  1
  O  O178  1  0.496994  0.872763  0.426220  1
  O  O179  1  0.181476  0.593177  0.480378  1
  O  O180  1  0.179428  0.402530  0.373485  1
  O  O181  1  0.586220  0.754951  0.377370  1
  O  O182  1  0.588628  0.754347  0.477074  1
  O  O183  1  0.911657  0.254410  0.376891  1
  O  O184  1  0.913434  0.255345  0.476045  1
  O  O185  1  0.918674  0.744648  0.474594  1
  O  O186  1  0.914869  0.744863  0.377686  1
  O  O187  1  0.584539  0.244614  0.476142  1
  O  O188  1  0.580717  0.244811  0.379742  1
  O  O189  1  0.640386  0.840937  0.407909  1
  O  O190  1  0.636672  0.837833  0.445827  1
  O  O191  1  0.858881  0.341641  0.407300  1
  O  O192  1  0.860496  0.339882  0.445218  1
  O  O193  1  0.854160  0.653564  0.445867  1
  O  O194  1  0.859497  0.659319  0.408133  1
  O  O195  1  0.643631  0.154155  0.446674  1
  O  O196  1  0.644333  0.156218  0.408940  1
  O  O197  1  0.750373  0.750477  0.385703  1
  O  O198  1  0.752671  0.755914  0.467970  1
  O  O199  1  0.747548  0.250309  0.385598  1
  O  O200  1  0.748712  0.255656  0.468083  1
  O  O201  1  0.678389  0.907702  0.374669  1
  O  O202  1  0.675734  0.911214  0.478443  1
  O  O203  1  0.818969  0.406676  0.373929  1
  O  O204  1  0.825932  0.411835  0.478096  1
  O  O205  1  0.820467  0.597737  0.480142  1
  O  O206  1  0.822363  0.592609  0.374921  1
  O  O207  1  0.501154  0.127201  0.427611  1
  O  O208  1  0.673644  0.093303  0.375091  1
  O  O209  1  0.616917  0.997485  0.427364  1
  O  O210  1  0.882780  0.498682  0.426364  1
  O  O211  1  0.000000  0.627396  0.427782  1
  O  O212  1  0.088028  0.755223  0.537523  1
  O  O213  1  0.415186  0.254235  0.539320  1
  O  O214  1  0.418708  0.744472  0.539875  1
  O  O215  1  0.083559  0.246250  0.539058  1
  O  O216  1  0.139066  0.839910  0.568428  1
  O  O217  1  0.358667  0.338417  0.569736  1
  O  O218  1  0.352873  0.652518  0.568341  1
  O  O219  1  0.144913  0.155506  0.568068  1
  O  O220  1  0.252440  0.755464  0.546077  1
  O  O221  1  0.249160  0.255398  0.546109  1
  O  O222  1  0.176707  0.911315  0.535579  1
  O  O223  1  0.328208  0.411542  0.536735  1
  O  O224  1  0.320569  0.597353  0.533997  1
  O  O225  1  0.180052  0.097619  0.534021  1
  O  O226  1  0.250098  0.490541  0.507700  1
  O  O227  1  0.246132  0.996996  0.506238  1
  O  O228  1  0.417377  0.500046  0.511581  1
  O  O229  1  0.414212  0.001203  0.503444  1
  O  O230  1  0.079976  0.001103  0.511981  1
  O  O231  1  0.083193  0.499677  0.503090  1
  O  O232  1  0.118112  0.998984  0.587168  1
  O  O233  1  0.001314  0.127372  0.586859  1
  O  O234  1  0.492644  0.750423  0.507129  1
  O  O235  1  0.496345  0.250439  0.507385  1
  O  O236  1  0.497445  0.627405  0.586784  1
  O  O237  1  -0.000000  0.599453  0.527930  1
  O  O238  1  0.002391  0.250426  0.507147  1
  O  O239  1  0.499980  0.900846  0.527762  1
  O  O240  1  0.584881  0.255129  0.538556  1
  O  O241  1  0.918556  0.755012  0.540151  1
  O  O242  1  0.914016  0.244222  0.538376  1
  O  O243  1  0.588159  0.745621  0.537287  1
  O  O244  1  0.640788  0.341608  0.568827  1
  O  O245  1  0.856462  0.842344  0.569626  1
  O  O246  1  0.857517  0.156968  0.568553  1
  O  O247  1  0.639862  0.659641  0.567946  1
  O  O248  1  0.749734  0.250574  0.546351  1
  O  O249  1  0.751922  0.750209  0.546277  1
  O  O250  1  0.676774  0.407727  0.535540  1
  O  O251  1  0.826204  0.907378  0.535981  1
  O  O252  1  0.820212  0.092937  0.535037  1
  O  O253  1  0.681047  0.593383  0.534740  1
  O  O254  1  0.746407  0.992963  0.508091  1
  O  O255  1  0.750174  0.494140  0.506973  1
  O  O256  1  0.914075  0.000000  0.511215  1
  O  O257  1  0.917287  0.501147  0.502792  1
  O  O258  1  0.583330  0.500725  0.511665  1
  O  O259  1  0.580213  0.000000  0.502393  1
  O  O260  1  0.500229  0.099480  0.527928  1
  O  O261  1  0.000000  0.900784  0.486737  1
  O  O262  1  0.682005  0.097088  0.480617  1
  O  O263  1  0.998987  0.099529  0.486581  1
  O  O264  1  0.616863  0.502328  0.586999  1
  O  O265  1  0.992542  0.750390  0.507388  1
  O  O266  1  0.500551  0.400752  0.486730  1
  O  O267  1  0.998497  0.400729  0.527831  1
  O  O268  1  0.500079  0.599360  0.486621  1
  O  O269  1  0.083995  0.754606  0.635841  1
  O  O270  1  0.411814  0.254907  0.638129  1
  O  O271  1  0.416559  0.745427  0.635611  1
  O  O272  1  0.081257  0.245343  0.635258  1
  O  O273  1  0.144393  0.842889  0.606347  1
  O  O274  1  0.359037  0.341717  0.607664  1
  O  O275  1  0.355924  0.658022  0.606063  1
  O  O276  1  0.143520  0.158055  0.605778  1
  O  O277  1  0.250030  0.749492  0.629152  1
  O  O278  1  0.248049  0.249345  0.629266  1
  O  O279  1  0.177561  0.906347  0.640124  1
  O  O280  1  0.317973  0.406704  0.640944  1
  O  O281  1  0.324424  0.592659  0.639657  1
  O  O282  1  0.173081  0.092155  0.639295  1
  O  O283  1  0.253009  0.005376  0.666993  1
  O  O284  1  0.252928  0.508600  0.668830  1
  O  O285  1  0.419352  0.000000  0.672515  1
  O  O286  1  0.419228  0.499408  0.663231  1
  O  O287  1  0.085180  0.499080  0.671791  1
  O  O288  1  0.085108  0.000000  0.664024  1
  O  O289  1  0.499754  0.599396  0.688476  1
  O  O290  1  0.319149  0.902222  0.694445  1
  O  O291  1  0.381470  0.497867  0.588089  1
  O  O292  1  0.005212  0.749608  0.668061  1
  O  O293  1  0.005498  0.249672  0.667813  1
  O  O294  1  0.495431  0.749784  0.667799  1
  O  O295  1  0.581114  0.255527  0.635079  1
  O  O296  1  0.914441  0.755015  0.637197  1
  O  O297  1  0.911595  0.245161  0.637452  1
  O  O298  1  0.586275  0.744577  0.636933  1
  O  O299  1  0.646206  0.347588  0.606533  1
  O  O300  1  0.857623  0.844104  0.607370  1
  O  O301  1  0.861480  0.160594  0.606484  1
  O  O302  1  0.638295  0.661213  0.605878  1
  O  O303  1  0.747313  0.244836  0.628684  1
  O  O304  1  0.750755  0.744569  0.628693  1
  O  O305  1  0.678851  0.402446  0.640900  1
  O  O306  1  0.817581  0.903336  0.641064  1
  O  O307  1  0.823132  0.089309  0.639339  1
  O  O308  1  0.673843  0.588121  0.638616  1
  O  O309  1  0.753080  0.506170  0.667119  1
  O  O310  1  0.753017  0.005359  0.668808  1
  O  O311  1  0.919233  0.500411  0.672831  1
  O  O312  1  0.919129  0.998704  0.663059  1
  O  O313  1  0.585270  0.998847  0.671862  1
  O  O314  1  0.585264  0.500298  0.663956  1
  O  O315  1  0.998644  0.400744  0.647325  1
  O  O316  1  0.500783  0.372821  0.588470  1
  O  O317  1  -0.000000  0.599348  0.647408  1
  O  O318  1  0.000000  0.099159  0.688409  1
  O  O319  1  0.882799  0.001057  0.588090  1
  O  O320  1  0.000000  0.872629  0.588219  1
  O  O321  1  0.000000  0.900587  0.688564  1
  O  O322  1  0.508776  0.249575  0.668039  1
  O  O323  1  0.500265  0.900472  0.647176  1
  O  O324  1  0.500228  0.400681  0.688554  1
  O  O325  1  0.500447  0.099279  0.647342  1
  O  O326  1  0.081207  0.255229  0.700368  1
  O  O327  1  0.416674  0.754835  0.700020  1
  O  O328  1  0.411381  0.245259  0.697883  1
  O  O329  1  0.084517  0.745766  0.700192  1
  O  O330  1  0.146077  0.346535  0.729018  1
  O  O331  1  0.353167  0.846309  0.728716  1
  O  O332  1  0.354574  0.843852  0.766462  1
  O  O333  1  0.356610  0.159232  0.766965  1
  O  O334  1  0.362298  0.161765  0.729061  1
  O  O335  1  0.141913  0.660783  0.730414  1
  O  O336  1  0.247227  0.244168  0.706811  1
  O  O337  1  0.250782  0.744282  0.706701  1
  O  O338  1  0.323798  0.088369  0.696455  1
  O  O339  1  0.171269  0.588299  0.697332  1
  O  O340  1  0.381361  0.002512  0.747840  1
  O  O341  1  0.496994  0.872763  0.747531  1
  O  O342  1  0.179428  0.402530  0.694796  1
  O  O343  1  0.586220  0.754951  0.698681  1
  O  O344  1  0.911657  0.254410  0.698202  1
  O  O345  1  0.914869  0.744863  0.698997  1
  O  O346  1  0.580717  0.244811  0.701053  1
  O  O347  1  0.640386  0.840937  0.729220  1
  O  O348  1  0.636672  0.837833  0.767138  1
  O  O349  1  0.858881  0.341641  0.728611  1
  O  O350  1  0.859497  0.659319  0.729444  1
  O  O351  1  0.643631  0.154155  0.767985  1
  O  O352  1  0.644333  0.156218  0.730252  1
  O  O353  1  0.750373  0.750477  0.707014  1
  O  O354  1  0.747548  0.250309  0.706910  1
  O  O355  1  0.678389  0.907702  0.695980  1
  O  O356  1  0.818969  0.406676  0.695240  1
  O  O357  1  0.822363  0.592609  0.696232  1
  O  O358  1  0.501154  0.127201  0.748922  1
  O  O359  1  0.673644  0.093303  0.696402  1
  O  O360  1  0.616917  0.997485  0.748675  1
  Si  Si361  1  0.398469  0.114569  0.105532  1
  Si  Si362  1  0.394747  0.889803  0.104995  1
  Si  Si363  1  0.163529  0.312144  0.145607  1
  Si  Si364  1  0.337042  0.812922  0.145376  1
  Si  Si365  1  0.335096  0.187940  0.145800  1
  Si  Si366  1  0.166426  0.687269  0.146870  1
  Si  Si367  1  0.599715  0.885422  0.105521  1
  Si  Si368  1  0.664218  0.813722  0.145882  1
  Si  Si369  1  0.836383  0.314589  0.145426  1
  Si  Si370  1  0.835518  0.688910  0.145759  1
  Si  Si371  1  0.665699  0.188839  0.146432  1
  Si  Si372  1  0.603397  0.110200  0.106394  1
  Si  Si373  1  0.000000  0.714352  0.207519  1
  Si  Si374  1  0.499340  0.285897  0.164567  1
  Si  Si375  1  0.498784  0.000000  0.195065  1
  Si  Si376  1  0.499345  0.214336  0.207547  1
  Si  Si377  1  0.164699  0.814447  0.225710  1
  Si  Si378  1  0.336898  0.313864  0.226728  1
  Si  Si379  1  0.335196  0.688417  0.225824  1
  Si  Si380  1  0.165458  0.189590  0.225580  1
  Si  Si381  1  0.327556  0.499829  0.201240  1
  Si  Si382  1  0.325912  0.000000  0.170615  1
  Si  Si383  1  0.172208  0.001873  0.200700  1
  Si  Si384  1  0.173921  0.497761  0.171172  1
  Si  Si385  1  0.103715  0.111523  0.265645  1
  Si  Si386  1  0.395205  0.610457  0.265991  1
  Si  Si387  1  0.102248  0.886701  0.266194  1
  Si  Si388  1  0.000000  0.785896  0.164600  1
  Si  Si389  1  0.000000  0.500223  0.195111  1
  Si  Si390  1  0.898752  0.113317  0.266183  1
  Si  Si391  1  0.600169  0.614507  0.265585  1
  Si  Si392  1  0.663897  0.312628  0.226152  1
  Si  Si393  1  0.837327  0.812614  0.226774  1
  Si  Si394  1  0.834714  0.187014  0.225922  1
  Si  Si395  1  0.665961  0.688100  0.225424  1
  Si  Si396  1  0.825419  0.998512  0.201288  1
  Si  Si397  1  0.827079  0.501320  0.170649  1
  Si  Si398  1  0.674185  0.499211  0.200934  1
  Si  Si399  1  0.672499  0.000000  0.171037  1
  Si  Si400  1  0.998214  0.000000  0.176802  1
  Si  Si401  1  0.500442  0.500205  0.176837  1
  Si  Si402  1  0.000000  0.214405  0.164366  1
  Si  Si403  1  0.000000  0.285865  0.207351  1
  Si  Si404  1  0.500249  0.714243  0.164383  1
  Si  Si405  1  0.500105  0.785966  0.207295  1
  Si  Si406  1  0.398052  0.385723  0.267240  1
  Si  Si407  1  -0.000000  0.499920  0.337527  1
  Si  Si408  1  0.000000  0.714207  0.325245  1
  Si  Si409  1  0.164769  0.812478  0.306467  1
  Si  Si410  1  0.333521  0.312297  0.307536  1
  Si  Si411  1  0.335814  0.687496  0.306249  1
  Si  Si412  1  0.162379  0.187451  0.306032  1
  Si  Si413  1  0.327349  0.998641  0.361336  1
  Si  Si414  1  0.327157  0.501785  0.331823  1
  Si  Si415  1  0.173690  0.499763  0.361923  1
  Si  Si416  1  0.173572  0.000000  0.331275  1
  Si  Si417  1  0.499973  0.785569  0.325001  1
  Si  Si418  1  0.000000  0.000000  0.355698  1
  Si  Si419  1  0.000000  0.785732  0.368212  1
  Si  Si420  1  0.499830  0.714275  0.367991  1
  Si  Si421  1  0.602982  0.389707  0.266359  1
  Si  Si422  1  0.000000  0.285882  0.325063  1
  Si  Si423  1  0.664383  0.311652  0.306405  1
  Si  Si424  1  0.834133  0.810870  0.307129  1
  Si  Si425  1  0.835167  0.186020  0.306545  1
  Si  Si426  1  0.663033  0.685744  0.306089  1
  Si  Si427  1  0.827016  0.501275  0.361579  1
  Si  Si428  1  0.826800  0.000000  0.331717  1
  Si  Si429  1  0.673825  0.001266  0.361968  1
  Si  Si430  1  0.674112  0.499191  0.331313  1
  Si  Si431  1  0.000000  0.214013  0.367976  1
  Si  Si432  1  0.897307  0.888520  0.267068  1
  Si  Si433  1  0.501104  0.499929  0.355748  1
  Si  Si434  1  0.501303  0.000000  0.337394  1
  Si  Si435  1  0.500256  0.214189  0.325248  1
  Si  Si436  1  0.500015  0.285792  0.368150  1
  Si  Si437  1  0.398469  0.114569  0.426844  1
  Si  Si438  1  0.394747  0.889803  0.426306  1
  Si  Si439  1  0.102076  0.613654  0.427891  1
  Si  Si440  1  0.103880  0.388900  0.426652  1
  Si  Si441  1  0.164407  0.311160  0.386498  1
  Si  Si442  1  0.163529  0.312144  0.466918  1
  Si  Si443  1  0.333876  0.811030  0.386237  1
  Si  Si444  1  0.337042  0.812922  0.466687  1
  Si  Si445  1  0.335096  0.187940  0.467111  1
  Si  Si446  1  0.335444  0.185981  0.386354  1
  Si  Si447  1  0.166426  0.687269  0.468182  1
  Si  Si448  1  0.163073  0.685793  0.387397  1
  Si  Si449  1  0.599715  0.885422  0.426832  1
  Si  Si450  1  0.664502  0.812599  0.386567  1
  Si  Si451  1  0.664218  0.813722  0.467193  1
  Si  Si452  1  0.833546  0.312374  0.386089  1
  Si  Si453  1  0.836383  0.314589  0.466737  1
  Si  Si454  1  0.835518  0.688910  0.467070  1
  Si  Si455  1  0.835927  0.687910  0.386769  1
  Si  Si456  1  0.665699  0.188839  0.467743  1
  Si  Si457  1  0.662525  0.187282  0.387435  1
  Si  Si458  1  0.603397  0.110200  0.427705  1
  Si  Si459  1  0.897128  0.611224  0.426998  1
  Si  Si460  1  0.898910  0.386408  0.426247  1
  Si  Si461  1  0.000000  0.714352  0.528830  1
  Si  Si462  1  0.499340  0.285897  0.485878  1
  Si  Si463  1  0.498784  0.000000  0.516376  1
  Si  Si464  1  0.499345  0.214336  0.528859  1
  Si  Si465  1  0.164699  0.814447  0.547021  1
  Si  Si466  1  0.336898  0.313864  0.548039  1
  Si  Si467  1  0.335196  0.688417  0.547135  1
  Si  Si468  1  0.165458  0.189590  0.546891  1
  Si  Si469  1  0.327556  0.499829  0.522551  1
  Si  Si470  1  0.325912  0.000000  0.491926  1
  Si  Si471  1  0.172208  0.001873  0.522011  1
  Si  Si472  1  0.173921  0.497761  0.492483  1
  Si  Si473  1  0.103715  0.111523  0.586956  1
  Si  Si474  1  0.395205  0.610457  0.587302  1
  Si  Si475  1  0.102248  0.886701  0.587506  1
  Si  Si476  1  0.000000  0.785896  0.485911  1
  Si  Si477  1  0.000000  0.500223  0.516422  1
  Si  Si478  1  0.898752  0.113317  0.587494  1
  Si  Si479  1  0.600169  0.614507  0.586896  1
  Si  Si480  1  0.663897  0.312628  0.547463  1
  Si  Si481  1  0.837327  0.812614  0.548085  1
  Si  Si482  1  0.834714  0.187014  0.547233  1
  Si  Si483  1  0.665961  0.688100  0.546735  1
  Si  Si484  1  0.825419  0.998512  0.522599  1
  Si  Si485  1  0.827079  0.501320  0.491960  1
  Si  Si486  1  0.674185  0.499211  0.522245  1
  Si  Si487  1  0.672499  0.000000  0.492348  1
  Si  Si488  1  0.998214  0.000000  0.498113  1
  Si  Si489  1  0.500442  0.500205  0.498148  1
  Si  Si490  1  -0.000000  0.214405  0.485677  1
  Si  Si491  1  0.000000  0.285865  0.528662  1
  Si  Si492  1  0.500249  0.714243  0.485694  1
  Si  Si493  1  0.500105  0.785966  0.528606  1
  Si  Si494  1  0.398052  0.385723  0.588551  1
  Si  Si495  1  0.000000  0.499920  0.658839  1
  Si  Si496  1  0.000000  0.714207  0.646556  1
  Si  Si497  1  0.164769  0.812478  0.627778  1
  Si  Si498  1  0.333521  0.312297  0.628847  1
  Si  Si499  1  0.335814  0.687496  0.627560  1
  Si  Si500  1  0.162379  0.187451  0.627343  1
  Si  Si501  1  0.327349  0.998641  0.682647  1
  Si  Si502  1  0.327157  0.501785  0.653134  1
  Si  Si503  1  0.173690  0.499763  0.683234  1
  Si  Si504  1  0.173572  -0.000000  0.652586  1
  Si  Si505  1  0.499973  0.785569  0.646312  1
  Si  Si506  1  0.000000  0.000000  0.677009  1
  Si  Si507  1  0.000000  0.785732  0.689523  1
  Si  Si508  1  0.499830  0.714275  0.689302  1
  Si  Si509  1  0.602982  0.389707  0.587670  1
  Si  Si510  1  0.000000  0.285882  0.646375  1
  Si  Si511  1  0.664383  0.311652  0.627716  1
  Si  Si512  1  0.834133  0.810870  0.628440  1
  Si  Si513  1  0.835167  0.186020  0.627856  1
  Si  Si514  1  0.663033  0.685744  0.627400  1
  Si  Si515  1  0.827016  0.501275  0.682890  1
  Si  Si516  1  0.826800  0.000000  0.653028  1
  Si  Si517  1  0.673825  0.001266  0.683279  1
  Si  Si518  1  0.674112  0.499191  0.652624  1
  Si  Si519  1  0.000000  0.214013  0.689288  1
  Si  Si520  1  0.897307  0.888520  0.588379  1
  Si  Si521  1  0.501104  0.499929  0.677059  1
  Si  Si522  1  0.501303  0.000000  0.658705  1
  Si  Si523  1  0.500256  0.214189  0.646559  1
  Si  Si524  1  0.500015  0.285792  0.689461  1
  Si  Si525  1  0.398469  0.114569  0.748155  1
  Si  Si526  1  0.394747  0.889803  0.747617  1
  Si  Si527  1  0.164407  0.311160  0.707809  1
  Si  Si528  1  0.333876  0.811030  0.707548  1
  Si  Si529  1  0.335444  0.185981  0.707665  1
  Si  Si530  1  0.163073  0.685793  0.708708  1
  Si  Si531  1  0.599715  0.885422  0.748143  1
  Si  Si532  1  0.664502  0.812599  0.707878  1
  Si  Si533  1  0.833546  0.312374  0.707401  1
  Si  Si534  1  0.835927  0.687910  0.708080  1
  Si  Si535  1  0.662525  0.187282  0.708746  1
  Si  Si536  1  0.603397  0.110200  0.749016  1
  H  H537  1  0.142759  0.340997  0.110974  1
  H  H538  1  0.353167  0.846309  0.072961  1
  H  H539  1  0.362298  0.161765  0.073306  1
  H  H540  1  0.141272  0.657369  0.112565  1
  H  H541  1  0.640386  0.840937  0.073465  1
  H  H542  1  0.860496  0.339882  0.110774  1
  H  H543  1  0.854160  0.653564  0.111423  1
  H  H544  1  0.644333  0.156218  0.074496  1
  H  H545  1  0.146077  0.346535  0.742151  1
  H  H546  1  0.354574  0.843852  0.779595  1
  H  H547  1  0.356610  0.159232  0.780098  1
  H  H548  1  0.141913  0.660783  0.743547  1
  H  H549  1  0.636672  0.837833  0.780271  1
  H  H550  1  0.858881  0.341641  0.741744  1
  H  H551  1  0.859497  0.659319  0.742577  1
  H  H552  1  0.643631  0.154155  0.781118  1
