# generated using pymatgen
data_Si10H2O21
_symmetry_space_group_name_H-M   'P 1'
_cell_length_a   11.71879790
_cell_length_b   9.93299442
_cell_length_c   49.16483586
_cell_angle_alpha   134.99886015
_cell_angle_beta   90.00000000
_cell_angle_gamma   90.00000000
_symmetry_Int_Tables_number   1
_chemical_formula_structural   Si10H2O21
_chemical_formula_sum   'Si40 H8 O84'
_cell_volume   4046.79767268
_cell_formula_units_Z   4
loop_
 _symmetry_equiv_pos_site_id
 _symmetry_equiv_pos_as_xyz
  1  'x, y, z'
loop_
 _atom_site_type_symbol
 _atom_site_label
 _atom_site_symmetry_multiplicity
 _atom_site_fract_x
 _atom_site_fract_y
 _atom_site_fract_z
 _atom_site_occupancy
  Si  Si1  1  0.215979  0.000526  0.256242  1
  Si  Si2  1  0.715253  0.499801  0.256322  1
  Si  Si3  1  0.785167  0.794084  0.256288  1
  Si  Si4  1  0.284411  0.293577  0.256233  1
  Si  Si5  1  0.996305  0.000331  0.285738  1
  Si  Si6  1  0.503967  0.500511  0.285807  1
  Si  Si7  1  0.215979  0.000526  0.399099  1
  Si  Si8  1  0.715253  0.499801  0.399179  1
  Si  Si9  1  0.785167  0.794084  0.399145  1
  Si  Si10  1  0.284411  0.293577  0.399090  1
  Si  Si11  1  0.215919  0.000425  0.315342  1
  Si  Si12  1  0.715355  0.499701  0.315032  1
  Si  Si13  1  0.784683  0.205184  0.315031  1
  Si  Si14  1  0.284375  0.707349  0.315356  1
  O  O15  1  0.915621  0.826519  0.260879  1
  O  O16  1  0.416694  0.329683  0.261401  1
  O  O17  1  0.083668  0.000655  0.261394  1
  O  O18  1  0.584774  0.500537  0.261005  1
  O  O19  1  0.762968  0.499485  0.285634  1
  O  O20  1  0.737255  0.999480  0.285657  1
  O  O21  1  0.250245  0.180757  0.265871  1
  O  O22  1  0.750507  0.680382  0.265884  1
  O  O23  1  0.750352  0.680437  0.214224  1
  O  O24  1  0.250197  0.180658  0.214356  1
  O  O25  1  0.749746  0.318796  0.214230  1
  O  O26  1  0.250095  0.820202  0.214365  1
  O  O27  1  0.915621  0.826519  0.403736  1
  O  O28  1  0.416694  0.329683  0.404259  1
  O  O29  1  0.083622  0.000402  0.310158  1
  O  O30  1  0.584860  0.500259  0.310560  1
  O  O31  1  0.915218  0.173612  0.310503  1
  O  O32  1  0.416669  0.671300  0.310239  1
  O  O33  1  0.083668  0.000655  0.404251  1
  O  O34  1  0.584774  0.500537  0.403863  1
  O  O35  1  0.262684  0.000450  0.285791  1
  O  O36  1  0.762968  0.499485  0.428492  1
  O  O37  1  0.737255  0.999480  0.428514  1
  O  O38  1  0.237659  0.500452  0.285783  1
  O  O39  1  0.250245  0.180757  0.408728  1
  O  O40  1  0.750507  0.680382  0.408741  1
  O  O41  1  0.750352  0.680437  0.357081  1
  O  O42  1  0.250197  0.180658  0.357213  1
  O  O43  1  0.250231  0.820221  0.305724  1
  O  O44  1  0.749799  0.318694  0.305409  1
  O  O45  1  0.749746  0.318796  0.357087  1
  O  O46  1  0.250095  0.820202  0.357222  1
  H  H47  1  0.750352  0.680437  0.195918  1
  H  H48  1  0.250197  0.180658  0.196050  1
  H  H49  1  0.749746  0.318796  0.195924  1
  H  H50  1  0.250095  0.820202  0.196059  1
  O  O51  1  0.915621  0.826519  0.546593  1
  O  O52  1  0.416694  0.329683  0.547116  1
  O  O53  1  0.083622  0.000402  0.453015  1
  O  O54  1  0.584860  0.500259  0.453417  1
  O  O55  1  0.915218  0.173612  0.453360  1
  O  O56  1  0.416669  0.671300  0.453096  1
  O  O57  1  0.083668  0.000655  0.547108  1
  O  O58  1  0.584774  0.500537  0.546720  1
  O  O59  1  0.262684  0.000450  0.428648  1
  O  O60  1  0.762968  0.499485  0.571349  1
  O  O61  1  0.737255  0.999480  0.571371  1
  O  O62  1  0.237659  0.500452  0.428640  1
  O  O63  1  0.250245  0.180757  0.551585  1
  O  O64  1  0.750507  0.680382  0.551598  1
  O  O65  1  0.750352  0.680437  0.499938  1
  O  O66  1  0.250197  0.180658  0.500070  1
  O  O67  1  0.250231  0.820221  0.448582  1
  O  O68  1  0.749799  0.318694  0.448267  1
  O  O69  1  0.749746  0.318796  0.499945  1
  O  O70  1  0.250095  0.820202  0.500079  1
  Si  Si71  1  0.996305  0.000331  0.428595  1
  Si  Si72  1  0.503967  0.500511  0.428665  1
  Si  Si73  1  0.215979  0.000526  0.541956  1
  Si  Si74  1  0.715253  0.499801  0.542036  1
  Si  Si75  1  0.785167  0.794084  0.542002  1
  Si  Si76  1  0.284411  0.293577  0.541947  1
  Si  Si77  1  0.215919  0.000425  0.458200  1
  Si  Si78  1  0.715355  0.499701  0.457889  1
  Si  Si79  1  0.784683  0.205184  0.457888  1
  Si  Si80  1  0.284375  0.707349  0.458213  1
  Si  Si81  1  0.996305  0.000331  0.571453  1
  Si  Si82  1  0.503967  0.500511  0.571522  1
  Si  Si83  1  0.215979  0.000526  0.684813  1
  Si  Si84  1  0.715253  0.499801  0.684894  1
  Si  Si85  1  0.785167  0.794084  0.684859  1
  Si  Si86  1  0.284411  0.293577  0.684804  1
  Si  Si87  1  0.215919  0.000425  0.601057  1
  Si  Si88  1  0.715355  0.499701  0.600746  1
  Si  Si89  1  0.784683  0.205184  0.600745  1
  Si  Si90  1  0.284375  0.707349  0.601070  1
  Si  Si91  1  0.996305  0.000331  0.714310  1
  Si  Si92  1  0.503967  0.500511  0.714379  1
  Si  Si93  1  0.215919  0.000425  0.743914  1
  Si  Si94  1  0.715355  0.499701  0.743603  1
  Si  Si95  1  0.784683  0.205184  0.743602  1
  Si  Si96  1  0.284375  0.707349  0.743927  1
  O  O97  1  0.915621  0.826519  0.689450  1
  O  O98  1  0.416694  0.329683  0.689973  1
  O  O99  1  0.083622  0.000402  0.595872  1
  O  O100  1  0.584860  0.500259  0.596274  1
  O  O101  1  0.915218  0.173612  0.596217  1
  O  O102  1  0.416669  0.671300  0.595954  1
  O  O103  1  0.083668  0.000655  0.689965  1
  O  O104  1  0.584774  0.500537  0.689577  1
  O  O105  1  0.262684  0.000450  0.571506  1
  O  O106  1  0.762968  0.499485  0.714206  1
  O  O107  1  0.737255  0.999480  0.714228  1
  O  O108  1  0.237659  0.500452  0.571498  1
  O  O109  1  0.250245  0.180757  0.694442  1
  O  O110  1  0.750507  0.680382  0.694455  1
  O  O111  1  0.750352  0.680437  0.642795  1
  O  O112  1  0.250197  0.180658  0.642927  1
  O  O113  1  0.250231  0.820221  0.591439  1
  O  O114  1  0.749799  0.318694  0.591124  1
  O  O115  1  0.749746  0.318796  0.642802  1
  O  O116  1  0.250095  0.820202  0.642936  1
  O  O117  1  0.083622  0.000402  0.738729  1
  O  O118  1  0.584860  0.500259  0.739131  1
  O  O119  1  0.915218  0.173612  0.739074  1
  O  O120  1  0.416669  0.671300  0.738811  1
  O  O121  1  0.262684  0.000450  0.714363  1
  O  O122  1  0.237659  0.500452  0.714355  1
  O  O123  1  0.750352  0.680437  0.785652  1
  O  O124  1  0.250197  0.180658  0.785784  1
  O  O125  1  0.250231  0.820221  0.734296  1
  O  O126  1  0.749799  0.318694  0.733981  1
  O  O127  1  0.749746  0.318796  0.785659  1
  O  O128  1  0.250095  0.820202  0.785793  1
  H  H129  1  0.750352  0.680437  0.803958  1
  H  H130  1  0.250197  0.180658  0.804090  1
  H  H131  1  0.749746  0.318796  0.803965  1
  H  H132  1  0.250095  0.820202  0.804099  1
