# generated using pymatgen
data_Si5H2O11
_symmetry_space_group_name_H-M   'P 1'
_cell_length_a   11.71879790
_cell_length_b   9.93299442
_cell_length_c   44.13775082
_cell_angle_alpha   134.99886015
_cell_angle_beta   90.00000000
_cell_angle_gamma   90.00000000
_symmetry_Int_Tables_number   1
_chemical_formula_structural   Si5H2O11
_chemical_formula_sum   'Si20 H8 O44'
_cell_volume   3633.01420956
_cell_formula_units_Z   4
loop_
 _symmetry_equiv_pos_site_id
 _symmetry_equiv_pos_as_xyz
  1  'x, y, z'
loop_
 _atom_site_type_symbol
 _atom_site_label
 _atom_site_symmetry_multiplicity
 _atom_site_fract_x
 _atom_site_fract_y
 _atom_site_fract_z
 _atom_site_occupancy
  O  O1  1  0.915621  0.826519  0.232561  1
  O  O2  1  0.416694  0.329683  0.233143  1
  O  O3  1  0.083668  0.000000  0.233135  1
  O  O4  1  0.584774  0.500537  0.232702  1
  O  O5  1  0.762968  0.499485  0.260136  1
  O  O6  1  0.737255  0.000000  0.260161  1
  O  O7  1  0.250245  0.180757  0.238122  1
  O  O8  1  0.750507  0.680382  0.238136  1
  O  O9  1  0.750352  0.680437  0.180592  1
  O  O10  1  0.250197  0.180658  0.180739  1
  O  O11  1  0.749746  0.318796  0.180600  1
  O  O12  1  0.250095  0.820202  0.180749  1
  O  O13  1  0.915621  0.826519  0.391689  1
  O  O14  1  0.416694  0.329683  0.392271  1
  O  O15  1  0.083622  0.000000  0.287452  1
  O  O16  1  0.584860  0.500259  0.287901  1
  O  O17  1  0.915218  0.173612  0.287837  1
  O  O18  1  0.416669  0.671300  0.287544  1
  O  O19  1  0.083668  0.000000  0.392263  1
  O  O20  1  0.584774  0.500537  0.391830  1
  O  O21  1  0.262684  0.000000  0.260311  1
  O  O22  1  0.762968  0.499485  0.419264  1
  O  O23  1  0.737255  0.000000  0.419289  1
  O  O24  1  0.237659  0.500452  0.260302  1
  O  O25  1  0.250245  0.180757  0.397250  1
  O  O26  1  0.750507  0.680382  0.397264  1
  O  O27  1  0.750352  0.680437  0.339720  1
  O  O28  1  0.250197  0.180658  0.339867  1
  O  O29  1  0.250231  0.820221  0.282515  1
  O  O30  1  0.749799  0.318694  0.282164  1
  O  O31  1  0.749746  0.318796  0.339728  1
  O  O32  1  0.250095  0.820202  0.339877  1
  O  O33  1  0.083622  0.000000  0.446580  1
  O  O34  1  0.584860  0.500259  0.447029  1
  O  O35  1  0.915218  0.173612  0.446965  1
  O  O36  1  0.416669  0.671300  0.446672  1
  O  O37  1  0.262684  0.000000  0.419439  1
  O  O38  1  0.237659  0.500452  0.419430  1
  O  O39  1  0.750352  0.680437  0.498848  1
  O  O40  1  0.250197  0.180658  0.498995  1
  O  O41  1  0.250231  0.820221  0.441643  1
  O  O42  1  0.749799  0.318694  0.441292  1
  O  O43  1  0.749746  0.318796  0.498856  1
  O  O44  1  0.250095  0.820202  0.499005  1
  Si  Si45  1  0.215979  0.000000  0.227396  1
  Si  Si46  1  0.715253  0.499801  0.227486  1
  Si  Si47  1  0.785167  0.794084  0.227448  1
  Si  Si48  1  0.284411  0.293577  0.227386  1
  Si  Si49  1  0.996305  0.000000  0.260252  1
  Si  Si50  1  0.503967  0.500511  0.260329  1
  Si  Si51  1  0.215979  0.000000  0.386524  1
  Si  Si52  1  0.715253  0.499801  0.386614  1
  Si  Si53  1  0.785167  0.794084  0.386575  1
  Si  Si54  1  0.284411  0.293577  0.386514  1
  Si  Si55  1  0.215919  0.000000  0.293228  1
  Si  Si56  1  0.715355  0.499701  0.292882  1
  Si  Si57  1  0.784683  0.205184  0.292881  1
  Si  Si58  1  0.284375  0.707349  0.293243  1
  Si  Si59  1  0.996305  0.000000  0.419380  1
  Si  Si60  1  0.503967  0.500511  0.419457  1
  Si  Si61  1  0.215919  0.000000  0.452356  1
  Si  Si62  1  0.715355  0.499701  0.452010  1
  Si  Si63  1  0.784683  0.205184  0.452009  1
  Si  Si64  1  0.284375  0.707349  0.452371  1
  H  H65  1  0.750352  0.680437  0.160201  1
  H  H66  1  0.250197  0.180658  0.160348  1
  H  H67  1  0.749746  0.318796  0.160209  1
  H  H68  1  0.250095  0.820202  0.160359  1
  H  H69  1  0.750352  0.680437  0.519239  1
  H  H70  1  0.250197  0.180658  0.519386  1
  H  H71  1  0.749746  0.318796  0.519246  1
  H  H72  1  0.250095  0.820202  0.519396  1
