# generated using pymatgen
data_Si32H2O65
_symmetry_space_group_name_H-M   'P 1'
_cell_length_a   15.08014935
_cell_length_b   13.75080220
_cell_length_c   85.38848976
_cell_angle_alpha   90.00000000
_cell_angle_beta   90.00000000
_cell_angle_gamma   90.00000000
_symmetry_Int_Tables_number   1
_chemical_formula_structural   Si32H2O65
_chemical_formula_sum   'Si256 H16 O520'
_cell_volume   17706.5116725
_cell_formula_units_Z   8
loop_
 _symmetry_equiv_pos_site_id
 _symmetry_equiv_pos_as_xyz
  1  'x, y, z'
loop_
 _atom_site_type_symbol
 _atom_site_label
 _atom_site_symmetry_multiplicity
 _atom_site_fract_x
 _atom_site_fract_y
 _atom_site_fract_z
 _atom_site_occupancy
  O  O1  1  0.083995  0.754606  0.093224  1
  O  O2  1  0.411814  0.254907  0.095060  1
  O  O3  1  0.416559  0.745427  0.093039  1
  O  O4  1  0.081257  0.245343  0.092756  1
  O  O5  1  0.144393  0.842889  0.069553  1
  O  O6  1  0.359037  0.341717  0.070609  1
  O  O7  1  0.355924  0.658022  0.069324  1
  O  O8  1  0.143520  0.158055  0.069096  1
  O  O9  1  0.250030  0.749492  0.087855  1
  O  O10  1  0.248049  0.249345  0.087947  1
  O  O11  1  0.177561  0.906347  0.096661  1
  O  O12  1  0.317973  0.406704  0.097319  1
  O  O13  1  0.324424  0.592659  0.096286  1
  O  O14  1  0.173081  0.092155  0.095996  1
  O  O15  1  0.253009  0.005376  0.118225  1
  O  O16  1  0.252928  0.508600  0.119700  1
  O  O17  1  0.419352  -0.000000  0.122657  1
  O  O18  1  0.419228  0.499408  0.115205  1
  O  O19  1  0.085180  0.499080  0.122075  1
  O  O20  1  0.085108  0.000000  0.115842  1
  O  O21  1  0.499754  0.599396  0.135467  1
  O  O22  1  0.319149  0.902222  0.140257  1
  O  O23  1  0.005212  0.749608  0.119082  1
  O  O24  1  0.005498  0.249672  0.118883  1
  O  O25  1  0.495431  0.749784  0.118872  1
  O  O26  1  0.581114  0.255527  0.092612  1
  O  O27  1  0.914441  0.755015  0.094312  1
  O  O28  1  0.911595  0.245161  0.094516  1
  O  O29  1  0.586275  0.744577  0.094100  1
  O  O30  1  0.646206  0.347588  0.069701  1
  O  O31  1  0.857623  0.844104  0.070373  1
  O  O32  1  0.861480  0.160594  0.069663  1
  O  O33  1  0.638295  0.661213  0.069176  1
  O  O34  1  0.747313  0.244836  0.087480  1
  O  O35  1  0.750755  0.744569  0.087487  1
  O  O36  1  0.678851  0.402446  0.097284  1
  O  O37  1  0.817581  0.903336  0.097415  1
  O  O38  1  0.823132  0.089309  0.096031  1
  O  O39  1  0.673843  0.588121  0.095450  1
  O  O40  1  0.753080  0.506170  0.118326  1
  O  O41  1  0.753017  0.005359  0.119682  1
  O  O42  1  0.919233  0.500411  0.122910  1
  O  O43  1  0.919129  0.998704  0.115068  1
  O  O44  1  0.585270  0.998847  0.122133  1
  O  O45  1  0.585264  0.500298  0.115788  1
  O  O46  1  0.998644  0.400744  0.102440  1
  O  O47  1  0.000000  0.599348  0.102507  1
  O  O48  1  0.000000  0.099159  0.135413  1
  O  O49  1  0.000000  0.900587  0.135538  1
  O  O50  1  0.508776  0.249575  0.119064  1
  O  O51  1  0.500265  0.900472  0.102320  1
  O  O52  1  0.500228  0.400681  0.135530  1
  O  O53  1  0.500447  0.099279  0.102454  1
  O  O54  1  0.081207  0.255229  0.145011  1
  O  O55  1  0.083114  0.254446  0.222153  1
  O  O56  1  0.416674  0.754835  0.144732  1
  O  O57  1  0.419144  0.755614  0.221448  1
  O  O58  1  0.414974  0.246142  0.222412  1
  O  O59  1  0.411381  0.245259  0.143016  1
  O  O60  1  0.088117  0.745326  0.223846  1
  O  O61  1  0.084517  0.745766  0.144869  1
  O  O62  1  0.146077  0.346535  0.168004  1
  O  O63  1  0.142759  0.340997  0.198270  1
  O  O64  1  0.353167  0.846309  0.167762  1
  O  O65  1  0.354574  0.843852  0.198056  1
  O  O66  1  0.356610  0.159232  0.198459  1
  O  O67  1  0.362298  0.161765  0.168039  1
  O  O68  1  0.141272  0.657369  0.199547  1
  O  O69  1  0.141913  0.660783  0.169125  1
  O  O70  1  0.247227  0.244168  0.150182  1
  O  O71  1  0.249263  0.250066  0.216778  1
  O  O72  1  0.250782  0.744282  0.150093  1
  O  O73  1  0.252229  0.749652  0.216896  1
  O  O74  1  0.175138  0.407412  0.225112  1
  O  O75  1  0.325778  0.907167  0.225183  1
  O  O76  1  0.322791  0.093099  0.225339  1
  O  O77  1  0.323798  0.088369  0.141871  1
  O  O78  1  0.171269  0.588299  0.142574  1
  O  O79  1  0.118123  0.501411  0.183833  1
  O  O80  1  0.381361  0.002512  0.183110  1
  O  O81  1  0.001548  0.372714  0.182774  1
  O  O82  1  0.496994  0.872763  0.182863  1
  O  O83  1  0.181476  0.593177  0.226328  1
  O  O84  1  0.179428  0.402530  0.140539  1
  O  O85  1  0.586220  0.754951  0.143657  1
  O  O86  1  0.588628  0.754347  0.223677  1
  O  O87  1  0.911657  0.254410  0.143272  1
  O  O88  1  0.913434  0.255345  0.222850  1
  O  O89  1  0.918674  0.744648  0.221686  1
  O  O90  1  0.914869  0.744863  0.143911  1
  O  O91  1  0.584539  0.244614  0.222929  1
  O  O92  1  0.580717  0.244811  0.145561  1
  O  O93  1  0.640386  0.840937  0.168167  1
  O  O94  1  0.636672  0.837833  0.198599  1
  O  O95  1  0.858881  0.341641  0.167678  1
  O  O96  1  0.860496  0.339882  0.198109  1
  O  O97  1  0.854160  0.653564  0.198631  1
  O  O98  1  0.859497  0.659319  0.168347  1
  O  O99  1  0.643631  0.154155  0.199278  1
  O  O100  1  0.644333  0.156218  0.168994  1
  O  O101  1  0.750373  0.750477  0.150345  1
  O  O102  1  0.752671  0.755914  0.216370  1
  O  O103  1  0.747548  0.250309  0.150261  1
  O  O104  1  0.748712  0.255656  0.216461  1
  O  O105  1  0.678389  0.907702  0.141489  1
  O  O106  1  0.675734  0.911214  0.224775  1
  O  O107  1  0.818969  0.406676  0.140896  1
  O  O108  1  0.825932  0.411835  0.224496  1
  O  O109  1  0.820467  0.597737  0.226139  1
  O  O110  1  0.822363  0.592609  0.141691  1
  O  O111  1  0.501154  0.127201  0.183979  1
  O  O112  1  0.673644  0.093303  0.141828  1
  O  O113  1  0.616917  0.997485  0.183781  1
  O  O114  1  0.882780  0.498682  0.182978  1
  O  O115  1  0.000000  0.627396  0.184116  1
  O  O116  1  0.088028  0.755223  0.272191  1
  O  O117  1  0.415186  0.254235  0.273633  1
  O  O118  1  0.418708  0.744472  0.274079  1
  O  O119  1  0.083559  0.246250  0.273423  1
  O  O120  1  0.139066  0.839910  0.296994  1
  O  O121  1  0.358667  0.338417  0.298044  1
  O  O122  1  0.352873  0.652518  0.296924  1
  O  O123  1  0.144913  0.155506  0.296706  1
  O  O124  1  0.252440  0.755464  0.279056  1
  O  O125  1  0.249160  0.255398  0.279081  1
  O  O126  1  0.176707  0.911315  0.270631  1
  O  O127  1  0.328208  0.411542  0.271558  1
  O  O128  1  0.320569  0.597353  0.269361  1
  O  O129  1  0.180052  0.097619  0.269380  1
  O  O130  1  0.250098  0.490541  0.248255  1
  O  O131  1  0.246132  0.996996  0.247082  1
  O  O132  1  0.417377  0.500046  0.251371  1
  O  O133  1  0.414212  0.001203  0.244840  1
  O  O134  1  0.079976  0.001103  0.251691  1
  O  O135  1  0.083193  0.499677  0.244556  1
  O  O136  1  0.118112  0.998984  0.312035  1
  O  O137  1  0.001314  0.127372  0.311787  1
  O  O138  1  0.492644  0.750423  0.247798  1
  O  O139  1  0.496345  0.250439  0.248003  1
  O  O140  1  0.497445  0.627405  0.311726  1
  O  O141  1  -0.000000  0.599453  0.264491  1
  O  O142  1  0.002391  0.250426  0.247812  1
  O  O143  1  0.499980  0.900846  0.264357  1
  O  O144  1  0.584881  0.255129  0.273020  1
  O  O145  1  0.918556  0.755012  0.274300  1
  O  O146  1  0.914016  0.244222  0.272875  1
  O  O147  1  0.588159  0.745621  0.272001  1
  O  O148  1  0.640788  0.341608  0.297314  1
  O  O149  1  0.856462  0.842344  0.297955  1
  O  O150  1  0.857517  0.156968  0.297094  1
  O  O151  1  0.639862  0.659641  0.296608  1
  O  O152  1  0.749734  0.250574  0.279276  1
  O  O153  1  0.751922  0.750209  0.279216  1
  O  O154  1  0.676774  0.407727  0.270599  1
  O  O155  1  0.826204  0.907378  0.270953  1
  O  O156  1  0.820212  0.092937  0.270196  1
  O  O157  1  0.681047  0.593383  0.269957  1
  O  O158  1  0.746407  0.992963  0.248569  1
  O  O159  1  0.750174  0.494140  0.247672  1
  O  O160  1  0.914075  0.000000  0.251077  1
  O  O161  1  0.917287  0.501147  0.244317  1
  O  O162  1  0.583330  0.500725  0.251438  1
  O  O163  1  0.580213  -0.000000  0.243996  1
  O  O164  1  0.500229  0.099480  0.264490  1
  O  O165  1  0.000000  0.900784  0.231431  1
  O  O166  1  0.682005  0.097088  0.226520  1
  O  O167  1  0.998987  0.099529  0.231307  1
  O  O168  1  0.616863  0.502328  0.311898  1
  O  O169  1  0.992542  0.750390  0.248005  1
  O  O170  1  0.500551  0.400752  0.231426  1
  O  O171  1  0.998497  0.400729  0.264413  1
  O  O172  1  0.500079  0.599360  0.231338  1
  O  O173  1  0.083995  0.754606  0.351098  1
  O  O174  1  0.411814  0.254907  0.352934  1
  O  O175  1  0.416559  0.745427  0.350913  1
  O  O176  1  0.081257  0.245343  0.350630  1
  O  O177  1  0.144393  0.842889  0.327427  1
  O  O178  1  0.359037  0.341717  0.328483  1
  O  O179  1  0.355924  0.658022  0.327199  1
  O  O180  1  0.143520  0.158055  0.326970  1
  O  O181  1  0.250030  0.749492  0.345729  1
  O  O182  1  0.248049  0.249345  0.345821  1
  O  O183  1  0.177561  0.906347  0.354535  1
  O  O184  1  0.317973  0.406704  0.355193  1
  O  O185  1  0.324424  0.592659  0.354160  1
  O  O186  1  0.173081  0.092155  0.353870  1
  O  O187  1  0.253009  0.005376  0.376099  1
  O  O188  1  0.252928  0.508600  0.377574  1
  O  O189  1  0.419352  0.000000  0.380531  1
  O  O190  1  0.419228  0.499408  0.373080  1
  O  O191  1  0.085180  0.499080  0.379950  1
  O  O192  1  0.085108  0.000000  0.373717  1
  O  O193  1  0.499754  0.599396  0.393341  1
  O  O194  1  0.319149  0.902222  0.398132  1
  O  O195  1  0.381470  0.497867  0.312773  1
  O  O196  1  0.005212  0.749608  0.376957  1
  O  O197  1  0.005498  0.249672  0.376757  1
  O  O198  1  0.495431  0.749784  0.376746  1
  O  O199  1  0.581114  0.255527  0.350486  1
  O  O200  1  0.914441  0.755015  0.352186  1
  O  O201  1  0.911595  0.245161  0.352390  1
  O  O202  1  0.586275  0.744577  0.351974  1
  O  O203  1  0.646206  0.347588  0.327576  1
  O  O204  1  0.857623  0.844104  0.328248  1
  O  O205  1  0.861480  0.160594  0.327537  1
  O  O206  1  0.638295  0.661213  0.327050  1
  O  O207  1  0.747313  0.244836  0.345354  1
  O  O208  1  0.750755  0.744569  0.345361  1
  O  O209  1  0.678851  0.402446  0.355158  1
  O  O210  1  0.817581  0.903336  0.355289  1
  O  O211  1  0.823132  0.089309  0.353905  1
  O  O212  1  0.673843  0.588121  0.353325  1
  O  O213  1  0.753080  0.506170  0.376200  1
  O  O214  1  0.753017  0.005359  0.377556  1
  O  O215  1  0.919233  0.500411  0.380784  1
  O  O216  1  0.919129  0.998704  0.372942  1
  O  O217  1  0.585270  0.998847  0.380007  1
  O  O218  1  0.585264  0.500298  0.373662  1
  O  O219  1  0.998644  0.400744  0.360314  1
  O  O220  1  0.500783  0.372821  0.313080  1
  O  O221  1  -0.000000  0.599348  0.360381  1
  O  O222  1  -0.000000  0.099159  0.393287  1
  O  O223  1  0.882799  0.001057  0.312774  1
  O  O224  1  -0.000000  0.872629  0.312878  1
  O  O225  1  -0.000000  0.900587  0.393412  1
  O  O226  1  0.508776  0.249575  0.376939  1
  O  O227  1  0.500265  0.900472  0.360194  1
  O  O228  1  0.500228  0.400681  0.393404  1
  O  O229  1  0.500447  0.099279  0.360328  1
  O  O230  1  0.081207  0.255229  0.402885  1
  O  O231  1  0.083114  0.254446  0.480027  1
  O  O232  1  0.416674  0.754835  0.402606  1
  O  O233  1  0.419144  0.755614  0.479322  1
  O  O234  1  0.414974  0.246142  0.480286  1
  O  O235  1  0.411381  0.245259  0.400890  1
  O  O236  1  0.088117  0.745326  0.481721  1
  O  O237  1  0.084517  0.745766  0.402743  1
  O  O238  1  0.146077  0.346535  0.425879  1
  O  O239  1  0.142759  0.340997  0.456144  1
  O  O240  1  0.353167  0.846309  0.425636  1
  O  O241  1  0.354574  0.843852  0.455930  1
  O  O242  1  0.356610  0.159232  0.456334  1
  O  O243  1  0.362298  0.161765  0.425913  1
  O  O244  1  0.141272  0.657369  0.457421  1
  O  O245  1  0.141913  0.660783  0.426999  1
  O  O246  1  0.247227  0.244168  0.408056  1
  O  O247  1  0.249263  0.250066  0.474652  1
  O  O248  1  0.250782  0.744282  0.407968  1
  O  O249  1  0.252229  0.749652  0.474770  1
  O  O250  1  0.175138  0.407412  0.482986  1
  O  O251  1  0.325778  0.907167  0.483057  1
  O  O252  1  0.322791  0.093099  0.483213  1
  O  O253  1  0.323798  0.088369  0.399745  1
  O  O254  1  0.171269  0.588299  0.400448  1
  O  O255  1  0.118123  0.501411  0.441708  1
  O  O256  1  0.381361  0.002512  0.440984  1
  O  O257  1  0.001548  0.372714  0.440649  1
  O  O258  1  0.496994  0.872763  0.440737  1
  O  O259  1  0.181476  0.593177  0.484203  1
  O  O260  1  0.179428  0.402530  0.398413  1
  O  O261  1  0.586220  0.754951  0.401531  1
  O  O262  1  0.588628  0.754347  0.481551  1
  O  O263  1  0.911657  0.254410  0.401146  1
  O  O264  1  0.913434  0.255345  0.480724  1
  O  O265  1  0.918674  0.744648  0.479560  1
  O  O266  1  0.914869  0.744863  0.401785  1
  O  O267  1  0.584539  0.244614  0.480803  1
  O  O268  1  0.580717  0.244811  0.403435  1
  O  O269  1  0.640386  0.840937  0.426041  1
  O  O270  1  0.636672  0.837833  0.456473  1
  O  O271  1  0.858881  0.341641  0.425552  1
  O  O272  1  0.860496  0.339882  0.455984  1
  O  O273  1  0.854160  0.653564  0.456505  1
  O  O274  1  0.859497  0.659319  0.426221  1
  O  O275  1  0.643631  0.154155  0.457153  1
  O  O276  1  0.644333  0.156218  0.426869  1
  O  O277  1  0.750373  0.750477  0.408219  1
  O  O278  1  0.752671  0.755914  0.474244  1
  O  O279  1  0.747548  0.250309  0.408135  1
  O  O280  1  0.748712  0.255656  0.474335  1
  O  O281  1  0.678389  0.907702  0.399364  1
  O  O282  1  0.675734  0.911214  0.482649  1
  O  O283  1  0.818969  0.406676  0.398770  1
  O  O284  1  0.825932  0.411835  0.482370  1
  O  O285  1  0.820467  0.597737  0.484013  1
  O  O286  1  0.822363  0.592609  0.399566  1
  O  O287  1  0.501154  0.127201  0.441853  1
  O  O288  1  0.673644  0.093303  0.399702  1
  O  O289  1  0.616917  0.997485  0.441655  1
  O  O290  1  0.882780  0.498682  0.440852  1
  O  O291  1  0.000000  0.627396  0.441991  1
  O  O292  1  0.088028  0.755223  0.530065  1
  O  O293  1  0.415186  0.254235  0.531508  1
  O  O294  1  0.418708  0.744472  0.531953  1
  O  O295  1  0.083559  0.246250  0.531297  1
  O  O296  1  0.139066  0.839910  0.554869  1
  O  O297  1  0.358667  0.338417  0.555918  1
  O  O298  1  0.352873  0.652518  0.554798  1
  O  O299  1  0.144913  0.155506  0.554580  1
  O  O300  1  0.252440  0.755464  0.536930  1
  O  O301  1  0.249160  0.255398  0.536956  1
  O  O302  1  0.176707  0.911315  0.528505  1
  O  O303  1  0.328208  0.411542  0.529432  1
  O  O304  1  0.320569  0.597353  0.527235  1
  O  O305  1  0.180052  0.097619  0.527254  1
  O  O306  1  0.250098  0.490541  0.506130  1
  O  O307  1  0.246132  0.996996  0.504957  1
  O  O308  1  0.417377  0.500046  0.509245  1
  O  O309  1  0.414212  0.001203  0.502714  1
  O  O310  1  0.079976  0.001103  0.509566  1
  O  O311  1  0.083193  0.499677  0.502430  1
  O  O312  1  0.118112  0.998984  0.569909  1
  O  O313  1  0.001314  0.127372  0.569661  1
  O  O314  1  0.492644  0.750423  0.505672  1
  O  O315  1  0.496345  0.250439  0.505877  1
  O  O316  1  0.497445  0.627405  0.569601  1
  O  O317  1  -0.000000  0.599453  0.522366  1
  O  O318  1  0.002391  0.250426  0.505686  1
  O  O319  1  0.499980  0.900846  0.522231  1
  O  O320  1  0.584881  0.255129  0.530894  1
  O  O321  1  0.918556  0.755012  0.532174  1
  O  O322  1  0.914016  0.244222  0.530750  1
  O  O323  1  0.588159  0.745621  0.529875  1
  O  O324  1  0.640788  0.341608  0.555188  1
  O  O325  1  0.856462  0.842344  0.555830  1
  O  O326  1  0.857517  0.156968  0.554968  1
  O  O327  1  0.639862  0.659641  0.554482  1
  O  O328  1  0.749734  0.250574  0.537150  1
  O  O329  1  0.751922  0.750209  0.537091  1
  O  O330  1  0.676774  0.407727  0.528474  1
  O  O331  1  0.826204  0.907378  0.528827  1
  O  O332  1  0.820212  0.092937  0.528070  1
  O  O333  1  0.681047  0.593383  0.527831  1
  O  O334  1  0.746407  0.992963  0.506443  1
  O  O335  1  0.750174  0.494140  0.505547  1
  O  O336  1  0.914075  0.000000  0.508951  1
  O  O337  1  0.917287  0.501147  0.502191  1
  O  O338  1  0.583330  0.500725  0.509312  1
  O  O339  1  0.580213  -0.000000  0.501871  1
  O  O340  1  0.500229  0.099480  0.522364  1
  O  O341  1  -0.000000  0.900784  0.489306  1
  O  O342  1  0.682005  0.097088  0.484394  1
  O  O343  1  0.998987  0.099529  0.489181  1
  O  O344  1  0.616863  0.502328  0.569773  1
  O  O345  1  0.992542  0.750390  0.505879  1
  O  O346  1  0.500551  0.400752  0.489300  1
  O  O347  1  0.998497  0.400729  0.522287  1
  O  O348  1  0.500079  0.599360  0.489212  1
  O  O349  1  0.083995  0.754606  0.608972  1
  O  O350  1  0.411814  0.254907  0.610808  1
  O  O351  1  0.416559  0.745427  0.608787  1
  O  O352  1  0.081257  0.245343  0.608504  1
  O  O353  1  0.144393  0.842889  0.585301  1
  O  O354  1  0.359037  0.341717  0.586358  1
  O  O355  1  0.355924  0.658022  0.585073  1
  O  O356  1  0.143520  0.158055  0.584844  1
  O  O357  1  0.250030  0.749492  0.603604  1
  O  O358  1  0.248049  0.249345  0.603695  1
  O  O359  1  0.177561  0.906347  0.612409  1
  O  O360  1  0.317973  0.406704  0.613068  1
  O  O361  1  0.324424  0.592659  0.612035  1
  O  O362  1  0.173081  0.092155  0.611744  1
  O  O363  1  0.253009  0.005376  0.633974  1
  O  O364  1  0.252928  0.508600  0.635448  1
  O  O365  1  0.419352  -0.000000  0.638405  1
  O  O366  1  0.419228  0.499408  0.630954  1
  O  O367  1  0.085180  0.499080  0.637824  1
  O  O368  1  0.085108  -0.000000  0.631591  1
  O  O369  1  0.499754  0.599396  0.651215  1
  O  O370  1  0.319149  0.902222  0.656006  1
  O  O371  1  0.381470  0.497867  0.570648  1
  O  O372  1  0.005212  0.749608  0.634831  1
  O  O373  1  0.005498  0.249672  0.634632  1
  O  O374  1  0.495431  0.749784  0.634620  1
  O  O375  1  0.581114  0.255527  0.608360  1
  O  O376  1  0.914441  0.755015  0.610060  1
  O  O377  1  0.911595  0.245161  0.610265  1
  O  O378  1  0.586275  0.744577  0.609849  1
  O  O379  1  0.646206  0.347588  0.585450  1
  O  O380  1  0.857623  0.844104  0.586122  1
  O  O381  1  0.861480  0.160594  0.585411  1
  O  O382  1  0.638295  0.661213  0.584924  1
  O  O383  1  0.747313  0.244836  0.603228  1
  O  O384  1  0.750755  0.744569  0.603235  1
  O  O385  1  0.678851  0.402446  0.613032  1
  O  O386  1  0.817581  0.903336  0.613164  1
  O  O387  1  0.823132  0.089309  0.611779  1
  O  O388  1  0.673843  0.588121  0.611199  1
  O  O389  1  0.753080  0.506170  0.634074  1
  O  O390  1  0.753017  0.005359  0.635431  1
  O  O391  1  0.919233  0.500411  0.638659  1
  O  O392  1  0.919129  0.998704  0.630817  1
  O  O393  1  0.585270  0.998847  0.637881  1
  O  O394  1  0.585264  0.500298  0.631536  1
  O  O395  1  0.998644  0.400744  0.618189  1
  O  O396  1  0.500783  0.372821  0.570954  1
  O  O397  1  -0.000000  0.599348  0.618255  1
  O  O398  1  0.000000  0.099159  0.651162  1
  O  O399  1  0.882799  0.001057  0.570648  1
  O  O400  1  -0.000000  0.872629  0.570752  1
  O  O401  1  -0.000000  0.900587  0.651286  1
  O  O402  1  0.508776  0.249575  0.634813  1
  O  O403  1  0.500265  0.900472  0.618069  1
  O  O404  1  0.500228  0.400681  0.651278  1
  O  O405  1  0.500447  0.099279  0.618202  1
  O  O406  1  0.081207  0.255229  0.660760  1
  O  O407  1  0.083114  0.254446  0.737901  1
  O  O408  1  0.416674  0.754835  0.660480  1
  O  O409  1  0.419144  0.755614  0.737196  1
  O  O410  1  0.414974  0.246142  0.738160  1
  O  O411  1  0.411381  0.245259  0.658765  1
  O  O412  1  0.088117  0.745326  0.739595  1
  O  O413  1  0.084517  0.745766  0.660618  1
  O  O414  1  0.146077  0.346535  0.683753  1
  O  O415  1  0.142759  0.340997  0.714018  1
  O  O416  1  0.353167  0.846309  0.683510  1
  O  O417  1  0.354574  0.843852  0.713804  1
  O  O418  1  0.356610  0.159232  0.714208  1
  O  O419  1  0.362298  0.161765  0.683788  1
  O  O420  1  0.141272  0.657369  0.715295  1
  O  O421  1  0.141913  0.660783  0.684873  1
  O  O422  1  0.247227  0.244168  0.665930  1
  O  O423  1  0.249263  0.250066  0.732527  1
  O  O424  1  0.250782  0.744282  0.665842  1
  O  O425  1  0.252229  0.749652  0.732644  1
  O  O426  1  0.175138  0.407412  0.740860  1
  O  O427  1  0.325778  0.907167  0.740931  1
  O  O428  1  0.322791  0.093099  0.741087  1
  O  O429  1  0.323798  0.088369  0.657619  1
  O  O430  1  0.171269  0.588299  0.658323  1
  O  O431  1  0.118123  0.501411  0.699582  1
  O  O432  1  0.381361  0.002512  0.698859  1
  O  O433  1  0.001548  0.372714  0.698523  1
  O  O434  1  0.496994  0.872763  0.698611  1
  O  O435  1  0.181476  0.593177  0.742077  1
  O  O436  1  0.179428  0.402530  0.656288  1
  O  O437  1  0.586220  0.754951  0.659406  1
  O  O438  1  0.588628  0.754347  0.739425  1
  O  O439  1  0.911657  0.254410  0.659021  1
  O  O440  1  0.913434  0.255345  0.738599  1
  O  O441  1  0.918674  0.744648  0.737434  1
  O  O442  1  0.914869  0.744863  0.659659  1
  O  O443  1  0.584539  0.244614  0.738677  1
  O  O444  1  0.580717  0.244811  0.661309  1
  O  O445  1  0.640386  0.840937  0.683915  1
  O  O446  1  0.636672  0.837833  0.714347  1
  O  O447  1  0.858881  0.341641  0.683426  1
  O  O448  1  0.860496  0.339882  0.713858  1
  O  O449  1  0.854160  0.653564  0.714379  1
  O  O450  1  0.859497  0.659319  0.684095  1
  O  O451  1  0.643631  0.154155  0.715027  1
  O  O452  1  0.644333  0.156218  0.684743  1
  O  O453  1  0.750373  0.750477  0.666093  1
  O  O454  1  0.752671  0.755914  0.732118  1
  O  O455  1  0.747548  0.250309  0.666009  1
  O  O456  1  0.748712  0.255656  0.732209  1
  O  O457  1  0.678389  0.907702  0.657238  1
  O  O458  1  0.675734  0.911214  0.740524  1
  O  O459  1  0.818969  0.406676  0.656644  1
  O  O460  1  0.825932  0.411835  0.740245  1
  O  O461  1  0.820467  0.597737  0.741887  1
  O  O462  1  0.822363  0.592609  0.657440  1
  O  O463  1  0.501154  0.127201  0.699727  1
  O  O464  1  0.673644  0.093303  0.657576  1
  O  O465  1  0.616917  0.997485  0.699529  1
  O  O466  1  0.882780  0.498682  0.698726  1
  O  O467  1  -0.000000  0.627396  0.699865  1
  O  O468  1  0.088028  0.755223  0.787940  1
  O  O469  1  0.415186  0.254235  0.789382  1
  O  O470  1  0.418708  0.744472  0.789827  1
  O  O471  1  0.083559  0.246250  0.789171  1
  O  O472  1  0.139066  0.839910  0.812743  1
  O  O473  1  0.358667  0.338417  0.813792  1
  O  O474  1  0.352873  0.652518  0.812673  1
  O  O475  1  0.144913  0.155506  0.812454  1
  O  O476  1  0.252440  0.755464  0.794805  1
  O  O477  1  0.249160  0.255398  0.794830  1
  O  O478  1  0.176707  0.911315  0.786379  1
  O  O479  1  0.328208  0.411542  0.787306  1
  O  O480  1  0.320569  0.597353  0.785109  1
  O  O481  1  0.180052  0.097619  0.785129  1
  O  O482  1  0.250098  0.490541  0.764004  1
  O  O483  1  0.246132  0.996996  0.762831  1
  O  O484  1  0.417377  0.500046  0.767119  1
  O  O485  1  0.414212  0.001203  0.760589  1
  O  O486  1  0.079976  0.001103  0.767440  1
  O  O487  1  0.083193  0.499677  0.760304  1
  O  O488  1  0.492644  0.750423  0.763546  1
  O  O489  1  0.496345  0.250439  0.763751  1
  O  O490  1  -0.000000  0.599453  0.780240  1
  O  O491  1  0.002391  0.250426  0.763560  1
  O  O492  1  0.499980  0.900846  0.780105  1
  O  O493  1  0.584881  0.255129  0.788768  1
  O  O494  1  0.918556  0.755012  0.790048  1
  O  O495  1  0.914016  0.244222  0.788624  1
  O  O496  1  0.588159  0.745621  0.787750  1
  O  O497  1  0.640788  0.341608  0.813063  1
  O  O498  1  0.856462  0.842344  0.813704  1
  O  O499  1  0.857517  0.156968  0.812843  1
  O  O500  1  0.639862  0.659641  0.812356  1
  O  O501  1  0.749734  0.250574  0.795024  1
  O  O502  1  0.751922  0.750209  0.794965  1
  O  O503  1  0.676774  0.407727  0.786348  1
  O  O504  1  0.826204  0.907378  0.786702  1
  O  O505  1  0.820212  0.092937  0.785944  1
  O  O506  1  0.681047  0.593383  0.785706  1
  O  O507  1  0.746407  0.992963  0.764318  1
  O  O508  1  0.750174  0.494140  0.763421  1
  O  O509  1  0.914075  -0.000000  0.766825  1
  O  O510  1  0.917287  0.501147  0.760065  1
  O  O511  1  0.583330  0.500725  0.767186  1
  O  O512  1  0.580213  -0.000000  0.759745  1
  O  O513  1  0.500229  0.099480  0.780238  1
  O  O514  1  -0.000000  0.900784  0.747180  1
  O  O515  1  0.682005  0.097088  0.742268  1
  O  O516  1  0.998987  0.099529  0.747055  1
  O  O517  1  0.992542  0.750390  0.763754  1
  O  O518  1  0.500551  0.400752  0.747175  1
  O  O519  1  0.998497  0.400729  0.780161  1
  O  O520  1  0.500079  0.599360  0.747087  1
  Si  Si521  1  0.000000  0.499920  0.111681  1
  Si  Si522  1  0.000000  0.714207  0.101823  1
  Si  Si523  1  0.164769  0.812478  0.086752  1
  Si  Si524  1  0.333521  0.312297  0.087611  1
  Si  Si525  1  0.335814  0.687496  0.086578  1
  Si  Si526  1  0.162379  0.187451  0.086403  1
  Si  Si527  1  0.327349  0.998641  0.130789  1
  Si  Si528  1  0.327157  0.501785  0.107103  1
  Si  Si529  1  0.173690  0.499763  0.131260  1
  Si  Si530  1  0.173572  0.000000  0.106662  1
  Si  Si531  1  0.499973  0.785569  0.101627  1
  Si  Si532  1  0.000000  0.000000  0.126263  1
  Si  Si533  1  -0.000000  0.785732  0.136307  1
  Si  Si534  1  0.499830  0.714275  0.136129  1
  Si  Si535  1  0.000000  0.285882  0.101677  1
  Si  Si536  1  0.664383  0.311652  0.086702  1
  Si  Si537  1  0.834133  0.810870  0.087283  1
  Si  Si538  1  0.835167  0.186020  0.086815  1
  Si  Si539  1  0.663033  0.685744  0.086449  1
  Si  Si540  1  0.827016  0.501275  0.130983  1
  Si  Si541  1  0.826800  0.000000  0.107017  1
  Si  Si542  1  0.673825  0.001266  0.131296  1
  Si  Si543  1  0.674112  0.499191  0.106693  1
  Si  Si544  1  0.000000  0.214013  0.136118  1
  Si  Si545  1  0.501104  0.499929  0.126304  1
  Si  Si546  1  0.501303  0.000000  0.111574  1
  Si  Si547  1  0.500256  0.214189  0.101825  1
  Si  Si548  1  0.500015  0.285792  0.136258  1
  Si  Si549  1  0.398469  0.114569  0.183363  1
  Si  Si550  1  0.394747  0.889803  0.182932  1
  Si  Si551  1  0.102076  0.613654  0.184203  1
  Si  Si552  1  0.103880  0.388900  0.183209  1
  Si  Si553  1  0.164407  0.311160  0.150983  1
  Si  Si554  1  0.163529  0.312144  0.215525  1
  Si  Si555  1  0.333876  0.811030  0.150774  1
  Si  Si556  1  0.337042  0.812922  0.215340  1
  Si  Si557  1  0.335096  0.187940  0.215680  1
  Si  Si558  1  0.335444  0.185981  0.150867  1
  Si  Si559  1  0.166426  0.687269  0.216539  1
  Si  Si560  1  0.163073  0.685793  0.151704  1
  Si  Si561  1  0.599715  0.885422  0.183354  1
  Si  Si562  1  0.664502  0.812599  0.151038  1
  Si  Si563  1  0.664218  0.813722  0.215746  1
  Si  Si564  1  0.833546  0.312374  0.150655  1
  Si  Si565  1  0.836383  0.314589  0.215380  1
  Si  Si566  1  0.835518  0.688910  0.215647  1
  Si  Si567  1  0.835927  0.687910  0.151200  1
  Si  Si568  1  0.665699  0.188839  0.216187  1
  Si  Si569  1  0.662525  0.187282  0.151735  1
  Si  Si570  1  0.603397  0.110200  0.184054  1
  Si  Si571  1  0.897128  0.611224  0.183487  1
  Si  Si572  1  0.898910  0.386408  0.182884  1
  Si  Si573  1  -0.000000  0.714352  0.265214  1
  Si  Si574  1  0.499340  0.285897  0.230742  1
  Si  Si575  1  0.498784  0.000000  0.255219  1
  Si  Si576  1  0.499345  0.214336  0.265237  1
  Si  Si577  1  0.164699  0.814447  0.279813  1
  Si  Si578  1  0.336898  0.313864  0.280631  1
  Si  Si579  1  0.335196  0.688417  0.279905  1
  Si  Si580  1  0.165458  0.189590  0.279710  1
  Si  Si581  1  0.327556  0.499829  0.260175  1
  Si  Si582  1  0.325912  -0.000000  0.235596  1
  Si  Si583  1  0.172208  0.001873  0.259742  1
  Si  Si584  1  0.173921  0.497761  0.236043  1
  Si  Si585  1  0.103715  0.111523  0.311864  1
  Si  Si586  1  0.395205  0.610457  0.312142  1
  Si  Si587  1  0.102248  0.886701  0.312305  1
  Si  Si588  1  -0.000000  0.785896  0.230769  1
  Si  Si589  1  -0.000000  0.500223  0.255256  1
  Si  Si590  1  0.898752  0.113317  0.312296  1
  Si  Si591  1  0.600169  0.614507  0.311816  1
  Si  Si592  1  0.663897  0.312628  0.280168  1
  Si  Si593  1  0.837327  0.812614  0.280668  1
  Si  Si594  1  0.834714  0.187014  0.279984  1
  Si  Si595  1  0.665961  0.688100  0.279584  1
  Si  Si596  1  0.825419  0.998512  0.260214  1
  Si  Si597  1  0.827079  0.501320  0.235623  1
  Si  Si598  1  0.674185  0.499211  0.259929  1
  Si  Si599  1  0.672499  0.000000  0.235934  1
  Si  Si600  1  0.998214  -0.000000  0.240561  1
  Si  Si601  1  0.500442  0.500205  0.240589  1
  Si  Si602  1  -0.000000  0.214405  0.230581  1
  Si  Si603  1  -0.000000  0.285865  0.265079  1
  Si  Si604  1  0.500249  0.714243  0.230594  1
  Si  Si605  1  0.500105  0.785966  0.265034  1
  Si  Si606  1  0.398052  0.385723  0.313144  1
  Si  Si607  1  -0.000000  0.499920  0.369555  1
  Si  Si608  1  0.000000  0.714207  0.359698  1
  Si  Si609  1  0.164769  0.812478  0.344626  1
  Si  Si610  1  0.333521  0.312297  0.345485  1
  Si  Si611  1  0.335814  0.687496  0.344452  1
  Si  Si612  1  0.162379  0.187451  0.344277  1
  Si  Si613  1  0.327349  0.998641  0.388663  1
  Si  Si614  1  0.327157  0.501785  0.364977  1
  Si  Si615  1  0.173690  0.499763  0.389134  1
  Si  Si616  1  0.173572  0.000000  0.364537  1
  Si  Si617  1  0.499973  0.785569  0.359501  1
  Si  Si618  1  -0.000000  0.000000  0.384138  1
  Si  Si619  1  -0.000000  0.785732  0.394181  1
  Si  Si620  1  0.499830  0.714275  0.394004  1
  Si  Si621  1  0.602982  0.389707  0.312437  1
  Si  Si622  1  -0.000000  0.285882  0.359552  1
  Si  Si623  1  0.664383  0.311652  0.344577  1
  Si  Si624  1  0.834133  0.810870  0.345158  1
  Si  Si625  1  0.835167  0.186020  0.344689  1
  Si  Si626  1  0.663033  0.685744  0.344323  1
  Si  Si627  1  0.827016  0.501275  0.388857  1
  Si  Si628  1  0.826800  -0.000000  0.364892  1
  Si  Si629  1  0.673825  0.001266  0.389170  1
  Si  Si630  1  0.674112  0.499191  0.364567  1
  Si  Si631  1  -0.000000  0.214013  0.393992  1
  Si  Si632  1  0.897307  0.888520  0.313006  1
  Si  Si633  1  0.501104  0.499929  0.384178  1
  Si  Si634  1  0.501303  -0.000000  0.369448  1
  Si  Si635  1  0.500256  0.214189  0.359699  1
  Si  Si636  1  0.500015  0.285792  0.394132  1
  Si  Si637  1  0.398469  0.114569  0.441237  1
  Si  Si638  1  0.394747  0.889803  0.440806  1
  Si  Si639  1  0.102076  0.613654  0.442078  1
  Si  Si640  1  0.103880  0.388900  0.441083  1
  Si  Si641  1  0.164407  0.311160  0.408857  1
  Si  Si642  1  0.163529  0.312144  0.473400  1
  Si  Si643  1  0.333876  0.811030  0.408648  1
  Si  Si644  1  0.337042  0.812922  0.473214  1
  Si  Si645  1  0.335096  0.187940  0.473555  1
  Si  Si646  1  0.335444  0.185981  0.408741  1
  Si  Si647  1  0.166426  0.687269  0.474414  1
  Si  Si648  1  0.163073  0.685793  0.409579  1
  Si  Si649  1  0.599715  0.885422  0.441228  1
  Si  Si650  1  0.664502  0.812599  0.408912  1
  Si  Si651  1  0.664218  0.813722  0.473620  1
  Si  Si652  1  0.833546  0.312374  0.408529  1
  Si  Si653  1  0.836383  0.314589  0.473254  1
  Si  Si654  1  0.835518  0.688910  0.473522  1
  Si  Si655  1  0.835927  0.687910  0.409074  1
  Si  Si656  1  0.665699  0.188839  0.474062  1
  Si  Si657  1  0.662525  0.187282  0.409609  1
  Si  Si658  1  0.603397  0.110200  0.441928  1
  Si  Si659  1  0.897128  0.611224  0.441361  1
  Si  Si660  1  0.898910  0.386408  0.440759  1
  Si  Si661  1  0.000000  0.714352  0.523089  1
  Si  Si662  1  0.499340  0.285897  0.488617  1
  Si  Si663  1  0.498784  -0.000000  0.513093  1
  Si  Si664  1  0.499345  0.214336  0.523111  1
  Si  Si665  1  0.164699  0.814447  0.537688  1
  Si  Si666  1  0.336898  0.313864  0.538505  1
  Si  Si667  1  0.335196  0.688417  0.537779  1
  Si  Si668  1  0.165458  0.189590  0.537584  1
  Si  Si669  1  0.327556  0.499829  0.518049  1
  Si  Si670  1  0.325912  0.000000  0.493470  1
  Si  Si671  1  0.172208  0.001873  0.517616  1
  Si  Si672  1  0.173921  0.497761  0.493917  1
  Si  Si673  1  0.103715  0.111523  0.569739  1
  Si  Si674  1  0.395205  0.610457  0.570016  1
  Si  Si675  1  0.102248  0.886701  0.570179  1
  Si  Si676  1  -0.000000  0.785896  0.488643  1
  Si  Si677  1  -0.000000  0.500223  0.513130  1
  Si  Si678  1  0.898752  0.113317  0.570170  1
  Si  Si679  1  0.600169  0.614507  0.569690  1
  Si  Si680  1  0.663897  0.312628  0.538042  1
  Si  Si681  1  0.837327  0.812614  0.538542  1
  Si  Si682  1  0.834714  0.187014  0.537858  1
  Si  Si683  1  0.665961  0.688100  0.537458  1
  Si  Si684  1  0.825419  0.998512  0.518088  1
  Si  Si685  1  0.827079  0.501320  0.493498  1
  Si  Si686  1  0.674185  0.499211  0.517804  1
  Si  Si687  1  0.672499  0.000000  0.493809  1
  Si  Si688  1  0.998214  0.000000  0.498436  1
  Si  Si689  1  0.500442  0.500205  0.498464  1
  Si  Si690  1  -0.000000  0.214405  0.488455  1
  Si  Si691  1  0.000000  0.285865  0.522953  1
  Si  Si692  1  0.500249  0.714243  0.488469  1
  Si  Si693  1  0.500105  0.785966  0.522909  1
  Si  Si694  1  0.398052  0.385723  0.571018  1
  Si  Si695  1  -0.000000  0.499920  0.627429  1
  Si  Si696  1  0.000000  0.714207  0.617572  1
  Si  Si697  1  0.164769  0.812478  0.602501  1
  Si  Si698  1  0.333521  0.312297  0.603359  1
  Si  Si699  1  0.335814  0.687496  0.602326  1
  Si  Si700  1  0.162379  0.187451  0.602152  1
  Si  Si701  1  0.327349  0.998641  0.646537  1
  Si  Si702  1  0.327157  0.501785  0.622851  1
  Si  Si703  1  0.173690  0.499763  0.647008  1
  Si  Si704  1  0.173572  -0.000000  0.622411  1
  Si  Si705  1  0.499973  0.785569  0.617376  1
  Si  Si706  1  -0.000000  -0.000000  0.642012  1
  Si  Si707  1  -0.000000  0.785732  0.652055  1
  Si  Si708  1  0.499830  0.714275  0.651878  1
  Si  Si709  1  0.602982  0.389707  0.570312  1
  Si  Si710  1  -0.000000  0.285882  0.617426  1
  Si  Si711  1  0.664383  0.311652  0.602451  1
  Si  Si712  1  0.834133  0.810870  0.603032  1
  Si  Si713  1  0.835167  0.186020  0.602564  1
  Si  Si714  1  0.663033  0.685744  0.602198  1
  Si  Si715  1  0.827016  0.501275  0.646732  1
  Si  Si716  1  0.826800  -0.000000  0.622766  1
  Si  Si717  1  0.673825  0.001266  0.647044  1
  Si  Si718  1  0.674112  0.499191  0.622442  1
  Si  Si719  1  -0.000000  0.214013  0.651867  1
  Si  Si720  1  0.897307  0.888520  0.570881  1
  Si  Si721  1  0.501104  0.499929  0.642053  1
  Si  Si722  1  0.501303  0.000000  0.627322  1
  Si  Si723  1  0.500256  0.214189  0.617574  1
  Si  Si724  1  0.500015  0.285792  0.652006  1
  Si  Si725  1  0.398469  0.114569  0.699111  1
  Si  Si726  1  0.394747  0.889803  0.698680  1
  Si  Si727  1  0.102076  0.613654  0.699952  1
  Si  Si728  1  0.103880  0.388900  0.698958  1
  Si  Si729  1  0.164407  0.311160  0.666731  1
  Si  Si730  1  0.163529  0.312144  0.731274  1
  Si  Si731  1  0.333876  0.811030  0.666522  1
  Si  Si732  1  0.337042  0.812922  0.731088  1
  Si  Si733  1  0.335096  0.187940  0.731429  1
  Si  Si734  1  0.335444  0.185981  0.666615  1
  Si  Si735  1  0.166426  0.687269  0.732288  1
  Si  Si736  1  0.163073  0.685793  0.667453  1
  Si  Si737  1  0.599715  0.885422  0.699102  1
  Si  Si738  1  0.664502  0.812599  0.666786  1
  Si  Si739  1  0.664218  0.813722  0.731494  1
  Si  Si740  1  0.833546  0.312374  0.666403  1
  Si  Si741  1  0.836383  0.314589  0.731128  1
  Si  Si742  1  0.835518  0.688910  0.731396  1
  Si  Si743  1  0.835927  0.687910  0.666949  1
  Si  Si744  1  0.665699  0.188839  0.731936  1
  Si  Si745  1  0.662525  0.187282  0.667483  1
  Si  Si746  1  0.603397  0.110200  0.699803  1
  Si  Si747  1  0.897128  0.611224  0.699235  1
  Si  Si748  1  0.898910  0.386408  0.698633  1
  Si  Si749  1  0.000000  0.714352  0.780963  1
  Si  Si750  1  0.499340  0.285897  0.746491  1
  Si  Si751  1  0.498784  -0.000000  0.770968  1
  Si  Si752  1  0.499345  0.214336  0.780985  1
  Si  Si753  1  0.164699  0.814447  0.795562  1
  Si  Si754  1  0.336898  0.313864  0.796379  1
  Si  Si755  1  0.335196  0.688417  0.795653  1
  Si  Si756  1  0.165458  0.189590  0.795458  1
  Si  Si757  1  0.327556  0.499829  0.775923  1
  Si  Si758  1  0.325912  0.000000  0.751345  1
  Si  Si759  1  0.172208  0.001873  0.775490  1
  Si  Si760  1  0.173921  0.497761  0.751792  1
  Si  Si761  1  -0.000000  0.785896  0.746517  1
  Si  Si762  1  0.000000  0.500223  0.771004  1
  Si  Si763  1  0.663897  0.312628  0.795917  1
  Si  Si764  1  0.837327  0.812614  0.796416  1
  Si  Si765  1  0.834714  0.187014  0.795732  1
  Si  Si766  1  0.665961  0.688100  0.795332  1
  Si  Si767  1  0.825419  0.998512  0.775962  1
  Si  Si768  1  0.827079  0.501320  0.751372  1
  Si  Si769  1  0.674185  0.499211  0.775678  1
  Si  Si770  1  0.672499  0.000000  0.751683  1
  Si  Si771  1  0.998214  -0.000000  0.756310  1
  Si  Si772  1  0.500442  0.500205  0.756338  1
  Si  Si773  1  0.000000  0.214405  0.746329  1
  Si  Si774  1  -0.000000  0.285865  0.780828  1
  Si  Si775  1  0.500249  0.714243  0.746343  1
  Si  Si776  1  0.500105  0.785966  0.780783  1
  H  H777  1  0.144393  0.842889  0.059013  1
  H  H778  1  0.359037  0.341717  0.060069  1
  H  H779  1  0.355924  0.658022  0.058784  1
  H  H780  1  0.143520  0.158055  0.058556  1
  H  H781  1  0.646206  0.347588  0.059161  1
  H  H782  1  0.857623  0.844104  0.059833  1
  H  H783  1  0.861480  0.160594  0.059122  1
  H  H784  1  0.638295  0.661213  0.058636  1
  H  H785  1  0.139066  0.839910  0.823283  1
  H  H786  1  0.358667  0.338417  0.824332  1
  H  H787  1  0.352873  0.652518  0.823213  1
  H  H788  1  0.144913  0.155506  0.822994  1
  H  H789  1  0.640788  0.341608  0.823603  1
  H  H790  1  0.856462  0.842344  0.824244  1
  H  H791  1  0.857517  0.156968  0.823383  1
  H  H792  1  0.639862  0.659641  0.822896  1
