# generated using pymatgen
data_Si96H14O199
_symmetry_space_group_name_H-M   'P 1'
_cell_length_a   13.65576622
_cell_length_b   30.53718233
_cell_length_c   66.91744055
_cell_angle_alpha   116.55342932
_cell_angle_beta   90.00000000
_cell_angle_gamma   90.00000000
_symmetry_Int_Tables_number   1
_chemical_formula_structural   Si96H14O199
_chemical_formula_sum   'Si192 H28 O398'
_cell_volume   24961.6555286
_cell_formula_units_Z   2
loop_
 _symmetry_equiv_pos_site_id
 _symmetry_equiv_pos_as_xyz
  1  'x, y, z'
loop_
 _atom_site_type_symbol
 _atom_site_label
 _atom_site_symmetry_multiplicity
 _atom_site_fract_x
 _atom_site_fract_y
 _atom_site_fract_z
 _atom_site_occupancy
  O  O1  1  0.500702  0.934225  0.096979  1
  O  O2  1  0.729230  0.364857  0.287014  1
  O  O3  1  0.729230  0.864857  0.185014  1
  O  O4  1  0.794281  0.834139  0.213055  1
  O  O5  1  0.793876  0.334196  0.246460  1
  O  O6  1  0.793876  0.834196  0.144461  1
  O  O7  1  0.838787  0.919264  0.214205  1
  O  O8  1  0.839440  0.794272  0.239638  1
  O  O9  1  0.838532  0.419290  0.280036  1
  O  O10  1  0.838532  0.919290  0.178036  1
  O  O11  1  0.838888  0.294297  0.203647  1
  O  O12  1  0.838888  0.794297  0.305647  1
  O  O13  1  0.669700  0.834213  0.238813  1
  O  O14  1  0.668681  0.397145  0.259201  1
  O  O15  1  0.668681  0.897145  0.157202  1
  O  O16  1  0.668678  0.896736  0.225830  1
  O  O17  1  0.668735  0.334300  0.220793  1
  O  O18  1  0.668735  0.834300  0.118794  1
  O  O19  1  0.729215  0.250069  0.216795  1
  O  O20  1  0.869117  0.250030  0.161619  1
  O  O21  1  0.869117  0.750031  0.263619  1
  O  O22  1  0.499364  0.864952  0.232598  1
  O  O23  1  0.500375  0.365018  0.240170  1
  O  O24  1  0.500375  0.865018  0.138171  1
  O  O25  1  0.499471  0.499739  0.185542  1
  O  O26  1  0.499471  0.000000  0.287542  1
  O  O27  1  0.500702  0.434225  0.198979  1
  O  O28  1  0.500702  0.934225  0.300978  1
  O  O29  1  0.588803  0.419123  0.162955  1
  O  O30  1  0.588803  0.919123  0.264955  1
  O  O31  1  0.412193  0.419549  0.228932  1
  O  O32  1  0.412193  0.919550  0.126933  1
  O  O33  1  0.589455  0.419348  0.228960  1
  O  O34  1  0.589455  0.919348  0.126961  1
  O  O35  1  0.408844  0.419094  0.163348  1
  O  O36  1  0.408844  0.919094  0.265347  1
  O  O37  1  0.266600  0.365319  0.286892  1
  O  O38  1  0.266600  0.865319  0.184892  1
  O  O39  1  0.200249  0.334434  0.246411  1
  O  O40  1  0.200249  0.834434  0.144411  1
  O  O41  1  0.206662  0.835047  0.213797  1
  O  O42  1  0.160445  0.419560  0.279477  1
  O  O43  1  0.160445  0.919560  0.177477  1
  O  O44  1  0.160608  0.295641  0.203806  1
  O  O45  1  0.160608  0.795641  0.305806  1
  O  O46  1  0.161452  0.919442  0.214144  1
  O  O47  1  0.162042  0.795629  0.240336  1
  O  O48  1  0.269436  0.250345  0.311249  1
  O  O49  1  0.269436  0.750345  0.209249  1
  O  O50  1  0.266534  0.250567  0.216706  1
  O  O51  1  0.330417  0.335032  0.221134  1
  O  O52  1  0.330417  0.835032  0.119134  1
  O  O53  1  0.330218  0.396703  0.258781  1
  O  O54  1  0.330218  0.896703  0.156781  1
  O  O55  1  0.332073  0.833996  0.239934  1
  O  O56  1  0.330180  0.896244  0.226099  1
  O  O57  1  0.132465  0.250297  0.161721  1
  O  O58  1  0.132465  0.750297  0.263720  1
  O  O59  1  0.000000  0.434193  0.301030  1
  O  O60  1  0.000000  0.934193  0.199031  1
  O  O61  1  0.001134  0.750259  0.236813  1
  O  O62  1  0.000000  0.250082  0.188521  1
  O  O63  1  0.000000  0.750082  0.290520  1
  O  O64  1  0.668365  0.165810  0.306430  1
  O  O65  1  0.668365  0.665810  0.204430  1
  O  O66  1  0.729035  0.135284  0.240212  1
  O  O67  1  0.729035  0.635284  0.138213  1
  O  O68  1  0.793633  0.165915  0.212120  1
  O  O69  1  0.793633  0.665915  0.314120  1
  O  O70  1  0.793802  0.165785  0.280796  1
  O  O71  1  0.793802  0.665786  0.178796  1
  O  O72  1  0.838540  0.080894  0.211007  1
  O  O73  1  0.838540  0.580894  0.313007  1
  O  O74  1  0.838738  0.205695  0.185548  1
  O  O75  1  0.838738  0.705695  0.287547  1
  O  O76  1  0.838429  0.080858  0.247173  1
  O  O77  1  0.838429  0.580857  0.145173  1
  O  O78  1  0.839064  0.705669  0.221596  1
  O  O79  1  0.868771  -0.000000  0.212607  1
  O  O80  1  0.868771  0.500117  0.314606  1
  O  O81  1  0.729646  0.249949  0.310428  1
  O  O82  1  0.729646  0.749950  0.208428  1
  O  O83  1  0.668615  0.103033  0.199232  1
  O  O84  1  0.668615  0.603032  0.301232  1
  O  O85  1  0.668389  0.165904  0.186495  1
  O  O86  1  0.668389  0.665904  0.288495  1
  O  O87  1  0.668115  0.103105  0.267997  1
  O  O88  1  0.668115  0.603105  0.165997  1
  O  O89  1  0.499793  0.135366  0.287019  1
  O  O90  1  0.499793  0.635366  0.185020  1
  O  O91  1  0.499233  0.134679  0.193225  1
  O  O92  1  0.499233  0.634679  0.295224  1
  O  O93  1  0.588433  0.080688  0.298055  1
  O  O94  1  0.588433  0.580688  0.196055  1
  O  O95  1  0.499942  0.065744  0.123964  1
  O  O96  1  0.499942  0.565744  0.225963  1
  O  O97  1  0.411182  0.080470  0.298046  1
  O  O98  1  0.411182  0.580470  0.196046  1
  O  O99  1  0.589275  0.081089  0.160043  1
  O  O100  1  0.589275  0.581090  0.262042  1
  O  O101  1  0.411904  0.081165  0.160374  1
  O  O102  1  0.411904  0.581165  0.262373  1
  O  O103  1  0.501020  0.000000  0.137376  1
  O  O104  1  0.501020  0.500215  0.239376  1
  O  O105  1  0.270171  0.134545  0.239896  1
  O  O106  1  0.270171  0.634545  0.137897  1
  O  O107  1  0.206137  0.165675  0.280776  1
  O  O108  1  0.206137  0.665675  0.178776  1
  O  O109  1  0.206497  0.165293  0.211731  1
  O  O110  1  0.206497  0.665293  0.313730  1
  O  O111  1  0.161562  0.080727  0.247294  1
  O  O112  1  0.161562  0.580728  0.145295  1
  O  O113  1  0.161962  0.705612  0.221625  1
  O  O114  1  0.163180  0.080946  0.211104  1
  O  O115  1  0.163180  0.580946  0.313104  1
  O  O116  1  0.161643  0.205610  0.185444  1
  O  O117  1  0.161643  0.705610  0.287443  1
  O  O118  1  0.000000  0.065953  0.226021  1
  O  O119  1  0.331377  0.102934  0.267997  1
  O  O120  1  0.331377  0.602934  0.165997  1
  O  O121  1  0.330634  0.165743  0.186662  1
  O  O122  1  0.330634  0.665744  0.288662  1
  O  O123  1  0.331297  0.165281  0.306355  1
  O  O124  1  0.331297  0.665281  0.204356  1
  O  O125  1  0.332589  0.101930  0.199187  1
  O  O126  1  0.332589  0.601930  0.301187  1
  O  O127  1  0.131603  0.000000  0.212484  1
  O  O128  1  0.131603  0.500023  0.314483  1
  O  O129  1  0.729230  0.364857  0.491013  1
  O  O130  1  0.729230  0.864857  0.389013  1
  O  O131  1  0.794281  0.334139  0.315054  1
  O  O132  1  0.794281  0.834140  0.417054  1
  O  O133  1  0.793876  0.334196  0.450459  1
  O  O134  1  0.793876  0.834196  0.348460  1
  O  O135  1  0.838787  0.419263  0.316205  1
  O  O136  1  0.838787  0.919264  0.418204  1
  O  O137  1  0.839440  0.294271  0.341637  1
  O  O138  1  0.839440  0.794272  0.443637  1
  O  O139  1  0.838532  0.419290  0.484035  1
  O  O140  1  0.838532  0.919290  0.382036  1
  O  O141  1  0.838888  0.294297  0.407647  1
  O  O142  1  0.838888  0.794297  0.509646  1
  O  O143  1  0.669700  0.334213  0.340813  1
  O  O144  1  0.669700  0.834213  0.442812  1
  O  O145  1  0.668681  0.397145  0.463200  1
  O  O146  1  0.668681  0.897145  0.361201  1
  O  O147  1  0.668678  0.396736  0.327830  1
  O  O148  1  0.668678  0.896736  0.429830  1
  O  O149  1  0.668735  0.334300  0.424792  1
  O  O150  1  0.668735  0.834300  0.322793  1
  O  O151  1  0.729215  0.250069  0.420794  1
  O  O152  1  0.729215  0.750069  0.318794  1
  O  O153  1  0.869117  0.250030  0.365618  1
  O  O154  1  0.869117  0.750031  0.467618  1
  O  O155  1  0.499364  0.364952  0.334597  1
  O  O156  1  0.499364  0.864952  0.436597  1
  O  O157  1  0.500375  0.365018  0.444170  1
  O  O158  1  0.500375  0.865019  0.342170  1
  O  O159  1  0.499471  0.499739  0.389541  1
  O  O160  1  0.499471  0.000000  0.491541  1
  O  O161  1  0.500702  0.434225  0.402978  1
  O  O162  1  0.500702  0.934225  0.504978  1
  O  O163  1  0.588803  0.419123  0.366954  1
  O  O164  1  0.588803  0.919123  0.468954  1
  O  O165  1  0.412193  0.419549  0.432932  1
  O  O166  1  0.412193  0.919550  0.330932  1
  O  O167  1  0.589455  0.419348  0.432959  1
  O  O168  1  0.589455  0.919348  0.330960  1
  O  O169  1  0.408844  0.419094  0.367347  1
  O  O170  1  0.408844  0.919094  0.469346  1
  O  O171  1  0.266600  0.365319  0.490891  1
  O  O172  1  0.266600  0.865319  0.388891  1
  O  O173  1  0.200249  0.334434  0.450410  1
  O  O174  1  0.200249  0.834434  0.348410  1
  O  O175  1  0.206662  0.335047  0.315796  1
  O  O176  1  0.206662  0.835047  0.417796  1
  O  O177  1  0.160445  0.419560  0.483476  1
  O  O178  1  0.160445  0.919560  0.381476  1
  O  O179  1  0.160608  0.295641  0.407805  1
  O  O180  1  0.160608  0.795642  0.509805  1
  O  O181  1  0.161452  0.419442  0.316144  1
  O  O182  1  0.161452  0.919442  0.418143  1
  O  O183  1  0.162042  0.295629  0.342336  1
  O  O184  1  0.162042  0.795629  0.444335  1
  O  O185  1  0.269436  0.250345  0.515248  1
  O  O186  1  0.269436  0.750345  0.413249  1
  O  O187  1  0.266534  0.250567  0.420705  1
  O  O188  1  0.266534  0.750568  0.318706  1
  O  O189  1  0.330417  0.335032  0.425133  1
  O  O190  1  0.330417  0.835032  0.323133  1
  O  O191  1  0.330218  0.396703  0.462780  1
  O  O192  1  0.330218  0.896703  0.360780  1
  O  O193  1  0.332073  0.333996  0.341934  1
  O  O194  1  0.332073  0.833996  0.443933  1
  O  O195  1  0.330180  0.396244  0.328099  1
  O  O196  1  0.330180  0.896244  0.430098  1
  O  O197  1  0.132465  0.250297  0.365720  1
  O  O198  1  0.132465  0.750297  0.467719  1
  O  O199  1  0.000000  0.434193  0.505030  1
  O  O200  1  0.000000  0.934193  0.403030  1
  O  O201  1  0.001134  0.250259  0.338813  1
  O  O202  1  0.001134  0.750259  0.440812  1
  O  O203  1  0.000000  0.250082  0.392520  1
  O  O204  1  0.000000  0.750082  0.494519  1
  O  O205  1  0.668365  0.165810  0.510429  1
  O  O206  1  0.668365  0.665810  0.408429  1
  O  O207  1  0.729035  0.135284  0.444212  1
  O  O208  1  0.729035  0.635284  0.342212  1
  O  O209  1  0.793633  0.165915  0.416120  1
  O  O210  1  0.793633  0.665915  0.518119  1
  O  O211  1  0.793802  0.165785  0.484795  1
  O  O212  1  0.793802  0.665786  0.382795  1
  O  O213  1  0.838540  0.080894  0.415007  1
  O  O214  1  0.838540  0.580894  0.517006  1
  O  O215  1  0.838738  0.205695  0.389547  1
  O  O216  1  0.838738  0.705695  0.491546  1
  O  O217  1  0.838429  0.080858  0.451172  1
  O  O218  1  0.838429  0.580858  0.349172  1
  O  O219  1  0.839064  0.205670  0.323595  1
  O  O220  1  0.839064  0.705669  0.425595  1
  O  O221  1  0.868771  0.000000  0.416606  1
  O  O222  1  0.868771  0.500117  0.518605  1
  O  O223  1  0.729646  0.249949  0.514427  1
  O  O224  1  0.729646  0.749950  0.412427  1
  O  O225  1  0.668615  0.103032  0.403231  1
  O  O226  1  0.668615  0.603032  0.505231  1
  O  O227  1  0.668389  0.165904  0.390495  1
  O  O228  1  0.668389  0.665905  0.492494  1
  O  O229  1  0.668115  0.103105  0.471996  1
  O  O230  1  0.668115  0.603105  0.369997  1
  O  O231  1  0.499793  0.135366  0.491018  1
  O  O232  1  0.499793  0.635366  0.389019  1
  O  O233  1  0.499233  0.134679  0.397224  1
  O  O234  1  0.499233  0.634679  0.499224  1
  O  O235  1  0.588433  0.080688  0.502054  1
  O  O236  1  0.588433  0.580688  0.400055  1
  O  O237  1  0.499942  0.065744  0.327963  1
  O  O238  1  0.499942  0.565743  0.429962  1
  O  O239  1  0.411182  0.080470  0.502045  1
  O  O240  1  0.411182  0.580470  0.400046  1
  O  O241  1  0.589275  0.081089  0.364042  1
  O  O242  1  0.589275  0.581090  0.466042  1
  O  O243  1  0.411904  0.081165  0.364373  1
  O  O244  1  0.411904  0.581165  0.466373  1
  O  O245  1  0.501020  0.000000  0.341376  1
  O  O246  1  0.501020  0.500215  0.443375  1
  O  O247  1  0.270171  0.134545  0.443895  1
  O  O248  1  0.270171  0.634545  0.341896  1
  O  O249  1  0.206137  0.165675  0.484775  1
  O  O250  1  0.206137  0.665675  0.382775  1
  O  O251  1  0.206497  0.165293  0.415730  1
  O  O252  1  0.206497  0.665293  0.517729  1
  O  O253  1  0.161562  0.080727  0.451293  1
  O  O254  1  0.161562  0.580728  0.349294  1
  O  O255  1  0.161962  0.205612  0.323624  1
  O  O256  1  0.161962  0.705612  0.425624  1
  O  O257  1  0.163180  0.080946  0.415104  1
  O  O258  1  0.163180  0.580946  0.517103  1
  O  O259  1  0.161643  0.205610  0.389443  1
  O  O260  1  0.161643  0.705610  0.491443  1
  O  O261  1  0.000000  0.065953  0.430020  1
  O  O262  1  0.000000  0.565953  0.328020  1
  O  O263  1  0.331377  0.102934  0.471996  1
  O  O264  1  0.331377  0.602934  0.369997  1
  O  O265  1  0.330634  0.165743  0.390661  1
  O  O266  1  0.330634  0.665744  0.492661  1
  O  O267  1  0.331297  0.165281  0.510354  1
  O  O268  1  0.331297  0.665281  0.408355  1
  O  O269  1  0.332589  0.101930  0.403186  1
  O  O270  1  0.332589  0.601929  0.505186  1
  O  O271  1  0.131603  0.000000  0.416483  1
  O  O272  1  0.131603  0.500023  0.518483  1
  O  O273  1  0.729230  0.364857  0.695012  1
  O  O274  1  0.729230  0.864857  0.593013  1
  O  O275  1  0.794281  0.334139  0.519054  1
  O  O276  1  0.794281  0.834140  0.621053  1
  O  O277  1  0.793876  0.334196  0.654459  1
  O  O278  1  0.793876  0.834196  0.552459  1
  O  O279  1  0.838787  0.419263  0.520204  1
  O  O280  1  0.838787  0.919264  0.622204  1
  O  O281  1  0.839440  0.294271  0.545637  1
  O  O282  1  0.839440  0.794272  0.647636  1
  O  O283  1  0.838532  0.419290  0.688034  1
  O  O284  1  0.838532  0.919290  0.586035  1
  O  O285  1  0.838888  0.294297  0.611646  1
  O  O286  1  0.669700  0.334213  0.544812  1
  O  O287  1  0.669700  0.834213  0.646811  1
  O  O288  1  0.668681  0.397145  0.667199  1
  O  O289  1  0.668681  0.897146  0.565200  1
  O  O290  1  0.668678  0.396736  0.531829  1
  O  O291  1  0.668678  0.896736  0.633829  1
  O  O292  1  0.668735  0.334300  0.628792  1
  O  O293  1  0.668735  0.834300  0.526792  1
  O  O294  1  0.729215  0.250069  0.624793  1
  O  O295  1  0.729215  0.750069  0.522794  1
  O  O296  1  0.869117  0.250030  0.569617  1
  O  O297  1  0.869117  0.750031  0.671617  1
  O  O298  1  0.499364  0.364952  0.538597  1
  O  O299  1  0.499364  0.864952  0.640596  1
  O  O300  1  0.500375  0.365019  0.648169  1
  O  O301  1  0.500375  0.865018  0.546169  1
  O  O302  1  0.499471  0.499739  0.593540  1
  O  O303  1  0.499471  0.000000  0.695540  1
  O  O304  1  0.500702  0.434225  0.606977  1
  O  O305  1  0.500702  0.934225  0.708977  1
  O  O306  1  0.588803  0.419123  0.570953  1
  O  O307  1  0.588803  0.919123  0.672953  1
  O  O308  1  0.412193  0.419550  0.636931  1
  O  O309  1  0.412193  0.919550  0.534931  1
  O  O310  1  0.589455  0.419348  0.636959  1
  O  O311  1  0.589455  0.919348  0.534959  1
  O  O312  1  0.408844  0.419094  0.571346  1
  O  O313  1  0.408844  0.919094  0.673345  1
  O  O314  1  0.266600  0.365319  0.694890  1
  O  O315  1  0.266600  0.865319  0.592891  1
  O  O316  1  0.200249  0.334434  0.654409  1
  O  O317  1  0.200249  0.834434  0.552409  1
  O  O318  1  0.206662  0.335047  0.519795  1
  O  O319  1  0.206662  0.835047  0.621795  1
  O  O320  1  0.160445  0.419560  0.687475  1
  O  O321  1  0.160445  0.919560  0.585476  1
  O  O322  1  0.160608  0.295642  0.611804  1
  O  O323  1  0.161452  0.419442  0.520143  1
  O  O324  1  0.161452  0.919442  0.622142  1
  O  O325  1  0.162042  0.295629  0.546335  1
  O  O326  1  0.162042  0.795629  0.648334  1
  O  O327  1  0.269436  0.750345  0.617248  1
  O  O328  1  0.266534  0.250567  0.624705  1
  O  O329  1  0.266534  0.750567  0.522705  1
  O  O330  1  0.330417  0.335032  0.629132  1
  O  O331  1  0.330417  0.835032  0.527133  1
  O  O332  1  0.330218  0.396703  0.666779  1
  O  O333  1  0.330218  0.896703  0.564780  1
  O  O334  1  0.332073  0.333996  0.545933  1
  O  O335  1  0.332073  0.833996  0.647932  1
  O  O336  1  0.330180  0.396244  0.532098  1
  O  O337  1  0.330180  0.896244  0.634097  1
  O  O338  1  0.132465  0.250297  0.569719  1
  O  O339  1  0.132465  0.750298  0.671718  1
  O  O340  1  0.000000  0.934193  0.607029  1
  O  O341  1  0.001134  0.250259  0.542812  1
  O  O342  1  0.001134  0.750259  0.644811  1
  O  O343  1  0.000000  0.250082  0.596519  1
  O  O344  1  0.668365  0.165810  0.714428  1
  O  O345  1  0.668365  0.665810  0.612428  1
  O  O346  1  0.729035  0.135284  0.648211  1
  O  O347  1  0.729035  0.635284  0.546211  1
  O  O348  1  0.793633  0.165915  0.620119  1
  O  O349  1  0.793802  0.165785  0.688794  1
  O  O350  1  0.793802  0.665786  0.586795  1
  O  O351  1  0.838540  0.080894  0.619006  1
  O  O352  1  0.838738  0.205695  0.593546  1
  O  O353  1  0.838429  0.080858  0.655171  1
  O  O354  1  0.838429  0.580857  0.553171  1
  O  O355  1  0.839064  0.205670  0.527594  1
  O  O356  1  0.839064  0.705669  0.629594  1
  O  O357  1  0.868771  0.000000  0.620605  1
  O  O358  1  0.729646  0.749950  0.616426  1
  O  O359  1  0.668615  0.103033  0.607231  1
  O  O360  1  0.668389  0.165905  0.594494  1
  O  O361  1  0.668115  0.103105  0.675995  1
  O  O362  1  0.668115  0.603105  0.573996  1
  O  O363  1  0.499793  0.135366  0.695018  1
  O  O364  1  0.499793  0.635366  0.593018  1
  O  O365  1  0.499233  0.134679  0.601223  1
  O  O366  1  0.588433  0.080688  0.706053  1
  O  O367  1  0.588433  0.580688  0.604054  1
  O  O368  1  0.499942  0.065744  0.531962  1
  O  O369  1  0.499942  0.565743  0.633961  1
  O  O370  1  0.411182  0.080470  0.706044  1
  O  O371  1  0.411182  0.580470  0.604045  1
  O  O372  1  0.589275  0.081089  0.568041  1
  O  O373  1  0.589275  0.581090  0.670041  1
  O  O374  1  0.411904  0.081165  0.568372  1
  O  O375  1  0.411904  0.581165  0.670372  1
  O  O376  1  0.501020  0.000000  0.545375  1
  O  O377  1  0.501020  0.500214  0.647374  1
  O  O378  1  0.270171  0.134545  0.647895  1
  O  O379  1  0.270171  0.634544  0.545895  1
  O  O380  1  0.206137  0.165675  0.688774  1
  O  O381  1  0.206137  0.665675  0.586775  1
  O  O382  1  0.206497  0.165293  0.619729  1
  O  O383  1  0.161562  0.080728  0.655292  1
  O  O384  1  0.161562  0.580728  0.553293  1
  O  O385  1  0.161962  0.205612  0.527623  1
  O  O386  1  0.161962  0.705612  0.629623  1
  O  O387  1  0.163180  0.080946  0.619103  1
  O  O388  1  0.161643  0.205610  0.593442  1
  O  O389  1  0.000000  0.065953  0.634019  1
  O  O390  1  0.000000  0.565953  0.532020  1
  O  O391  1  0.331377  0.102935  0.675995  1
  O  O392  1  0.331377  0.602934  0.573996  1
  O  O393  1  0.330634  0.165744  0.594660  1
  O  O394  1  0.331297  0.165281  0.714354  1
  O  O395  1  0.331297  0.665281  0.612354  1
  O  O396  1  0.332589  0.101929  0.607186  1
  O  O397  1  0.131603  0.000000  0.620482  1
  O  O398  1  0.499942  0.065744  0.735961  1
  Si  Si399  1  0.759438  0.302546  0.221431  1
  Si  Si400  1  0.888607  0.444242  0.303208  1
  Si  Si401  1  0.888607  0.944242  0.201208  1
  Si  Si402  1  0.759525  0.379727  0.311455  1
  Si  Si403  1  0.759525  0.879727  0.209455  1
  Si  Si404  1  0.760011  0.802418  0.225198  1
  Si  Si405  1  0.759299  0.379740  0.268626  1
  Si  Si406  1  0.759299  0.879741  0.166627  1
  Si  Si407  1  0.498962  0.443756  0.178074  1
  Si  Si408  1  0.498962  0.943755  0.280073  1
  Si  Si409  1  0.390687  0.878645  0.241376  1
  Si  Si410  1  0.605576  0.379849  0.237099  1
  Si  Si411  1  0.605576  0.879849  0.135099  1
  Si  Si412  1  0.395541  0.380065  0.237050  1
  Si  Si413  1  0.395541  0.880065  0.135051  1
  Si  Si414  1  0.607551  0.879373  0.240889  1
  Si  Si415  1  0.501085  0.444458  0.223846  1
  Si  Si416  1  0.501085  0.944458  0.121847  1
  Si  Si417  1  0.112125  0.444130  0.302832  1
  Si  Si418  1  0.112125  0.944130  0.200833  1
  Si  Si419  1  0.237520  0.379099  0.267539  1
  Si  Si420  1  0.237520  0.879100  0.165540  1
  Si  Si421  1  0.237645  0.304900  0.222193  1
  Si  Si422  1  0.239836  0.379816  0.311856  1
  Si  Si423  1  0.239836  0.879817  0.209856  1
  Si  Si424  1  0.242540  0.804720  0.226390  1
  Si  Si425  1  0.113071  0.750573  0.240918  1
  Si  Si426  1  0.112639  0.250563  0.184615  1
  Si  Si427  1  0.112639  0.750563  0.286615  1
  Si  Si428  1  0.888649  0.055996  0.224010  1
  Si  Si429  1  0.759095  0.120337  0.215738  1
  Si  Si430  1  0.759161  0.197572  0.199972  1
  Si  Si431  1  0.759161  0.697572  0.301972  1
  Si  Si432  1  0.759084  0.120355  0.258591  1
  Si  Si433  1  0.759084  0.620355  0.156592  1
  Si  Si434  1  0.759455  0.197448  0.305839  1
  Si  Si435  1  0.759455  0.697448  0.203840  1
  Si  Si436  1  0.888942  0.249978  0.184422  1
  Si  Si437  1  0.888942  0.749978  0.286422  1
  Si  Si438  1  0.889311  0.749966  0.240803  1
  Si  Si439  1  0.499904  0.055590  0.303115  1
  Si  Si440  1  0.499904  0.555590  0.201116  1
  Si  Si441  1  0.604743  0.120439  0.290081  1
  Si  Si442  1  0.604743  0.620439  0.188081  1
  Si  Si443  1  0.391366  0.120571  0.184817  1
  Si  Si444  1  0.391366  0.620571  0.286816  1
  Si  Si445  1  0.606373  0.120505  0.184320  1
  Si  Si446  1  0.606373  0.620505  0.286319  1
  Si  Si447  1  0.394996  0.120103  0.290017  1
  Si  Si448  1  0.394996  0.620102  0.188017  1
  Si  Si449  1  0.500765  0.055860  0.144672  1
  Si  Si450  1  0.500765  0.555859  0.246671  1
  Si  Si451  1  0.111603  0.055680  0.224083  1
  Si  Si452  1  0.239973  0.196562  0.199759  1
  Si  Si453  1  0.239973  0.696562  0.301759  1
  Si  Si454  1  0.240576  0.120378  0.258880  1
  Si  Si455  1  0.240576  0.620378  0.156880  1
  Si  Si456  1  0.240605  0.196232  0.305580  1
  Si  Si457  1  0.240605  0.696233  0.203580  1
  Si  Si458  1  0.243450  0.120348  0.214966  1
  Si  Si459  1  0.759438  0.302546  0.425430  1
  Si  Si460  1  0.759438  0.802546  0.323431  1
  Si  Si461  1  0.888607  0.444242  0.507207  1
  Si  Si462  1  0.888607  0.944242  0.405208  1
  Si  Si463  1  0.759525  0.379727  0.515454  1
  Si  Si464  1  0.759525  0.879727  0.413454  1
  Si  Si465  1  0.760011  0.302418  0.327198  1
  Si  Si466  1  0.760011  0.802418  0.429197  1
  Si  Si467  1  0.759299  0.379740  0.472625  1
  Si  Si468  1  0.759299  0.879741  0.370626  1
  Si  Si469  1  0.498962  0.443755  0.382073  1
  Si  Si470  1  0.498962  0.943755  0.484072  1
  Si  Si471  1  0.390687  0.378644  0.343375  1
  Si  Si472  1  0.390687  0.878645  0.445375  1
  Si  Si473  1  0.605576  0.379850  0.441098  1
  Si  Si474  1  0.605576  0.879849  0.339098  1
  Si  Si475  1  0.395541  0.380065  0.441049  1
  Si  Si476  1  0.395541  0.880065  0.339050  1
  Si  Si477  1  0.607551  0.379373  0.342889  1
  Si  Si478  1  0.607551  0.879373  0.444888  1
  Si  Si479  1  0.501085  0.444458  0.427845  1
  Si  Si480  1  0.501085  0.944458  0.325846  1
  Si  Si481  1  0.112125  0.444130  0.506831  1
  Si  Si482  1  0.112125  0.944130  0.404832  1
  Si  Si483  1  0.237520  0.379099  0.471538  1
  Si  Si484  1  0.237520  0.879100  0.369539  1
  Si  Si485  1  0.237645  0.304900  0.426192  1
  Si  Si486  1  0.237645  0.804901  0.324193  1
  Si  Si487  1  0.239836  0.379817  0.515855  1
  Si  Si488  1  0.239836  0.879817  0.413856  1
  Si  Si489  1  0.242540  0.304720  0.328390  1
  Si  Si490  1  0.242540  0.804720  0.430389  1
  Si  Si491  1  0.113071  0.250573  0.342917  1
  Si  Si492  1  0.113071  0.750573  0.444917  1
  Si  Si493  1  0.112639  0.250563  0.388614  1
  Si  Si494  1  0.112639  0.750563  0.490614  1
  Si  Si495  1  0.888649  0.055996  0.428009  1
  Si  Si496  1  0.888649  0.555996  0.326009  1
  Si  Si497  1  0.759095  0.120337  0.419737  1
  Si  Si498  1  0.759095  0.620337  0.317738  1
  Si  Si499  1  0.759161  0.197572  0.403972  1
  Si  Si500  1  0.759161  0.697572  0.505971  1
  Si  Si501  1  0.759084  0.120355  0.462590  1
  Si  Si502  1  0.759084  0.620355  0.360591  1
  Si  Si503  1  0.759455  0.197448  0.509838  1
  Si  Si504  1  0.759455  0.697448  0.407839  1
  Si  Si505  1  0.888942  0.249978  0.388421  1
  Si  Si506  1  0.888942  0.749978  0.490421  1
  Si  Si507  1  0.889311  0.249966  0.342802  1
  Si  Si508  1  0.889311  0.749966  0.444802  1
  Si  Si509  1  0.499904  0.055590  0.507114  1
  Si  Si510  1  0.499904  0.555590  0.405115  1
  Si  Si511  1  0.604743  0.120439  0.494080  1
  Si  Si512  1  0.604743  0.620439  0.392080  1
  Si  Si513  1  0.391366  0.120571  0.388816  1
  Si  Si514  1  0.391366  0.620571  0.490815  1
  Si  Si515  1  0.606373  0.120505  0.388319  1
  Si  Si516  1  0.606373  0.620505  0.490318  1
  Si  Si517  1  0.394996  0.120103  0.494016  1
  Si  Si518  1  0.394996  0.620102  0.392017  1
  Si  Si519  1  0.500765  0.055860  0.348671  1
  Si  Si520  1  0.500765  0.555859  0.450671  1
  Si  Si521  1  0.111603  0.055680  0.428082  1
  Si  Si522  1  0.111603  0.555680  0.326083  1
  Si  Si523  1  0.239973  0.196562  0.403758  1
  Si  Si524  1  0.239973  0.696562  0.505758  1
  Si  Si525  1  0.240576  0.120378  0.462879  1
  Si  Si526  1  0.240576  0.620377  0.360880  1
  Si  Si527  1  0.240605  0.196232  0.509579  1
  Si  Si528  1  0.240605  0.696233  0.407579  1
  Si  Si529  1  0.243450  0.120348  0.418965  1
  Si  Si530  1  0.243450  0.620348  0.316965  1
  Si  Si531  1  0.759438  0.302546  0.629430  1
  Si  Si532  1  0.759438  0.802546  0.527430  1
  Si  Si533  1  0.888607  0.944242  0.609207  1
  Si  Si534  1  0.759525  0.879727  0.617454  1
  Si  Si535  1  0.760011  0.302418  0.531197  1
  Si  Si536  1  0.760011  0.802417  0.633196  1
  Si  Si537  1  0.759299  0.379740  0.676624  1
  Si  Si538  1  0.759299  0.879741  0.574625  1
  Si  Si539  1  0.498962  0.443755  0.586072  1
  Si  Si540  1  0.498962  0.943756  0.688071  1
  Si  Si541  1  0.390687  0.378644  0.547375  1
  Si  Si542  1  0.390687  0.878644  0.649374  1
  Si  Si543  1  0.605576  0.379849  0.645097  1
  Si  Si544  1  0.605576  0.879850  0.543098  1
  Si  Si545  1  0.395541  0.380065  0.645049  1
  Si  Si546  1  0.395541  0.880066  0.543049  1
  Si  Si547  1  0.607551  0.379374  0.546888  1
  Si  Si548  1  0.607551  0.879373  0.648887  1
  Si  Si549  1  0.501085  0.444458  0.631845  1
  Si  Si550  1  0.501085  0.944458  0.529845  1
  Si  Si551  1  0.112125  0.944130  0.608831  1
  Si  Si552  1  0.237520  0.379099  0.675538  1
  Si  Si553  1  0.237520  0.879100  0.573538  1
  Si  Si554  1  0.237645  0.304901  0.630191  1
  Si  Si555  1  0.237645  0.804901  0.528192  1
  Si  Si556  1  0.239836  0.879817  0.617855  1
  Si  Si557  1  0.242540  0.304720  0.532389  1
  Si  Si558  1  0.242540  0.804720  0.634389  1
  Si  Si559  1  0.113071  0.250573  0.546916  1
  Si  Si560  1  0.113071  0.750574  0.648916  1
  Si  Si561  1  0.112639  0.250563  0.592613  1
  Si  Si562  1  0.888649  0.055996  0.632008  1
  Si  Si563  1  0.888649  0.555996  0.530009  1
  Si  Si564  1  0.759095  0.120337  0.623736  1
  Si  Si565  1  0.759095  0.620337  0.521737  1
  Si  Si566  1  0.759161  0.197572  0.607971  1
  Si  Si567  1  0.759084  0.120355  0.666590  1
  Si  Si568  1  0.759084  0.620355  0.564590  1
  Si  Si569  1  0.759455  0.697448  0.611838  1
  Si  Si570  1  0.888942  0.249979  0.592421  1
  Si  Si571  1  0.889311  0.249966  0.546802  1
  Si  Si572  1  0.889311  0.749966  0.648801  1
  Si  Si573  1  0.499904  0.055590  0.711113  1
  Si  Si574  1  0.499904  0.555590  0.609114  1
  Si  Si575  1  0.604743  0.120439  0.698079  1
  Si  Si576  1  0.604743  0.620439  0.596080  1
  Si  Si577  1  0.391366  0.120571  0.592815  1
  Si  Si578  1  0.606373  0.120505  0.592318  1
  Si  Si579  1  0.394996  0.120103  0.698015  1
  Si  Si580  1  0.394996  0.620102  0.596016  1
  Si  Si581  1  0.500765  0.055860  0.552670  1
  Si  Si582  1  0.500765  0.555859  0.654670  1
  Si  Si583  1  0.111603  0.055680  0.632082  1
  Si  Si584  1  0.111603  0.555680  0.530082  1
  Si  Si585  1  0.239973  0.196562  0.607757  1
  Si  Si586  1  0.240576  0.120378  0.666878  1
  Si  Si587  1  0.240576  0.620378  0.564879  1
  Si  Si588  1  0.240605  0.696233  0.611578  1
  Si  Si589  1  0.243450  0.120348  0.622964  1
  Si  Si590  1  0.243450  0.620348  0.520965  1
  H  H591  1  0.500702  0.934225  0.083530  1
  H  H592  1  0.793876  0.834196  0.131011  1
  H  H593  1  0.668735  0.834300  0.105344  1
  H  H594  1  0.869117  0.250030  0.148170  1
  H  H595  1  0.588803  0.419123  0.149506  1
  H  H596  1  0.408844  0.419094  0.149898  1
  H  H597  1  0.200249  0.834434  0.130962  1
  H  H598  1  0.330417  0.835032  0.105685  1
  H  H599  1  0.132465  0.250297  0.148271  1
  H  H600  1  0.729035  0.635284  0.124763  1
  H  H601  1  0.838429  0.580857  0.131724  1
  H  H602  1  0.499942  0.065744  0.110514  1
  H  H603  1  0.270171  0.634544  0.124447  1
  H  H604  1  0.161562  0.580728  0.131845  1
  H  H605  1  0.729230  0.364857  0.708462  1
  H  H606  1  0.838532  0.419290  0.701484  1
  H  H607  1  0.869117  0.750030  0.685066  1
  H  H608  1  0.500702  0.934225  0.722426  1
  H  H609  1  0.266600  0.365319  0.708340  1
  H  H610  1  0.160445  0.419560  0.700925  1
  H  H611  1  0.132465  0.750297  0.685168  1
  H  H612  1  0.668365  0.165810  0.727877  1
  H  H613  1  0.793802  0.165785  0.702244  1
  H  H614  1  0.589275  0.581090  0.683490  1
  H  H615  1  0.411904  0.581165  0.683821  1
  H  H616  1  0.206137  0.165675  0.702224  1
  H  H617  1  0.331297  0.165281  0.727803  1
  H  H618  1  0.499942  0.065744  0.749410  1
