# generated using pymatgen
data_Si25H2O51
_symmetry_space_group_name_H-M   'P 1'
_cell_length_a   13.76258817
_cell_length_b   6.32590885
_cell_length_c   56.21054042
_cell_angle_alpha   90.00000000
_cell_angle_beta   90.00000000
_cell_angle_gamma   90.00000000
_symmetry_Int_Tables_number   1
_chemical_formula_structural   Si25H2O51
_chemical_formula_sum   'Si50 H4 O102'
_cell_volume   4893.73901932
_cell_formula_units_Z   2
loop_
 _symmetry_equiv_pos_site_id
 _symmetry_equiv_pos_as_xyz
  1  'x, y, z'
loop_
 _atom_site_type_symbol
 _atom_site_label
 _atom_site_symmetry_multiplicity
 _atom_site_fract_x
 _atom_site_fract_y
 _atom_site_fract_z
 _atom_site_occupancy
  O  O1  1  0.499936  0.499903  0.171414  1
  O  O2  1  0.228578  0.749983  0.227397  1
  O  O3  1  0.728587  0.249940  0.104963  1
  O  O4  1  0.000000  0.500054  0.160942  1
  O  O5  1  0.499929  -0.000000  0.283382  1
  O  O6  1  0.771292  0.249933  0.227396  1
  O  O7  1  0.271292  0.749994  0.104963  1
  O  O8  1  0.666838  0.375344  0.190254  1
  O  O9  1  0.333015  0.624599  0.190254  1
  O  O10  1  0.833003  0.375348  0.142106  1
  O  O11  1  0.332995  0.875352  0.264543  1
  O  O12  1  0.666841  0.124582  0.264540  1
  O  O13  1  0.166836  0.624587  0.142106  1
  O  O14  1  0.151615  0.874635  0.268265  1
  O  O15  1  0.651624  0.374675  0.145829  1
  O  O16  1  0.348216  0.625301  0.145834  1
  O  O17  1  0.848229  0.125330  0.268268  1
  O  O18  1  0.848218  0.374640  0.186528  1
  O  O19  1  0.151629  0.625276  0.186528  1
  O  O20  1  0.658599  0.722991  0.167927  1
  O  O21  1  0.242813  0.973001  0.188545  1
  O  O22  1  0.841295  0.722989  0.164433  1
  O  O23  1  0.341288  0.222983  0.286868  1
  O  O24  1  0.757070  0.472981  0.266252  1
  O  O25  1  0.257061  0.972982  0.143817  1
  O  O26  1  0.341286  0.276956  0.167926  1
  O  O27  1  0.742807  0.026942  0.143815  1
  O  O28  1  0.242799  0.526935  0.266248  1
  O  O29  1  0.158606  0.276953  0.164432  1
  O  O30  1  0.658605  0.776957  0.286866  1
  O  O31  1  0.757058  0.026940  0.188541  1
  O  O32  1  0.000000  0.000000  0.293844  1
  O  O33  1  0.499936  0.499903  0.416283  1
  O  O34  1  0.228578  0.749983  0.472266  1
  O  O35  1  0.728587  0.249940  0.349832  1
  O  O36  1  0.000000  0.500054  0.405811  1
  O  O37  1  0.499929  0.000000  0.528251  1
  O  O38  1  0.771292  0.249933  0.472265  1
  O  O39  1  0.271292  0.749994  0.349831  1
  O  O40  1  0.166854  0.875361  0.312686  1
  O  O41  1  0.666838  0.375344  0.435123  1
  O  O42  1  0.333015  0.624599  0.435123  1
  O  O43  1  0.833006  0.124587  0.312689  1
  O  O44  1  0.833003  0.375348  0.386975  1
  O  O45  1  0.332995  0.875352  0.509412  1
  O  O46  1  0.666841  0.124582  0.509409  1
  O  O47  1  0.166836  0.624587  0.386975  1
  O  O48  1  0.151615  0.874635  0.513134  1
  O  O49  1  0.651624  0.374675  0.390698  1
  O  O50  1  0.348216  0.625301  0.390703  1
  O  O51  1  0.848229  0.125330  0.513137  1
  O  O52  1  0.848218  0.374640  0.431397  1
  O  O53  1  0.348232  0.874622  0.308962  1
  O  O54  1  0.651618  0.125293  0.308963  1
  O  O55  1  0.151629  0.625276  0.431397  1
  O  O56  1  0.158600  0.222990  0.290358  1
  O  O57  1  0.658599  0.722991  0.412796  1
  O  O58  1  0.242813  0.973001  0.433414  1
  O  O59  1  0.742801  0.473004  0.310981  1
  O  O60  1  0.841295  0.722989  0.409302  1
  O  O61  1  0.341288  0.222983  0.531737  1
  O  O62  1  0.757070  0.472981  0.511121  1
  O  O63  1  0.257061  0.972982  0.388686  1
  O  O64  1  0.841278  0.776965  0.290358  1
  O  O65  1  0.341286  0.276956  0.412795  1
  O  O66  1  0.742807  0.026942  0.388684  1
  O  O67  1  0.242799  0.526935  0.511117  1
  O  O68  1  0.158606  0.276953  0.409301  1
  O  O69  1  0.658605  0.776957  0.531735  1
  O  O70  1  0.257072  0.526939  0.310978  1
  O  O71  1  0.757058  0.026940  0.433410  1
  O  O72  1  0.000000  0.000000  0.538713  1
  O  O73  1  0.499936  0.499903  0.661152  1
  O  O74  1  0.228578  0.749983  0.717135  1
  O  O75  1  0.728587  0.249940  0.594701  1
  O  O76  1  -0.000000  0.500054  0.650680  1
  O  O77  1  0.771292  0.249933  0.717134  1
  O  O78  1  0.271292  0.749994  0.594700  1
  O  O79  1  0.166854  0.875361  0.557555  1
  O  O80  1  0.666838  0.375344  0.679992  1
  O  O81  1  0.333015  0.624599  0.679992  1
  O  O82  1  0.833006  0.124587  0.557557  1
  O  O83  1  0.833003  0.375348  0.631844  1
  O  O84  1  0.166836  0.624587  0.631844  1
  O  O85  1  0.651624  0.374675  0.635567  1
  O  O86  1  0.348216  0.625301  0.635572  1
  O  O87  1  0.848218  0.374640  0.676266  1
  O  O88  1  0.348232  0.874622  0.553831  1
  O  O89  1  0.651618  0.125293  0.553832  1
  O  O90  1  0.151629  0.625276  0.676266  1
  O  O91  1  0.158600  0.222990  0.535227  1
  O  O92  1  0.658599  0.722991  0.657665  1
  O  O93  1  0.242813  0.973001  0.678283  1
  O  O94  1  0.742801  0.473004  0.555850  1
  O  O95  1  0.841295  0.722989  0.654171  1
  O  O96  1  0.257061  0.972982  0.633555  1
  O  O97  1  0.841278  0.776965  0.535227  1
  O  O98  1  0.341286  0.276956  0.657664  1
  O  O99  1  0.742807  0.026942  0.633553  1
  O  O100  1  0.158606  0.276953  0.654170  1
  O  O101  1  0.257072  0.526939  0.555847  1
  O  O102  1  0.757058  0.026940  0.678279  1
  Si  Si103  1  0.613079  0.493219  0.168956  1
  Si  Si104  1  0.238589  0.743229  0.199691  1
  Si  Si105  1  0.886783  0.493183  0.163403  1
  Si  Si106  1  0.386782  0.993190  0.285838  1
  Si  Si107  1  0.761263  0.243225  0.255103  1
  Si  Si108  1  0.261259  0.743222  0.132668  1
  Si  Si109  1  0.386780  0.506743  0.168957  1
  Si  Si110  1  0.738583  0.256706  0.132666  1
  Si  Si111  1  0.238581  0.756704  0.255101  1
  Si  Si112  1  0.113082  0.506712  0.163404  1
  Si  Si113  1  0.613084  0.006721  0.285838  1
  Si  Si114  1  0.761258  0.256695  0.199694  1
  Si  Si115  1  0.749947  0.874976  0.166178  1
  Si  Si116  1  0.249947  0.124959  0.166180  1
  Si  Si117  1  0.113079  0.993220  0.291390  1
  Si  Si118  1  0.613079  0.493219  0.413825  1
  Si  Si119  1  0.238589  0.743229  0.444560  1
  Si  Si120  1  0.738583  0.243224  0.322126  1
  Si  Si121  1  0.886783  0.493183  0.408272  1
  Si  Si122  1  0.386782  0.993190  0.530707  1
  Si  Si123  1  0.761263  0.243225  0.499972  1
  Si  Si124  1  0.261259  0.743222  0.377537  1
  Si  Si125  1  0.886778  0.006751  0.291391  1
  Si  Si126  1  0.386780  0.506743  0.413826  1
  Si  Si127  1  0.738583  0.256706  0.377534  1
  Si  Si128  1  0.238581  0.756704  0.499970  1
  Si  Si129  1  0.113082  0.506712  0.408273  1
  Si  Si130  1  0.613084  0.006721  0.530707  1
  Si  Si131  1  0.261267  0.756701  0.322127  1
  Si  Si132  1  0.761258  0.256695  0.444562  1
  Si  Si133  1  0.249945  0.374977  0.288613  1
  Si  Si134  1  0.749947  0.874976  0.411047  1
  Si  Si135  1  0.249947  0.124959  0.411049  1
  Si  Si136  1  0.749944  0.624957  0.288615  1
  Si  Si137  1  0.113079  0.993220  0.536259  1
  Si  Si138  1  0.613079  0.493219  0.658693  1
  Si  Si139  1  0.238589  0.743229  0.689429  1
  Si  Si140  1  0.738583  0.243224  0.566995  1
  Si  Si141  1  0.886783  0.493183  0.653141  1
  Si  Si142  1  0.261259  0.743222  0.622406  1
  Si  Si143  1  0.886778  0.006751  0.536260  1
  Si  Si144  1  0.386780  0.506743  0.658695  1
  Si  Si145  1  0.738583  0.256706  0.622403  1
  Si  Si146  1  0.113082  0.506712  0.653142  1
  Si  Si147  1  0.261267  0.756701  0.566996  1
  Si  Si148  1  0.761258  0.256695  0.689431  1
  Si  Si149  1  0.249945  0.374977  0.533482  1
  Si  Si150  1  0.749947  0.874976  0.655916  1
  Si  Si151  1  0.249947  0.124959  0.655918  1
  Si  Si152  1  0.749944  0.624957  0.533484  1
  H  H153  1  0.728587  0.249940  0.088952  1
  H  H154  1  0.271292  0.749994  0.088951  1
  H  H155  1  0.228578  0.749983  0.733146  1
  H  H156  1  0.771292  0.249933  0.733145  1
