# generated using pymatgen
data_Si34H2O69
_symmetry_space_group_name_H-M   'P 1'
_cell_length_a   25.36503145
_cell_length_b   13.87769178
_cell_length_c   68.73830055
_cell_angle_alpha   90.00000000
_cell_angle_beta   90.00000000
_cell_angle_gamma   90.00000000
_symmetry_Int_Tables_number   1
_chemical_formula_structural   Si34H2O69
_chemical_formula_sum   'Si272 H16 O552'
_cell_volume   24196.4377813
_cell_formula_units_Z   8
loop_
 _symmetry_equiv_pos_site_id
 _symmetry_equiv_pos_as_xyz
  1  'x, y, z'
loop_
 _atom_site_type_symbol
 _atom_site_label
 _atom_site_symmetry_multiplicity
 _atom_site_fract_x
 _atom_site_fract_y
 _atom_site_fract_z
 _atom_site_occupancy
  O  O1  1  0.084712  0.336884  0.085833  1
  O  O2  1  0.085106  0.662193  0.085855  1
  O  O3  1  0.071622  0.499500  0.104230  1
  O  O4  1  0.149893  0.759406  0.220363  1
  O  O5  1  0.149789  0.240032  0.220313  1
  O  O6  1  0.149844  0.740209  0.149661  1
  O  O7  1  0.149918  0.259800  0.149628  1
  O  O8  1  0.319560  0.250091  0.185009  1
  O  O9  1  0.180611  0.749988  0.185015  1
  O  O10  1  0.319603  0.750136  0.185016  1
  O  O11  1  0.180584  0.250118  0.184977  1
  O  O12  1  0.250004  0.250240  0.210944  1
  O  O13  1  0.250140  0.750411  0.210968  1
  O  O14  1  0.250059  0.750106  0.159064  1
  O  O15  1  0.250144  0.250307  0.159037  1
  O  O16  1  0.308978  0.100245  0.205977  1
  O  O17  1  0.191359  0.600245  0.206033  1
  O  O18  1  0.309426  0.900013  0.206012  1
  O  O19  1  0.190624  0.399879  0.206038  1
  O  O20  1  0.190039  0.899876  0.163969  1
  O  O21  1  0.310279  0.399940  0.163967  1
  O  O22  1  0.190387  0.100295  0.163977  1
  O  O23  1  0.309579  0.600411  0.163994  1
  O  O24  1  0.094773  0.908060  0.214634  1
  O  O25  1  0.094765  0.091049  0.214763  1
  O  O26  1  0.094507  0.592057  0.155424  1
  O  O27  1  0.095510  0.409232  0.155177  1
  O  O28  1  0.085529  0.838237  0.247377  1
  O  O29  1  0.084909  0.162879  0.247323  1
  O  O30  1  0.085472  0.661785  0.122641  1
  O  O31  1  0.084765  0.336986  0.122696  1
  O  O32  1  0.050101  0.749191  0.217443  1
  O  O33  1  0.050301  0.250176  0.216905  1
  O  O34  1  0.049988  0.750979  0.152580  1
  O  O35  1  0.050443  0.250458  0.153233  1
  O  O36  1  0.151702  0.000000  0.190769  1
  O  O37  1  0.151267  0.500678  0.179508  1
  O  O38  1  0.249737  0.498791  0.184635  1
  O  O39  1  0.250533  0.000000  0.184553  1
  O  O40  1  0.050662  -0.000000  0.187828  1
  O  O41  1  0.050646  0.498965  0.182122  1
  O  O42  1  -0.000000  0.624497  0.104315  1
  O  O43  1  0.000000  0.099178  0.164070  1
  O  O44  1  0.001875  0.750298  0.185027  1
  O  O45  1  0.000000  0.599139  0.205890  1
  O  O46  1  0.350213  0.259428  0.220373  1
  O  O47  1  0.649723  0.259405  0.220352  1
  O  O48  1  0.350345  0.740456  0.220379  1
  O  O49  1  0.649831  0.740742  0.220384  1
  O  O50  1  0.649816  0.240070  0.149616  1
  O  O51  1  0.350329  0.239832  0.149689  1
  O  O52  1  0.649710  0.760089  0.149689  1
  O  O53  1  0.350224  0.759978  0.149650  1
  O  O54  1  0.594909  0.408373  0.214737  1
  O  O55  1  0.404938  0.408602  0.214773  1
  O  O56  1  0.595607  0.591031  0.214827  1
  O  O57  1  0.405481  0.591684  0.214767  1
  O  O58  1  0.405863  0.091723  0.155438  1
  O  O59  1  0.595080  0.091056  0.155213  1
  O  O60  1  0.405373  0.908590  0.155272  1
  O  O61  1  0.594469  0.908382  0.155442  1
  O  O62  1  0.584711  0.336829  0.247330  1
  O  O63  1  0.414646  0.338055  0.247411  1
  O  O64  1  0.584837  0.662826  0.247306  1
  O  O65  1  0.414802  0.662449  0.247462  1
  O  O66  1  0.414697  0.161621  0.122668  1
  O  O67  1  0.584756  0.163044  0.122662  1
  O  O68  1  0.414731  0.837737  0.122571  1
  O  O69  1  0.584779  0.837686  0.122779  1
  O  O70  1  0.550230  0.249726  0.216865  1
  O  O71  1  0.449945  0.249787  0.217369  1
  O  O72  1  0.550356  0.749373  0.216775  1
  O  O73  1  0.450084  0.750740  0.217411  1
  O  O74  1  0.450102  0.251141  0.152594  1
  O  O75  1  0.550351  0.249989  0.153163  1
  O  O76  1  0.449913  0.749197  0.152596  1
  O  O77  1  0.550175  0.749372  0.153123  1
  O  O78  1  0.348495  0.500600  0.190764  1
  O  O79  1  0.651870  0.499509  0.190731  1
  O  O80  1  0.650941  -0.000000  0.179553  1
  O  O81  1  0.349003  -0.000000  0.179442  1
  O  O82  1  0.550767  0.500705  0.187962  1
  O  O83  1  0.449509  0.499492  0.187966  1
  O  O84  1  0.449500  0.000000  0.182268  1
  O  O85  1  0.550335  0.000000  0.182175  1
  O  O86  1  0.571574  0.499672  0.265630  1
  O  O87  1  0.500373  0.400834  0.164230  1
  O  O88  1  0.499796  0.598941  0.164183  1
  O  O89  1  0.499715  0.099113  0.206042  1
  O  O90  1  0.500429  0.900639  0.205996  1
  O  O91  1  0.498391  0.249405  0.184987  1
  O  O92  1  0.498239  0.750251  0.184969  1
  O  O93  1  0.914619  0.338258  0.085904  1
  O  O94  1  0.915344  0.663143  0.085859  1
  O  O95  1  0.850338  0.759771  0.220301  1
  O  O96  1  0.850195  0.240557  0.220319  1
  O  O97  1  0.850187  0.740047  0.149648  1
  O  O98  1  0.850286  0.259702  0.149639  1
  O  O99  1  0.819453  0.749894  0.184980  1
  O  O100  1  0.680519  0.249935  0.184970  1
  O  O101  1  0.819445  0.250047  0.184975  1
  O  O102  1  0.680557  0.749984  0.185017  1
  O  O103  1  0.750077  0.749933  0.210967  1
  O  O104  1  0.749957  0.249916  0.210939  1
  O  O105  1  0.750028  0.249799  0.158999  1
  O  O106  1  0.749943  0.749950  0.159025  1
  O  O107  1  0.809176  0.600138  0.206016  1
  O  O108  1  0.690905  0.100125  0.206004  1
  O  O109  1  0.808885  0.399847  0.206006  1
  O  O110  1  0.691108  0.899879  0.206018  1
  O  O111  1  0.690268  0.399719  0.163908  1
  O  O112  1  0.809876  0.899727  0.163957  1
  O  O113  1  0.689973  0.600209  0.163939  1
  O  O114  1  0.809983  0.100118  0.163946  1
  O  O115  1  0.905296  0.908838  0.214712  1
  O  O116  1  0.905347  0.091885  0.214617  1
  O  O117  1  0.904821  0.590825  0.155196  1
  O  O118  1  0.905507  0.407981  0.155424  1
  O  O119  1  0.915346  0.836973  0.247258  1
  O  O120  1  0.914519  0.161911  0.247346  1
  O  O121  1  0.915337  0.663191  0.122717  1
  O  O122  1  0.914763  0.338131  0.122670  1
  O  O123  1  0.949807  0.749722  0.216824  1
  O  O124  1  0.949994  0.250837  0.217407  1
  O  O125  1  0.949676  0.749773  0.153256  1
  O  O126  1  0.950134  0.249109  0.152645  1
  O  O127  1  0.848317  0.000000  0.190767  1
  O  O128  1  0.849173  0.499675  0.179574  1
  O  O129  1  0.749481  -0.000000  0.184491  1
  O  O130  1  0.750648  0.500404  0.184449  1
  O  O131  1  0.949360  0.000000  0.187782  1
  O  O132  1  0.949799  0.500801  0.182074  1
  O  O133  1  -0.000000  0.124592  0.265674  1
  O  O134  1  0.928504  0.000000  0.265678  1
  O  O135  1  0.928453  0.500605  0.104297  1
  O  O136  1  0.000000  0.375567  0.104265  1
  O  O137  1  0.998446  0.249613  0.185052  1
  O  O138  1  -0.000000  0.400812  0.205907  1
  O  O139  1  0.000000  0.900912  0.164071  1
  O  O140  1  0.149841  0.259891  0.381875  1
  O  O141  1  0.149735  0.740196  0.381860  1
  O  O142  1  0.149737  0.239782  0.311169  1
  O  O143  1  0.149825  0.759352  0.311150  1
  O  O144  1  0.319412  0.750103  0.346508  1
  O  O145  1  0.180506  0.250034  0.346519  1
  O  O146  1  0.319452  0.249987  0.346522  1
  O  O147  1  0.180534  0.749916  0.346510  1
  O  O148  1  0.249959  0.750130  0.372478  1
  O  O149  1  0.250040  0.249990  0.372491  1
  O  O150  1  0.249952  0.250450  0.320552  1
  O  O151  1  0.250033  0.750166  0.320544  1
  O  O152  1  0.309260  0.600231  0.367498  1
  O  O153  1  0.190124  0.100239  0.367538  1
  O  O154  1  0.309947  0.399834  0.367577  1
  O  O155  1  0.189964  0.899852  0.367545  1
  O  O156  1  0.190322  0.399765  0.325434  1
  O  O157  1  0.309146  0.899986  0.325485  1
  O  O158  1  0.191138  0.600142  0.325480  1
  O  O159  1  0.308770  0.100296  0.325484  1
  O  O160  1  0.095160  0.408946  0.376290  1
  O  O161  1  0.094686  0.591637  0.376172  1
  O  O162  1  0.094766  0.090834  0.316694  1
  O  O163  1  0.094669  0.907882  0.316882  1
  O  O164  1  0.084712  0.336884  0.408818  1
  O  O165  1  0.085106  0.662193  0.408840  1
  O  O166  1  0.084593  0.163152  0.284189  1
  O  O167  1  0.085435  0.838047  0.284134  1
  O  O168  1  0.050380  0.250067  0.378298  1
  O  O169  1  0.050008  0.750454  0.378682  1
  O  O170  1  0.050328  0.250104  0.314721  1
  O  O171  1  0.050074  0.748927  0.314092  1
  O  O172  1  0.150776  0.500405  0.351927  1
  O  O173  1  0.151708  0.000000  0.340711  1
  O  O174  1  0.250522  -0.000000  0.347008  1
  O  O175  1  0.249345  0.498429  0.346879  1
  O  O176  1  0.049940  0.499540  0.349540  1
  O  O177  1  0.050671  0.000000  0.343677  1
  O  O178  1  0.071622  0.499500  0.427215  1
  O  O179  1  -0.000000  0.599140  0.325645  1
  O  O180  1  -0.000000  0.099085  0.367427  1
  O  O181  1  0.071567  0.000000  0.265783  1
  O  O182  1  0.001098  0.751145  0.346342  1
  O  O183  1  0.000000  0.875374  0.265744  1
  O  O184  1  0.149893  0.759406  0.543349  1
  O  O185  1  0.149789  0.240032  0.543298  1
  O  O186  1  0.149844  0.740209  0.472646  1
  O  O187  1  0.149918  0.259800  0.472614  1
  O  O188  1  0.319560  0.250091  0.507994  1
  O  O189  1  0.180611  0.749988  0.508001  1
  O  O190  1  0.319603  0.750136  0.508002  1
  O  O191  1  0.180584  0.250118  0.507963  1
  O  O192  1  0.250004  0.250240  0.533930  1
  O  O193  1  0.250140  0.750411  0.533953  1
  O  O194  1  0.250059  0.750106  0.482050  1
  O  O195  1  0.250144  0.250307  0.482023  1
  O  O196  1  0.308978  0.100245  0.528963  1
  O  O197  1  0.191359  0.600245  0.529019  1
  O  O198  1  0.309426  0.900013  0.528997  1
  O  O199  1  0.190624  0.399879  0.529023  1
  O  O200  1  0.190039  0.899876  0.486955  1
  O  O201  1  0.310279  0.399940  0.486952  1
  O  O202  1  0.190387  0.100295  0.486962  1
  O  O203  1  0.309579  0.600411  0.486980  1
  O  O204  1  0.094773  0.908060  0.537619  1
  O  O205  1  0.094765  0.091049  0.537748  1
  O  O206  1  0.094507  0.592057  0.478410  1
  O  O207  1  0.095510  0.409232  0.478162  1
  O  O208  1  0.085529  0.838237  0.570363  1
  O  O209  1  0.084909  0.162879  0.570308  1
  O  O210  1  0.085472  0.661785  0.445626  1
  O  O211  1  0.084765  0.336986  0.445682  1
  O  O212  1  0.050101  0.749191  0.540429  1
  O  O213  1  0.050301  0.250176  0.539891  1
  O  O214  1  0.049988  0.750979  0.475565  1
  O  O215  1  0.050443  0.250458  0.476219  1
  O  O216  1  0.151702  0.000000  0.513755  1
  O  O217  1  0.151267  0.500678  0.502494  1
  O  O218  1  0.249737  0.498791  0.507620  1
  O  O219  1  0.250533  -0.000000  0.507539  1
  O  O220  1  0.050662  0.000000  0.510814  1
  O  O221  1  0.050646  0.498965  0.505107  1
  O  O222  1  -0.000000  0.624497  0.427300  1
  O  O223  1  -0.000000  0.099178  0.487055  1
  O  O224  1  0.001875  0.750298  0.508013  1
  O  O225  1  0.000000  0.599139  0.528876  1
  O  O226  1  0.350260  0.759512  0.381828  1
  O  O227  1  0.649861  0.759292  0.381887  1
  O  O228  1  0.350293  0.240139  0.381854  1
  O  O229  1  0.649826  0.240393  0.381832  1
  O  O230  1  0.649857  0.740442  0.311160  1
  O  O231  1  0.350323  0.740419  0.311196  1
  O  O232  1  0.649838  0.259594  0.311150  1
  O  O233  1  0.350229  0.259386  0.311176  1
  O  O234  1  0.594804  0.907951  0.376148  1
  O  O235  1  0.404790  0.908855  0.376213  1
  O  O236  1  0.595353  0.090884  0.376284  1
  O  O237  1  0.405508  0.091724  0.376121  1
  O  O238  1  0.404911  0.590913  0.316738  1
  O  O239  1  0.594761  0.591823  0.316880  1
  O  O240  1  0.405428  0.407835  0.316956  1
  O  O241  1  0.595248  0.408920  0.316741  1
  O  O242  1  0.585590  0.838170  0.408944  1
  O  O243  1  0.415358  0.836905  0.408720  1
  O  O244  1  0.584784  0.162872  0.408777  1
  O  O245  1  0.414791  0.162155  0.408852  1
  O  O246  1  0.415414  0.663144  0.284282  1
  O  O247  1  0.585589  0.661645  0.284103  1
  O  O248  1  0.414599  0.338045  0.284174  1
  O  O249  1  0.584954  0.337393  0.284184  1
  O  O250  1  0.550065  0.749211  0.379020  1
  O  O251  1  0.449764  0.750070  0.378234  1
  O  O252  1  0.550399  0.249721  0.378268  1
  O  O253  1  0.450109  0.250679  0.378824  1
  O  O254  1  0.449785  0.749841  0.314807  1
  O  O255  1  0.550072  0.750621  0.314032  1
  O  O256  1  0.450064  0.248924  0.314074  1
  O  O257  1  0.550371  0.250086  0.314594  1
  O  O258  1  0.349051  0.000000  0.351937  1
  O  O259  1  0.651048  -0.000000  0.351944  1
  O  O260  1  0.650612  0.500174  0.341157  1
  O  O261  1  0.348080  0.500008  0.340740  1
  O  O262  1  0.550481  0.000000  0.349430  1
  O  O263  1  0.449653  -0.000000  0.349358  1
  O  O264  1  0.448912  0.500631  0.343802  1
  O  O265  1  0.549915  0.499416  0.343483  1
  O  O266  1  0.500152  0.624569  0.265801  1
  O  O267  1  0.499892  0.375413  0.265808  1
  O  O268  1  0.428494  0.500362  0.265866  1
  O  O269  1  0.500312  0.900778  0.325581  1
  O  O270  1  0.500123  0.099141  0.325583  1
  O  O271  1  0.500227  0.599180  0.367429  1
  O  O272  1  0.499996  0.400832  0.367421  1
  O  O273  1  0.502207  0.750057  0.346525  1
  O  O274  1  0.498462  0.250330  0.346431  1
  O  O275  1  0.428495  -0.000000  0.427118  1
  O  O276  1  0.500119  0.875421  0.427214  1
  O  O277  1  0.350213  0.259428  0.543359  1
  O  O278  1  0.649723  0.259405  0.543337  1
  O  O279  1  0.350345  0.740456  0.543364  1
  O  O280  1  0.649831  0.740742  0.543369  1
  O  O281  1  0.649816  0.240070  0.472602  1
  O  O282  1  0.350329  0.239832  0.472674  1
  O  O283  1  0.649710  0.760089  0.472674  1
  O  O284  1  0.350224  0.759978  0.472636  1
  O  O285  1  0.594909  0.408373  0.537723  1
  O  O286  1  0.404938  0.408602  0.537758  1
  O  O287  1  0.595607  0.591031  0.537813  1
  O  O288  1  0.405481  0.591684  0.537752  1
  O  O289  1  0.405863  0.091723  0.478423  1
  O  O290  1  0.595080  0.091056  0.478199  1
  O  O291  1  0.405373  0.908590  0.478257  1
  O  O292  1  0.594469  0.908382  0.478428  1
  O  O293  1  0.584711  0.336829  0.570315  1
  O  O294  1  0.414646  0.338055  0.570397  1
  O  O295  1  0.584837  0.662826  0.570291  1
  O  O296  1  0.414802  0.662449  0.570448  1
  O  O297  1  0.414697  0.161621  0.445653  1
  O  O298  1  0.584756  0.163044  0.445647  1
  O  O299  1  0.414731  0.837737  0.445557  1
  O  O300  1  0.584779  0.837686  0.445765  1
  O  O301  1  0.550230  0.249726  0.539851  1
  O  O302  1  0.449945  0.249787  0.540355  1
  O  O303  1  0.550356  0.749373  0.539760  1
  O  O304  1  0.450084  0.750740  0.540397  1
  O  O305  1  0.450102  0.251141  0.475580  1
  O  O306  1  0.550351  0.249989  0.476149  1
  O  O307  1  0.449913  0.749197  0.475581  1
  O  O308  1  0.550175  0.749372  0.476108  1
  O  O309  1  0.348495  0.500600  0.513750  1
  O  O310  1  0.651870  0.499509  0.513717  1
  O  O311  1  0.650941  0.000000  0.502538  1
  O  O312  1  0.349003  0.000000  0.502428  1
  O  O313  1  0.550767  0.500705  0.510947  1
  O  O314  1  0.449509  0.499492  0.510951  1
  O  O315  1  0.449500  0.000000  0.505254  1
  O  O316  1  0.550335  0.000000  0.505161  1
  O  O317  1  0.571558  0.000000  0.427307  1
  O  O318  1  0.571574  0.499672  0.588615  1
  O  O319  1  0.500373  0.400834  0.487215  1
  O  O320  1  0.499796  0.598941  0.487168  1
  O  O321  1  0.499715  0.099113  0.529028  1
  O  O322  1  0.500429  0.900639  0.528981  1
  O  O323  1  0.498391  0.249405  0.507973  1
  O  O324  1  0.498239  0.750251  0.507955  1
  O  O325  1  0.499905  0.124542  0.427238  1
  O  O326  1  0.850253  0.259751  0.381859  1
  O  O327  1  0.850264  0.740021  0.381867  1
  O  O328  1  0.850273  0.239979  0.311141  1
  O  O329  1  0.850241  0.760224  0.311151  1
  O  O330  1  0.819599  0.250001  0.346488  1
  O  O331  1  0.680599  0.749954  0.346519  1
  O  O332  1  0.819608  0.749963  0.346513  1
  O  O333  1  0.680623  0.249961  0.346489  1
  O  O334  1  0.750077  0.249706  0.372446  1
  O  O335  1  0.750077  0.750238  0.372468  1
  O  O336  1  0.750082  0.749485  0.320568  1
  O  O337  1  0.750079  0.250037  0.320532  1
  O  O338  1  0.810077  0.100089  0.367497  1
  O  O339  1  0.691144  0.600122  0.367536  1
  O  O340  1  0.810085  0.899826  0.367509  1
  O  O341  1  0.691102  0.399752  0.367510  1
  O  O342  1  0.691148  0.899690  0.325473  1
  O  O343  1  0.809977  0.399809  0.325443  1
  O  O344  1  0.691016  0.100119  0.325481  1
  O  O345  1  0.810034  0.600234  0.325471  1
  O  O346  1  0.905625  0.407891  0.376108  1
  O  O347  1  0.904951  0.590798  0.376357  1
  O  O348  1  0.905651  0.091704  0.316834  1
  O  O349  1  0.905515  0.908733  0.316730  1
  O  O350  1  0.914619  0.338258  0.408890  1
  O  O351  1  0.915344  0.663143  0.408844  1
  O  O352  1  0.914688  0.161772  0.284105  1
  O  O353  1  0.915073  0.837248  0.284106  1
  O  O354  1  0.950099  0.248909  0.378968  1
  O  O355  1  0.949737  0.749752  0.378316  1
  O  O356  1  0.950071  0.250869  0.314071  1
  O  O357  1  0.949781  0.749396  0.314414  1
  O  O358  1  0.847893  0.499697  0.352372  1
  O  O359  1  0.848343  0.000000  0.340642  1
  O  O360  1  0.749192  0.500006  0.345893  1
  O  O361  1  0.749522  -0.000000  0.346971  1
  O  O362  1  0.948813  0.500713  0.349252  1
  O  O363  1  0.949359  0.000000  0.343716  1
  O  O364  1  0.998195  0.249917  0.346513  1
  O  O365  1  0.000000  0.400910  0.325640  1
  O  O366  1  -0.000000  0.900863  0.367447  1
  O  O367  1  0.850338  0.759771  0.543287  1
  O  O368  1  0.850195  0.240557  0.543304  1
  O  O369  1  0.850187  0.740047  0.472633  1
  O  O370  1  0.850286  0.259702  0.472624  1
  O  O371  1  0.819453  0.749894  0.507965  1
  O  O372  1  0.680519  0.249935  0.507955  1
  O  O373  1  0.819445  0.250047  0.507960  1
  O  O374  1  0.680557  0.749984  0.508003  1
  O  O375  1  0.750077  0.749933  0.533952  1
  O  O376  1  0.749957  0.249916  0.533924  1
  O  O377  1  0.750028  0.249799  0.481985  1
  O  O378  1  0.749943  0.749950  0.482011  1
  O  O379  1  0.809176  0.600138  0.529001  1
  O  O380  1  0.690905  0.100125  0.528989  1
  O  O381  1  0.808885  0.399847  0.528991  1
  O  O382  1  0.691108  0.899879  0.529003  1
  O  O383  1  0.690268  0.399719  0.486893  1
  O  O384  1  0.809876  0.899727  0.486942  1
  O  O385  1  0.689973  0.600209  0.486924  1
  O  O386  1  0.809983  0.100118  0.486932  1
  O  O387  1  0.905296  0.908838  0.537697  1
  O  O388  1  0.905347  0.091885  0.537603  1
  O  O389  1  0.904821  0.590825  0.478182  1
  O  O390  1  0.905507  0.407981  0.478409  1
  O  O391  1  0.915346  0.836973  0.570244  1
  O  O392  1  0.914519  0.161911  0.570331  1
  O  O393  1  0.915337  0.663191  0.445702  1
  O  O394  1  0.914763  0.338131  0.445655  1
  O  O395  1  0.949807  0.749722  0.539810  1
  O  O396  1  0.949994  0.250837  0.540393  1
  O  O397  1  0.949676  0.749773  0.476241  1
  O  O398  1  0.950134  0.249109  0.475630  1
  O  O399  1  0.848317  0.000000  0.513752  1
  O  O400  1  0.849173  0.499675  0.502560  1
  O  O401  1  0.749481  0.000000  0.507476  1
  O  O402  1  0.750648  0.500404  0.507434  1
  O  O403  1  0.949360  -0.000000  0.510767  1
  O  O404  1  0.949799  0.500801  0.505059  1
  O  O405  1  0.000000  0.124592  0.588659  1
  O  O406  1  0.928504  0.000000  0.588664  1
  O  O407  1  0.928453  0.500605  0.427282  1
  O  O408  1  -0.000000  0.375567  0.427251  1
  O  O409  1  0.998446  0.249613  0.508038  1
  O  O410  1  -0.000000  0.400812  0.528893  1
  O  O411  1  -0.000000  0.900912  0.487057  1
  O  O412  1  0.149841  0.259891  0.704861  1
  O  O413  1  0.149735  0.740196  0.704846  1
  O  O414  1  0.149737  0.239782  0.634155  1
  O  O415  1  0.149825  0.759352  0.634135  1
  O  O416  1  0.319412  0.750103  0.669493  1
  O  O417  1  0.180506  0.250034  0.669504  1
  O  O418  1  0.319452  0.249987  0.669507  1
  O  O419  1  0.180534  0.749916  0.669496  1
  O  O420  1  0.249959  0.750130  0.695464  1
  O  O421  1  0.250040  0.249990  0.695476  1
  O  O422  1  0.249952  0.250450  0.643538  1
  O  O423  1  0.250033  0.750166  0.643529  1
  O  O424  1  0.309260  0.600231  0.690483  1
  O  O425  1  0.190124  0.100239  0.690523  1
  O  O426  1  0.309947  0.399834  0.690562  1
  O  O427  1  0.189964  0.899852  0.690530  1
  O  O428  1  0.190322  0.399765  0.648420  1
  O  O429  1  0.309146  0.899986  0.648471  1
  O  O430  1  0.191138  0.600142  0.648465  1
  O  O431  1  0.308770  0.100296  0.648470  1
  O  O432  1  0.095160  0.408946  0.699275  1
  O  O433  1  0.094686  0.591637  0.699158  1
  O  O434  1  0.094766  0.090834  0.639680  1
  O  O435  1  0.094669  0.907882  0.639867  1
  O  O436  1  0.084712  0.336884  0.731804  1
  O  O437  1  0.085106  0.662193  0.731826  1
  O  O438  1  0.084593  0.163152  0.607175  1
  O  O439  1  0.085435  0.838047  0.607119  1
  O  O440  1  0.050380  0.250067  0.701283  1
  O  O441  1  0.050008  0.750454  0.701667  1
  O  O442  1  0.050328  0.250104  0.637707  1
  O  O443  1  0.050074  0.748927  0.637078  1
  O  O444  1  0.150776  0.500405  0.674912  1
  O  O445  1  0.151708  -0.000000  0.663696  1
  O  O446  1  0.250522  -0.000000  0.669993  1
  O  O447  1  0.249345  0.498429  0.669864  1
  O  O448  1  0.049940  0.499540  0.672526  1
  O  O449  1  0.050671  0.000000  0.666662  1
  O  O450  1  0.071622  0.499500  0.750201  1
  O  O451  1  -0.000000  0.599140  0.648631  1
  O  O452  1  0.000000  0.099085  0.690412  1
  O  O453  1  0.071567  0.000000  0.588768  1
  O  O454  1  0.001098  0.751145  0.669327  1
  O  O455  1  -0.000000  0.875374  0.588729  1
  O  O456  1  0.085472  0.661785  0.768612  1
  O  O457  1  0.084765  0.336986  0.768667  1
  O  O458  1  0.000000  0.624497  0.750285  1
  O  O459  1  0.350260  0.759512  0.704814  1
  O  O460  1  0.649861  0.759292  0.704872  1
  O  O461  1  0.350293  0.240139  0.704840  1
  O  O462  1  0.649826  0.240393  0.704817  1
  O  O463  1  0.649857  0.740442  0.634145  1
  O  O464  1  0.350323  0.740419  0.634182  1
  O  O465  1  0.649838  0.259594  0.634135  1
  O  O466  1  0.350229  0.259386  0.634162  1
  O  O467  1  0.594804  0.907951  0.699133  1
  O  O468  1  0.404790  0.908855  0.699199  1
  O  O469  1  0.595353  0.090884  0.699269  1
  O  O470  1  0.405508  0.091724  0.699107  1
  O  O471  1  0.404911  0.590913  0.639723  1
  O  O472  1  0.594761  0.591823  0.639865  1
  O  O473  1  0.405428  0.407835  0.639941  1
  O  O474  1  0.595248  0.408920  0.639726  1
  O  O475  1  0.585590  0.838170  0.731929  1
  O  O476  1  0.415358  0.836905  0.731706  1
  O  O477  1  0.584784  0.162872  0.731762  1
  O  O478  1  0.414791  0.162155  0.731837  1
  O  O479  1  0.415414  0.663144  0.607268  1
  O  O480  1  0.585589  0.661645  0.607089  1
  O  O481  1  0.414599  0.338045  0.607159  1
  O  O482  1  0.584954  0.337393  0.607169  1
  O  O483  1  0.550065  0.749211  0.702005  1
  O  O484  1  0.449764  0.750070  0.701219  1
  O  O485  1  0.550399  0.249721  0.701254  1
  O  O486  1  0.450109  0.250679  0.701809  1
  O  O487  1  0.449785  0.749841  0.637793  1
  O  O488  1  0.550072  0.750621  0.637017  1
  O  O489  1  0.450064  0.248924  0.637060  1
  O  O490  1  0.550371  0.250086  0.637579  1
  O  O491  1  0.349051  -0.000000  0.674922  1
  O  O492  1  0.651048  0.000000  0.674929  1
  O  O493  1  0.650612  0.500174  0.664142  1
  O  O494  1  0.348080  0.500008  0.663725  1
  O  O495  1  0.550481  0.000000  0.672416  1
  O  O496  1  0.449653  0.000000  0.672343  1
  O  O497  1  0.448912  0.500631  0.666788  1
  O  O498  1  0.549915  0.499416  0.666469  1
  O  O499  1  0.500152  0.624569  0.588787  1
  O  O500  1  0.499892  0.375413  0.588793  1
  O  O501  1  0.428494  0.500362  0.588852  1
  O  O502  1  0.500312  0.900778  0.648567  1
  O  O503  1  0.500123  0.099141  0.648568  1
  O  O504  1  0.500227  0.599180  0.690415  1
  O  O505  1  0.499996  0.400832  0.690407  1
  O  O506  1  0.502207  0.750057  0.669511  1
  O  O507  1  0.498462  0.250330  0.669417  1
  O  O508  1  0.850253  0.259751  0.704844  1
  O  O509  1  0.850264  0.740021  0.704853  1
  O  O510  1  0.850273  0.239979  0.634126  1
  O  O511  1  0.850241  0.760224  0.634137  1
  O  O512  1  0.819599  0.250001  0.669474  1
  O  O513  1  0.680599  0.749954  0.669504  1
  O  O514  1  0.819608  0.749963  0.669498  1
  O  O515  1  0.680623  0.249961  0.669475  1
  O  O516  1  0.750077  0.249706  0.695431  1
  O  O517  1  0.750077  0.750238  0.695453  1
  O  O518  1  0.750082  0.749485  0.643553  1
  O  O519  1  0.750079  0.250037  0.643517  1
  O  O520  1  0.810077  0.100089  0.690482  1
  O  O521  1  0.691144  0.600122  0.690522  1
  O  O522  1  0.810085  0.899826  0.690494  1
  O  O523  1  0.691102  0.399752  0.690496  1
  O  O524  1  0.691148  0.899690  0.648459  1
  O  O525  1  0.809977  0.399809  0.648429  1
  O  O526  1  0.691016  0.100119  0.648466  1
  O  O527  1  0.810034  0.600234  0.648456  1
  O  O528  1  0.905625  0.407891  0.699093  1
  O  O529  1  0.904951  0.590798  0.699343  1
  O  O530  1  0.905651  0.091704  0.639819  1
  O  O531  1  0.905515  0.908733  0.639715  1
  O  O532  1  0.914619  0.338258  0.731875  1
  O  O533  1  0.915344  0.663143  0.731830  1
  O  O534  1  0.914688  0.161772  0.607091  1
  O  O535  1  0.915073  0.837248  0.607092  1
  O  O536  1  0.950099  0.248909  0.701953  1
  O  O537  1  0.949737  0.749752  0.701302  1
  O  O538  1  0.950071  0.250869  0.637056  1
  O  O539  1  0.949781  0.749396  0.637400  1
  O  O540  1  0.847893  0.499697  0.675358  1
  O  O541  1  0.848343  0.000000  0.663627  1
  O  O542  1  0.749192  0.500006  0.668879  1
  O  O543  1  0.749522  -0.000000  0.669956  1
  O  O544  1  0.948813  0.500713  0.672238  1
  O  O545  1  0.949359  -0.000000  0.666701  1
  O  O546  1  0.998195  0.249917  0.669498  1
  O  O547  1  0.000000  0.400910  0.648626  1
  O  O548  1  -0.000000  0.900863  0.690433  1
  O  O549  1  0.915337  0.663191  0.768688  1
  O  O550  1  0.914763  0.338131  0.768640  1
  O  O551  1  0.928453  0.500605  0.750267  1
  O  O552  1  0.000000  0.375567  0.750236  1
  Si  Si553  1  0.000000  0.787458  0.163549  1
  Si  Si554  1  0.307524  0.214571  0.206326  1
  Si  Si555  1  0.192654  0.714587  0.206344  1
  Si  Si556  1  0.307736  0.785666  0.206348  1
  Si  Si557  1  0.192413  0.285511  0.206321  1
  Si  Si558  1  0.192440  0.785502  0.163677  1
  Si  Si559  1  0.307778  0.285549  0.163668  1
  Si  Si560  1  0.192579  0.214656  0.163652  1
  Si  Si561  1  0.307641  0.714734  0.163685  1
  Si  Si562  1  0.096456  0.810563  0.225693  1
  Si  Si563  1  0.096215  0.189197  0.225585  1
  Si  Si564  1  0.096301  0.689467  0.144332  1
  Si  Si565  1  0.096363  0.310893  0.144421  1
  Si  Si566  1  0.304856  0.500109  0.174737  1
  Si  Si567  1  0.195314  -0.000000  0.174729  1
  Si  Si568  1  0.195613  0.500037  0.195248  1
  Si  Si569  1  0.304640  -0.000000  0.195182  1
  Si  Si570  1  0.098395  -0.000000  0.201923  1
  Si  Si571  1  0.098471  0.500279  0.168095  1
  Si  Si572  1  0.061407  0.611456  0.104257  1
  Si  Si573  1  0.061127  0.387634  0.104263  1
  Si  Si574  1  0.000000  0.499954  0.194945  1
  Si  Si575  1  0.000000  -0.000000  0.175055  1
  Si  Si576  1  0.000000  0.712552  0.206466  1
  Si  Si577  1  0.000000  0.212643  0.163561  1
  Si  Si578  1  0.561364  0.611642  0.265706  1
  Si  Si579  1  0.499997  0.000000  0.195076  1
  Si  Si580  1  0.596165  0.310378  0.225610  1
  Si  Si581  1  0.403586  0.310779  0.225715  1
  Si  Si582  1  0.596381  0.689289  0.225599  1
  Si  Si583  1  0.403800  0.689445  0.225742  1
  Si  Si584  1  0.403908  0.189206  0.144367  1
  Si  Si585  1  0.596208  0.189223  0.144394  1
  Si  Si586  1  0.403722  0.810817  0.144294  1
  Si  Si587  1  0.596020  0.810659  0.144478  1
  Si  Si588  1  0.598700  0.499824  0.201968  1
  Si  Si589  1  0.401663  0.500151  0.202001  1
  Si  Si590  1  0.401949  -0.000000  0.168116  1
  Si  Si591  1  0.598154  0.000000  0.168141  1
  Si  Si592  1  0.500122  0.499939  0.175208  1
  Si  Si593  1  0.499914  0.787184  0.206462  1
  Si  Si594  1  0.499707  0.212598  0.206494  1
  Si  Si595  1  0.499666  0.712363  0.163540  1
  Si  Si596  1  0.499948  0.287441  0.163572  1
  Si  Si597  1  0.901855  0.499750  0.168105  1
  Si  Si598  1  0.901666  0.000000  0.201897  1
  Si  Si599  1  0.807618  0.714490  0.206322  1
  Si  Si600  1  0.692409  0.214465  0.206309  1
  Si  Si601  1  0.807475  0.285508  0.206306  1
  Si  Si602  1  0.692557  0.785547  0.206341  1
  Si  Si603  1  0.692451  0.285338  0.163629  1
  Si  Si604  1  0.807543  0.785372  0.163648  1
  Si  Si605  1  0.692343  0.714583  0.163668  1
  Si  Si606  1  0.807634  0.214473  0.163639  1
  Si  Si607  1  0.903925  0.810677  0.225532  1
  Si  Si608  1  0.903636  0.189458  0.225653  1
  Si  Si609  1  0.903804  0.689187  0.144448  1
  Si  Si610  1  0.903841  0.310510  0.144353  1
  Si  Si611  1  0.804760  0.000000  0.174704  1
  Si  Si612  1  0.695377  0.499940  0.174656  1
  Si  Si613  1  0.695496  -0.000000  0.195207  1
  Si  Si614  1  0.804574  0.500011  0.195208  1
  Si  Si615  1  0.938966  0.887643  0.265690  1
  Si  Si616  1  0.000000  0.287399  0.206488  1
  Si  Si617  1  0.938662  0.388657  0.104283  1
  Si  Si618  1  0.938638  0.111441  0.265704  1
  Si  Si619  1  0.938953  0.612460  0.104292  1
  Si  Si620  1  -0.000000  0.712495  0.324966  1
  Si  Si621  1  0.307484  0.714535  0.367832  1
  Si  Si622  1  0.192443  0.214593  0.367852  1
  Si  Si623  1  0.307635  0.285439  0.367866  1
  Si  Si624  1  0.192343  0.785491  0.367848  1
  Si  Si625  1  0.192299  0.285404  0.325168  1
  Si  Si626  1  0.307578  0.785638  0.325174  1
  Si  Si627  1  0.192534  0.714467  0.325180  1
  Si  Si628  1  0.307434  0.214640  0.325186  1
  Si  Si629  1  0.096233  0.310744  0.387092  1
  Si  Si630  1  0.096180  0.689370  0.387142  1
  Si  Si631  1  0.096086  0.189137  0.305928  1
  Si  Si632  1  0.096363  0.810397  0.305819  1
  Si  Si633  1  0.304496  0.000000  0.336284  1
  Si  Si634  1  0.195251  0.499880  0.336241  1
  Si  Si635  1  0.195234  -0.000000  0.356787  1
  Si  Si636  1  0.304465  0.499908  0.356778  1
  Si  Si637  1  0.098099  0.500123  0.363413  1
  Si  Si638  1  0.098378  0.000000  0.329567  1
  Si  Si639  1  0.000000  0.000000  0.356446  1
  Si  Si640  1  0.061436  0.888553  0.265758  1
  Si  Si641  1  -0.000000  0.787366  0.367890  1
  Si  Si642  1  0.061095  0.112383  0.265745  1
  Si  Si643  1  0.000000  0.787458  0.486535  1
  Si  Si644  1  0.307524  0.214571  0.529312  1
  Si  Si645  1  0.192654  0.714587  0.529329  1
  Si  Si646  1  0.307736  0.785666  0.529333  1
  Si  Si647  1  0.192413  0.285511  0.529306  1
  Si  Si648  1  0.192440  0.785502  0.486663  1
  Si  Si649  1  0.307778  0.285549  0.486654  1
  Si  Si650  1  0.192579  0.214656  0.486637  1
  Si  Si651  1  0.307641  0.714734  0.486670  1
  Si  Si652  1  0.096456  0.810563  0.548678  1
  Si  Si653  1  0.096215  0.189197  0.548571  1
  Si  Si654  1  0.096301  0.689467  0.467317  1
  Si  Si655  1  0.096363  0.310893  0.467406  1
  Si  Si656  1  0.304856  0.500109  0.497723  1
  Si  Si657  1  0.195314  -0.000000  0.497714  1
  Si  Si658  1  0.195613  0.500037  0.518233  1
  Si  Si659  1  0.304640  0.000000  0.518167  1
  Si  Si660  1  0.098395  0.000000  0.524909  1
  Si  Si661  1  0.098471  0.500279  0.491080  1
  Si  Si662  1  0.061407  0.611456  0.427243  1
  Si  Si663  1  0.061127  0.387634  0.427248  1
  Si  Si664  1  0.000000  0.499954  0.517931  1
  Si  Si665  1  -0.000000  -0.000000  0.498040  1
  Si  Si666  1  0.000000  0.712552  0.529451  1
  Si  Si667  1  -0.000000  0.212643  0.486547  1
  Si  Si668  1  0.499729  0.500031  0.356458  1
  Si  Si669  1  0.596470  0.810544  0.387244  1
  Si  Si670  1  0.403828  0.810623  0.387005  1
  Si  Si671  1  0.596316  0.189167  0.387054  1
  Si  Si672  1  0.403841  0.189339  0.387145  1
  Si  Si673  1  0.403881  0.689308  0.306004  1
  Si  Si674  1  0.596453  0.689259  0.305800  1
  Si  Si675  1  0.403704  0.310415  0.305860  1
  Si  Si676  1  0.596351  0.310829  0.305902  1
  Si  Si677  1  0.598374  -0.000000  0.363425  1
  Si  Si678  1  0.401800  -0.000000  0.363371  1
  Si  Si679  1  0.401404  0.499729  0.329605  1
  Si  Si680  1  0.598060  0.500152  0.329610  1
  Si  Si681  1  0.500137  0.000000  0.336541  1
  Si  Si682  1  0.438904  0.612223  0.265858  1
  Si  Si683  1  0.499953  0.287358  0.367919  1
  Si  Si684  1  0.500423  0.787322  0.325056  1
  Si  Si685  1  0.499966  0.212565  0.324996  1
  Si  Si686  1  0.500408  0.712625  0.367983  1
  Si  Si687  1  0.438866  0.887773  0.427147  1
  Si  Si688  1  0.438674  0.388429  0.265800  1
  Si  Si689  1  0.438699  0.111547  0.427231  1
  Si  Si690  1  0.561152  0.112272  0.427221  1
  Si  Si691  1  0.561147  0.387772  0.265747  1
  Si  Si692  1  0.561364  0.611642  0.588691  1
  Si  Si693  1  0.499997  -0.000000  0.518062  1
  Si  Si694  1  0.596165  0.310378  0.548596  1
  Si  Si695  1  0.403586  0.310779  0.548700  1
  Si  Si696  1  0.596381  0.689289  0.548585  1
  Si  Si697  1  0.403800  0.689445  0.548727  1
  Si  Si698  1  0.403908  0.189206  0.467353  1
  Si  Si699  1  0.596208  0.189223  0.467379  1
  Si  Si700  1  0.403722  0.810817  0.467280  1
  Si  Si701  1  0.596020  0.810659  0.467463  1
  Si  Si702  1  0.598700  0.499824  0.524953  1
  Si  Si703  1  0.401663  0.500151  0.524987  1
  Si  Si704  1  0.401949  0.000000  0.491101  1
  Si  Si705  1  0.598154  0.000000  0.491127  1
  Si  Si706  1  0.500122  0.499939  0.498194  1
  Si  Si707  1  0.499914  0.787184  0.529448  1
  Si  Si708  1  0.561333  0.888408  0.427313  1
  Si  Si709  1  0.499707  0.212598  0.529479  1
  Si  Si710  1  0.499666  0.712363  0.486526  1
  Si  Si711  1  0.499948  0.287441  0.486557  1
  Si  Si712  1  -0.000000  0.212512  0.367975  1
  Si  Si713  1  -0.000000  0.287483  0.325063  1
  Si  Si714  1  0.807708  0.214445  0.367820  1
  Si  Si715  1  0.692577  0.714481  0.367847  1
  Si  Si716  1  0.807710  0.785476  0.367845  1
  Si  Si717  1  0.692569  0.285399  0.367818  1
  Si  Si718  1  0.692585  0.785323  0.325184  1
  Si  Si719  1  0.807696  0.285426  0.325149  1
  Si  Si720  1  0.692547  0.214474  0.325162  1
  Si  Si721  1  0.807756  0.714554  0.325172  1
  Si  Si722  1  0.903792  0.310487  0.387204  1
  Si  Si723  1  0.903850  0.689155  0.387109  1
  Si  Si724  1  0.903820  0.189274  0.305801  1
  Si  Si725  1  0.903863  0.810760  0.305839  1
  Si  Si726  1  0.804593  0.499979  0.336203  1
  Si  Si727  1  0.695530  -0.000000  0.336262  1
  Si  Si728  1  0.695372  0.499967  0.356721  1
  Si  Si729  1  0.804834  0.000000  0.356728  1
  Si  Si730  1  0.901324  0.499724  0.363461  1
  Si  Si731  1  0.901769  0.000000  0.329554  1
  Si  Si732  1  -0.000000  0.500048  0.336612  1
  Si  Si733  1  0.901855  0.499750  0.491091  1
  Si  Si734  1  0.901666  -0.000000  0.524882  1
  Si  Si735  1  0.807618  0.714490  0.529308  1
  Si  Si736  1  0.692409  0.214465  0.529295  1
  Si  Si737  1  0.807475  0.285508  0.529291  1
  Si  Si738  1  0.692557  0.785547  0.529327  1
  Si  Si739  1  0.692451  0.285338  0.486614  1
  Si  Si740  1  0.807543  0.785372  0.486633  1
  Si  Si741  1  0.692343  0.714583  0.486653  1
  Si  Si742  1  0.807634  0.214473  0.486625  1
  Si  Si743  1  0.903925  0.810677  0.548517  1
  Si  Si744  1  0.903636  0.189458  0.548638  1
  Si  Si745  1  0.903804  0.689187  0.467434  1
  Si  Si746  1  0.903841  0.310510  0.467338  1
  Si  Si747  1  0.804760  0.000000  0.497689  1
  Si  Si748  1  0.695377  0.499940  0.497642  1
  Si  Si749  1  0.695496  0.000000  0.518193  1
  Si  Si750  1  0.804574  0.500011  0.518193  1
  Si  Si751  1  0.938966  0.887643  0.588676  1
  Si  Si752  1  -0.000000  0.287399  0.529473  1
  Si  Si753  1  0.938662  0.388657  0.427269  1
  Si  Si754  1  0.938638  0.111441  0.588689  1
  Si  Si755  1  0.938953  0.612460  0.427278  1
  Si  Si756  1  0.000000  0.712495  0.647952  1
  Si  Si757  1  0.307484  0.714535  0.690817  1
  Si  Si758  1  0.192443  0.214593  0.690838  1
  Si  Si759  1  0.307635  0.285439  0.690851  1
  Si  Si760  1  0.192343  0.785491  0.690833  1
  Si  Si761  1  0.192299  0.285404  0.648154  1
  Si  Si762  1  0.307578  0.785638  0.648159  1
  Si  Si763  1  0.192534  0.714467  0.648165  1
  Si  Si764  1  0.307434  0.214640  0.648172  1
  Si  Si765  1  0.096233  0.310744  0.710077  1
  Si  Si766  1  0.096180  0.689370  0.710127  1
  Si  Si767  1  0.096086  0.189137  0.628913  1
  Si  Si768  1  0.096363  0.810397  0.628805  1
  Si  Si769  1  0.304496  -0.000000  0.659269  1
  Si  Si770  1  0.195251  0.499880  0.659227  1
  Si  Si771  1  0.195234  0.000000  0.679772  1
  Si  Si772  1  0.304465  0.499908  0.679764  1
  Si  Si773  1  0.098099  0.500123  0.686399  1
  Si  Si774  1  0.098378  0.000000  0.652552  1
  Si  Si775  1  -0.000000  -0.000000  0.679432  1
  Si  Si776  1  0.061436  0.888553  0.588743  1
  Si  Si777  1  -0.000000  0.787366  0.690875  1
  Si  Si778  1  0.061095  0.112383  0.588730  1
  Si  Si779  1  0.061407  0.611456  0.750228  1
  Si  Si780  1  0.061127  0.387634  0.750233  1
  Si  Si781  1  0.499729  0.500031  0.679443  1
  Si  Si782  1  0.596470  0.810544  0.710230  1
  Si  Si783  1  0.403828  0.810623  0.709991  1
  Si  Si784  1  0.596316  0.189167  0.710040  1
  Si  Si785  1  0.403841  0.189339  0.710131  1
  Si  Si786  1  0.403881  0.689308  0.628989  1
  Si  Si787  1  0.596453  0.689259  0.628785  1
  Si  Si788  1  0.403704  0.310415  0.628846  1
  Si  Si789  1  0.596351  0.310829  0.628888  1
  Si  Si790  1  0.598374  0.000000  0.686410  1
  Si  Si791  1  0.401800  0.000000  0.686357  1
  Si  Si792  1  0.401404  0.499729  0.652591  1
  Si  Si793  1  0.598060  0.500152  0.652596  1
  Si  Si794  1  0.500137  -0.000000  0.659527  1
  Si  Si795  1  0.438904  0.612223  0.588843  1
  Si  Si796  1  0.499953  0.287358  0.690904  1
  Si  Si797  1  0.500423  0.787322  0.648042  1
  Si  Si798  1  0.499966  0.212565  0.647981  1
  Si  Si799  1  0.500408  0.712625  0.690968  1
  Si  Si800  1  0.438674  0.388429  0.588785  1
  Si  Si801  1  0.561147  0.387772  0.588732  1
  Si  Si802  1  -0.000000  0.212512  0.690960  1
  Si  Si803  1  -0.000000  0.287483  0.648048  1
  Si  Si804  1  0.807708  0.214445  0.690805  1
  Si  Si805  1  0.692577  0.714481  0.690833  1
  Si  Si806  1  0.807710  0.785476  0.690830  1
  Si  Si807  1  0.692569  0.285399  0.690804  1
  Si  Si808  1  0.692585  0.785323  0.648170  1
  Si  Si809  1  0.807696  0.285426  0.648134  1
  Si  Si810  1  0.692547  0.214474  0.648148  1
  Si  Si811  1  0.807756  0.714554  0.648157  1
  Si  Si812  1  0.903792  0.310487  0.710189  1
  Si  Si813  1  0.903850  0.689155  0.710094  1
  Si  Si814  1  0.903820  0.189274  0.628786  1
  Si  Si815  1  0.903863  0.810760  0.628825  1
  Si  Si816  1  0.804593  0.499979  0.659188  1
  Si  Si817  1  0.695530  0.000000  0.659248  1
  Si  Si818  1  0.695372  0.499967  0.679706  1
  Si  Si819  1  0.804834  0.000000  0.679714  1
  Si  Si820  1  0.901324  0.499724  0.686446  1
  Si  Si821  1  0.901769  0.000000  0.652539  1
  Si  Si822  1  -0.000000  0.500048  0.659597  1
  Si  Si823  1  0.938662  0.388657  0.750254  1
  Si  Si824  1  0.938953  0.612460  0.750263  1
  H  H825  1  0.084712  0.336884  0.072740  1
  H  H826  1  0.085106  0.662193  0.072762  1
  H  H827  1  0.414697  0.161621  0.109575  1
  H  H828  1  0.584756  0.163044  0.109569  1
  H  H829  1  0.414731  0.837737  0.109478  1
  H  H830  1  0.584779  0.837686  0.109686  1
  H  H831  1  0.914619  0.338258  0.072811  1
  H  H832  1  0.915344  0.663143  0.072766  1
  H  H833  1  0.085472  0.661785  0.781705  1
  H  H834  1  0.084765  0.336986  0.781760  1
  H  H835  1  0.585590  0.838170  0.745022  1
  H  H836  1  0.415358  0.836905  0.744799  1
  H  H837  1  0.584784  0.162872  0.744855  1
  H  H838  1  0.414791  0.162155  0.744930  1
  H  H839  1  0.915337  0.663191  0.781781  1
  H  H840  1  0.914763  0.338131  0.781734  1
