# generated using pymatgen
data_Si23H2O47
_symmetry_space_group_name_H-M   'P 1'
_cell_length_a   15.08014935
_cell_length_b   13.75080220
_cell_length_c   68.56022347
_cell_angle_alpha   90.00000000
_cell_angle_beta   90.00000000
_cell_angle_gamma   90.00000000
_symmetry_Int_Tables_number   1
_chemical_formula_structural   Si23H2O47
_chemical_formula_sum   'Si184 H16 O376'
_cell_volume   14216.9325218
_cell_formula_units_Z   8
loop_
 _symmetry_equiv_pos_site_id
 _symmetry_equiv_pos_as_xyz
  1  'x, y, z'
loop_
 _atom_site_type_symbol
 _atom_site_label
 _atom_site_symmetry_multiplicity
 _atom_site_fract_x
 _atom_site_fract_y
 _atom_site_fract_z
 _atom_site_occupancy
  O  O1  1  0.083114  0.254446  0.153901  1
  O  O2  1  0.419144  0.755614  0.153024  1
  O  O3  1  0.414974  0.246142  0.154224  1
  O  O4  1  0.088117  0.745326  0.156011  1
  O  O5  1  0.146077  0.346535  0.086462  1
  O  O6  1  0.142759  0.340997  0.124156  1
  O  O7  1  0.353167  0.846309  0.086160  1
  O  O8  1  0.354574  0.843852  0.123890  1
  O  O9  1  0.356610  0.159232  0.124393  1
  O  O10  1  0.362298  0.161765  0.086506  1
  O  O11  1  0.141272  0.657369  0.125747  1
  O  O12  1  0.141913  0.660783  0.087858  1
  O  O13  1  0.249263  0.250066  0.147207  1
  O  O14  1  0.252229  0.749652  0.147354  1
  O  O15  1  0.175138  0.407412  0.157587  1
  O  O16  1  0.325778  0.907167  0.157675  1
  O  O17  1  0.322791  0.093099  0.157869  1
  O  O18  1  0.118123  0.501411  0.106176  1
  O  O19  1  0.381361  0.002512  0.105276  1
  O  O20  1  0.001548  0.372714  0.104858  1
  O  O21  1  0.496994  0.872763  0.104968  1
  O  O22  1  0.181476  0.593177  0.159102  1
  O  O23  1  0.588628  0.754347  0.155799  1
  O  O24  1  0.913434  0.255345  0.154770  1
  O  O25  1  0.918674  0.744648  0.153320  1
  O  O26  1  0.584539  0.244614  0.154868  1
  O  O27  1  0.640386  0.840937  0.086665  1
  O  O28  1  0.636672  0.837833  0.124566  1
  O  O29  1  0.858881  0.341641  0.086056  1
  O  O30  1  0.860496  0.339882  0.123957  1
  O  O31  1  0.854160  0.653564  0.124606  1
  O  O32  1  0.859497  0.659319  0.086889  1
  O  O33  1  0.643631  0.154155  0.125413  1
  O  O34  1  0.644333  0.156218  0.087695  1
  O  O35  1  0.752671  0.755914  0.146699  1
  O  O36  1  0.748712  0.255656  0.146812  1
  O  O37  1  0.675734  0.911214  0.157168  1
  O  O38  1  0.825932  0.411835  0.156820  1
  O  O39  1  0.820467  0.597737  0.158866  1
  O  O40  1  0.501154  0.127201  0.106358  1
  O  O41  1  0.616917  0.997485  0.106111  1
  O  O42  1  0.882780  0.498682  0.105111  1
  O  O43  1  0.000000  0.627396  0.106529  1
  O  O44  1  0.088028  0.755223  0.216222  1
  O  O45  1  0.415186  0.254235  0.218018  1
  O  O46  1  0.418708  0.744472  0.218573  1
  O  O47  1  0.083559  0.246250  0.217756  1
  O  O48  1  0.139066  0.839910  0.247113  1
  O  O49  1  0.358667  0.338417  0.248420  1
  O  O50  1  0.352873  0.652518  0.247026  1
  O  O51  1  0.144913  0.155506  0.246754  1
  O  O52  1  0.252440  0.755464  0.224772  1
  O  O53  1  0.249160  0.255398  0.224803  1
  O  O54  1  0.176707  0.911315  0.214279  1
  O  O55  1  0.328208  0.411542  0.215433  1
  O  O56  1  0.320569  0.597353  0.212697  1
  O  O57  1  0.180052  0.097619  0.212721  1
  O  O58  1  0.250098  0.490541  0.186411  1
  O  O59  1  0.246132  0.996996  0.184950  1
  O  O60  1  0.417377  0.500046  0.190291  1
  O  O61  1  0.414212  0.001203  0.182158  1
  O  O62  1  0.079976  0.001103  0.190690  1
  O  O63  1  0.083193  0.499677  0.181804  1
  O  O64  1  0.118112  0.998984  0.265845  1
  O  O65  1  0.001314  0.127372  0.265536  1
  O  O66  1  0.492644  0.750423  0.185841  1
  O  O67  1  0.496345  0.250439  0.186097  1
  O  O68  1  0.497445  0.627405  0.265461  1
  O  O69  1  0.000000  0.599453  0.206632  1
  O  O70  1  0.002391  0.250426  0.185859  1
  O  O71  1  0.499980  0.900846  0.206465  1
  O  O72  1  0.584881  0.255129  0.217254  1
  O  O73  1  0.918556  0.755012  0.218848  1
  O  O74  1  0.914016  0.244222  0.217074  1
  O  O75  1  0.588159  0.745621  0.215985  1
  O  O76  1  0.640788  0.341608  0.247511  1
  O  O77  1  0.856462  0.842344  0.248310  1
  O  O78  1  0.857517  0.156968  0.247238  1
  O  O79  1  0.639862  0.659641  0.246631  1
  O  O80  1  0.749734  0.250574  0.225046  1
  O  O81  1  0.751922  0.750209  0.224971  1
  O  O82  1  0.676774  0.407727  0.214240  1
  O  O83  1  0.826204  0.907378  0.214680  1
  O  O84  1  0.820212  0.092937  0.213737  1
  O  O85  1  0.681047  0.593383  0.213440  1
  O  O86  1  0.746407  0.992963  0.186802  1
  O  O87  1  0.750174  0.494140  0.185685  1
  O  O88  1  0.914075  0.000000  0.189925  1
  O  O89  1  0.917287  0.501147  0.181506  1
  O  O90  1  0.583330  0.500725  0.190374  1
  O  O91  1  0.580213  0.000000  0.181107  1
  O  O92  1  0.500229  0.099480  0.206630  1
  O  O93  1  0.000000  0.900784  0.165458  1
  O  O94  1  0.682005  0.097088  0.159341  1
  O  O95  1  0.998987  0.099529  0.165302  1
  O  O96  1  0.616863  0.502328  0.265675  1
  O  O97  1  0.992542  0.750390  0.186099  1
  O  O98  1  0.500551  0.400752  0.165451  1
  O  O99  1  0.998497  0.400729  0.206534  1
  O  O100  1  0.500079  0.599360  0.165341  1
  O  O101  1  0.083995  0.754606  0.314497  1
  O  O102  1  0.411814  0.254907  0.316783  1
  O  O103  1  0.416559  0.745427  0.314266  1
  O  O104  1  0.081257  0.245343  0.313914  1
  O  O105  1  0.144393  0.842889  0.285015  1
  O  O106  1  0.359037  0.341717  0.286331  1
  O  O107  1  0.355924  0.658022  0.284731  1
  O  O108  1  0.143520  0.158055  0.284447  1
  O  O109  1  0.250030  0.749492  0.307810  1
  O  O110  1  0.248049  0.249345  0.307924  1
  O  O111  1  0.177561  0.906347  0.318777  1
  O  O112  1  0.317973  0.406704  0.319597  1
  O  O113  1  0.324424  0.592659  0.318311  1
  O  O114  1  0.173081  0.092155  0.317949  1
  O  O115  1  0.253009  0.005376  0.345635  1
  O  O116  1  0.252928  0.508600  0.347471  1
  O  O117  1  0.419352  0.000000  0.351154  1
  O  O118  1  0.419228  0.499408  0.341874  1
  O  O119  1  0.085180  0.499080  0.350430  1
  O  O120  1  0.085108  -0.000000  0.342667  1
  O  O121  1  0.499754  0.599396  0.367108  1
  O  O122  1  0.319149  0.902222  0.373075  1
  O  O123  1  0.381470  0.497867  0.266765  1
  O  O124  1  0.005212  0.749608  0.346702  1
  O  O125  1  0.005498  0.249672  0.346454  1
  O  O126  1  0.495431  0.749784  0.346440  1
  O  O127  1  0.581114  0.255527  0.313734  1
  O  O128  1  0.914441  0.755015  0.315852  1
  O  O129  1  0.911595  0.245161  0.316106  1
  O  O130  1  0.586275  0.744577  0.315588  1
  O  O131  1  0.646206  0.347588  0.285201  1
  O  O132  1  0.857623  0.844104  0.286038  1
  O  O133  1  0.861480  0.160594  0.285152  1
  O  O134  1  0.638295  0.661213  0.284546  1
  O  O135  1  0.747313  0.244836  0.307343  1
  O  O136  1  0.750755  0.744569  0.307352  1
  O  O137  1  0.678851  0.402446  0.319553  1
  O  O138  1  0.817581  0.903336  0.319717  1
  O  O139  1  0.823132  0.089309  0.317993  1
  O  O140  1  0.673843  0.588121  0.317270  1
  O  O141  1  0.753080  0.506170  0.345760  1
  O  O142  1  0.753017  0.005359  0.347449  1
  O  O143  1  0.919233  0.500411  0.351470  1
  O  O144  1  0.919129  0.998704  0.341703  1
  O  O145  1  0.585270  0.998847  0.350502  1
  O  O146  1  0.585264  0.500298  0.342599  1
  O  O147  1  0.998644  0.400744  0.325975  1
  O  O148  1  0.500783  0.372821  0.267147  1
  O  O149  1  -0.000000  0.599348  0.326058  1
  O  O150  1  -0.000000  0.099159  0.367041  1
  O  O151  1  0.882799  0.001057  0.266766  1
  O  O152  1  0.000000  0.872629  0.266895  1
  O  O153  1  -0.000000  0.900587  0.367196  1
  O  O154  1  0.508776  0.249575  0.346680  1
  O  O155  1  0.500265  0.900472  0.325826  1
  O  O156  1  0.500228  0.400681  0.367187  1
  O  O157  1  0.500447  0.099279  0.325992  1
  O  O158  1  0.081207  0.255229  0.378995  1
  O  O159  1  0.083114  0.254446  0.475071  1
  O  O160  1  0.416674  0.754835  0.378647  1
  O  O161  1  0.419144  0.755614  0.474194  1
  O  O162  1  0.414974  0.246142  0.475394  1
  O  O163  1  0.411381  0.245259  0.376511  1
  O  O164  1  0.088117  0.745326  0.477181  1
  O  O165  1  0.084517  0.745766  0.378819  1
  O  O166  1  0.146077  0.346535  0.407632  1
  O  O167  1  0.142759  0.340997  0.445327  1
  O  O168  1  0.353167  0.846309  0.407330  1
  O  O169  1  0.354574  0.843852  0.445060  1
  O  O170  1  0.356610  0.159232  0.445563  1
  O  O171  1  0.362298  0.161765  0.407676  1
  O  O172  1  0.141272  0.657369  0.446917  1
  O  O173  1  0.141913  0.660783  0.409028  1
  O  O174  1  0.247227  0.244168  0.385435  1
  O  O175  1  0.249263  0.250066  0.468378  1
  O  O176  1  0.250782  0.744282  0.385325  1
  O  O177  1  0.252229  0.749652  0.468524  1
  O  O178  1  0.175138  0.407412  0.478757  1
  O  O179  1  0.325778  0.907167  0.478845  1
  O  O180  1  0.322791  0.093099  0.479039  1
  O  O181  1  0.323798  0.088369  0.375084  1
  O  O182  1  0.171269  0.588299  0.375960  1
  O  O183  1  0.118123  0.501411  0.427346  1
  O  O184  1  0.381361  0.002512  0.426446  1
  O  O185  1  0.001548  0.372714  0.426028  1
  O  O186  1  0.496994  0.872763  0.426138  1
  O  O187  1  0.181476  0.593177  0.480272  1
  O  O188  1  0.179428  0.402530  0.373426  1
  O  O189  1  0.586220  0.754951  0.377309  1
  O  O190  1  0.588628  0.754347  0.476970  1
  O  O191  1  0.911657  0.254410  0.376830  1
  O  O192  1  0.913434  0.255345  0.475940  1
  O  O193  1  0.918674  0.744648  0.474490  1
  O  O194  1  0.914869  0.744863  0.377625  1
  O  O195  1  0.584539  0.244614  0.476038  1
  O  O196  1  0.580717  0.244811  0.379680  1
  O  O197  1  0.640386  0.840937  0.407835  1
  O  O198  1  0.636672  0.837833  0.445736  1
  O  O199  1  0.858881  0.341641  0.407226  1
  O  O200  1  0.860496  0.339882  0.445127  1
  O  O201  1  0.854160  0.653564  0.445776  1
  O  O202  1  0.859497  0.659319  0.408059  1
  O  O203  1  0.643631  0.154155  0.446583  1
  O  O204  1  0.644333  0.156218  0.408865  1
  O  O205  1  0.750373  0.750477  0.385638  1
  O  O206  1  0.752671  0.755914  0.467869  1
  O  O207  1  0.747548  0.250309  0.385534  1
  O  O208  1  0.748712  0.255656  0.467982  1
  O  O209  1  0.678389  0.907702  0.374609  1
  O  O210  1  0.675734  0.911214  0.478338  1
  O  O211  1  0.818969  0.406676  0.373870  1
  O  O212  1  0.825932  0.411835  0.477990  1
  O  O213  1  0.820467  0.597737  0.480036  1
  O  O214  1  0.822363  0.592609  0.374861  1
  O  O215  1  0.501154  0.127201  0.427528  1
  O  O216  1  0.673644  0.093303  0.375031  1
  O  O217  1  0.616917  0.997485  0.427281  1
  O  O218  1  0.882780  0.498682  0.426281  1
  O  O219  1  0.000000  0.627396  0.427699  1
  O  O220  1  0.088028  0.755223  0.537392  1
  O  O221  1  0.415186  0.254235  0.539188  1
  O  O222  1  0.418708  0.744472  0.539743  1
  O  O223  1  0.083559  0.246250  0.538926  1
  O  O224  1  0.139066  0.839910  0.568283  1
  O  O225  1  0.358667  0.338417  0.569590  1
  O  O226  1  0.352873  0.652518  0.568196  1
  O  O227  1  0.144913  0.155506  0.567924  1
  O  O228  1  0.252440  0.755464  0.545942  1
  O  O229  1  0.249160  0.255398  0.545974  1
  O  O230  1  0.176707  0.911315  0.535449  1
  O  O231  1  0.328208  0.411542  0.536603  1
  O  O232  1  0.320569  0.597353  0.533867  1
  O  O233  1  0.180052  0.097619  0.533891  1
  O  O234  1  0.250098  0.490541  0.507581  1
  O  O235  1  0.246132  0.996996  0.506120  1
  O  O236  1  0.417377  0.500046  0.511461  1
  O  O237  1  0.414212  0.001203  0.503328  1
  O  O238  1  0.079976  0.001103  0.511860  1
  O  O239  1  0.083193  0.499677  0.502974  1
  O  O240  1  0.118112  0.998984  0.587015  1
  O  O241  1  0.001314  0.127372  0.586706  1
  O  O242  1  0.492644  0.750423  0.507011  1
  O  O243  1  0.496345  0.250439  0.507267  1
  O  O244  1  0.497445  0.627405  0.586631  1
  O  O245  1  -0.000000  0.599453  0.527802  1
  O  O246  1  0.002391  0.250426  0.507029  1
  O  O247  1  0.499980  0.900846  0.527635  1
  O  O248  1  0.584881  0.255129  0.538424  1
  O  O249  1  0.918556  0.755012  0.540018  1
  O  O250  1  0.914016  0.244222  0.538244  1
  O  O251  1  0.588159  0.745621  0.537155  1
  O  O252  1  0.640788  0.341608  0.568682  1
  O  O253  1  0.856462  0.842344  0.569480  1
  O  O254  1  0.857517  0.156968  0.568408  1
  O  O255  1  0.639862  0.659641  0.567802  1
  O  O256  1  0.749734  0.250574  0.546216  1
  O  O257  1  0.751922  0.750209  0.546142  1
  O  O258  1  0.676774  0.407727  0.535410  1
  O  O259  1  0.826204  0.907378  0.535850  1
  O  O260  1  0.820212  0.092937  0.534907  1
  O  O261  1  0.681047  0.593383  0.534610  1
  O  O262  1  0.746407  0.992963  0.507972  1
  O  O263  1  0.750174  0.494140  0.506855  1
  O  O264  1  0.914075  -0.000000  0.511095  1
  O  O265  1  0.917287  0.501147  0.502676  1
  O  O266  1  0.583330  0.500725  0.511544  1
  O  O267  1  0.580213  0.000000  0.502277  1
  O  O268  1  0.500229  0.099480  0.527800  1
  O  O269  1  -0.000000  0.900784  0.486628  1
  O  O270  1  0.682005  0.097088  0.480511  1
  O  O271  1  0.998987  0.099529  0.486472  1
  O  O272  1  0.616863  0.502328  0.586845  1
  O  O273  1  0.992542  0.750390  0.507269  1
  O  O274  1  0.500551  0.400752  0.486621  1
  O  O275  1  0.998497  0.400729  0.527704  1
  O  O276  1  0.500079  0.599360  0.486511  1
  O  O277  1  0.083995  0.754606  0.635667  1
  O  O278  1  0.411814  0.254907  0.637953  1
  O  O279  1  0.416559  0.745427  0.635436  1
  O  O280  1  0.081257  0.245343  0.635084  1
  O  O281  1  0.144393  0.842889  0.606186  1
  O  O282  1  0.359037  0.341717  0.607501  1
  O  O283  1  0.355924  0.658022  0.605901  1
  O  O284  1  0.143520  0.158055  0.605617  1
  O  O285  1  0.250030  0.749492  0.628980  1
  O  O286  1  0.248049  0.249345  0.629094  1
  O  O287  1  0.177561  0.906347  0.639947  1
  O  O288  1  0.317973  0.406704  0.640767  1
  O  O289  1  0.324424  0.592659  0.639481  1
  O  O290  1  0.173081  0.092155  0.639119  1
  O  O291  1  0.253009  0.005376  0.666805  1
  O  O292  1  0.252928  0.508600  0.668641  1
  O  O293  1  0.419352  -0.000000  0.672324  1
  O  O294  1  0.419228  0.499408  0.663044  1
  O  O295  1  0.085180  0.499080  0.671600  1
  O  O296  1  0.085108  -0.000000  0.663837  1
  O  O297  1  0.499754  0.599396  0.688278  1
  O  O298  1  0.319149  0.902222  0.694245  1
  O  O299  1  0.381470  0.497867  0.587935  1
  O  O300  1  0.005212  0.749608  0.667872  1
  O  O301  1  0.005498  0.249672  0.667624  1
  O  O302  1  0.495431  0.749784  0.667610  1
  O  O303  1  0.581114  0.255527  0.634904  1
  O  O304  1  0.914441  0.755015  0.637022  1
  O  O305  1  0.911595  0.245161  0.637276  1
  O  O306  1  0.586275  0.744577  0.636758  1
  O  O307  1  0.646206  0.347588  0.606371  1
  O  O308  1  0.857623  0.844104  0.607208  1
  O  O309  1  0.861480  0.160594  0.606322  1
  O  O310  1  0.638295  0.661213  0.605716  1
  O  O311  1  0.747313  0.244836  0.628513  1
  O  O312  1  0.750755  0.744569  0.628522  1
  O  O313  1  0.678851  0.402446  0.640724  1
  O  O314  1  0.817581  0.903336  0.640887  1
  O  O315  1  0.823132  0.089309  0.639163  1
  O  O316  1  0.673843  0.588121  0.638440  1
  O  O317  1  0.753080  0.506170  0.666930  1
  O  O318  1  0.753017  0.005359  0.668619  1
  O  O319  1  0.919233  0.500411  0.672640  1
  O  O320  1  0.919129  0.998704  0.662873  1
  O  O321  1  0.585270  0.998847  0.671672  1
  O  O322  1  0.585264  0.500298  0.663769  1
  O  O323  1  0.998644  0.400744  0.647145  1
  O  O324  1  0.500783  0.372821  0.588317  1
  O  O325  1  -0.000000  0.599348  0.647229  1
  O  O326  1  -0.000000  0.099159  0.688211  1
  O  O327  1  0.882799  0.001057  0.587936  1
  O  O328  1  -0.000000  0.872629  0.588065  1
  O  O329  1  -0.000000  0.900587  0.688367  1
  O  O330  1  0.508776  0.249575  0.667850  1
  O  O331  1  0.500265  0.900472  0.646996  1
  O  O332  1  0.500228  0.400681  0.688357  1
  O  O333  1  0.500447  0.099279  0.647162  1
  O  O334  1  0.081207  0.255229  0.700165  1
  O  O335  1  0.416674  0.754835  0.699818  1
  O  O336  1  0.411381  0.245259  0.697681  1
  O  O337  1  0.084517  0.745766  0.699989  1
  O  O338  1  0.146077  0.346535  0.728803  1
  O  O339  1  0.142759  0.340997  0.766497  1
  O  O340  1  0.353167  0.846309  0.728500  1
  O  O341  1  0.354574  0.843852  0.766230  1
  O  O342  1  0.356610  0.159232  0.766733  1
  O  O343  1  0.362298  0.161765  0.728846  1
  O  O344  1  0.141272  0.657369  0.768087  1
  O  O345  1  0.141913  0.660783  0.730198  1
  O  O346  1  0.247227  0.244168  0.706606  1
  O  O347  1  0.250782  0.744282  0.706495  1
  O  O348  1  0.323798  0.088369  0.696254  1
  O  O349  1  0.171269  0.588299  0.697130  1
  O  O350  1  0.118123  0.501411  0.748517  1
  O  O351  1  0.381361  0.002512  0.747616  1
  O  O352  1  0.001548  0.372714  0.747198  1
  O  O353  1  0.496994  0.872763  0.747308  1
  O  O354  1  0.179428  0.402530  0.694596  1
  O  O355  1  0.586220  0.754951  0.698479  1
  O  O356  1  0.911657  0.254410  0.698000  1
  O  O357  1  0.914869  0.744863  0.698795  1
  O  O358  1  0.580717  0.244811  0.700850  1
  O  O359  1  0.640386  0.840937  0.729005  1
  O  O360  1  0.636672  0.837833  0.766906  1
  O  O361  1  0.858881  0.341641  0.728396  1
  O  O362  1  0.860496  0.339882  0.766297  1
  O  O363  1  0.854160  0.653564  0.766946  1
  O  O364  1  0.859497  0.659319  0.729229  1
  O  O365  1  0.643631  0.154155  0.767753  1
  O  O366  1  0.644333  0.156218  0.730036  1
  O  O367  1  0.750373  0.750477  0.706808  1
  O  O368  1  0.747548  0.250309  0.706704  1
  O  O369  1  0.678389  0.907702  0.695779  1
  O  O370  1  0.818969  0.406676  0.695040  1
  O  O371  1  0.822363  0.592609  0.696031  1
  O  O372  1  0.501154  0.127201  0.748698  1
  O  O373  1  0.673644  0.093303  0.696201  1
  O  O374  1  0.616917  0.997485  0.748451  1
  O  O375  1  0.882780  0.498682  0.747451  1
  O  O376  1  -0.000000  0.627396  0.748869  1
  Si  Si377  1  0.398469  0.114569  0.105591  1
  Si  Si378  1  0.394747  0.889803  0.105054  1
  Si  Si379  1  0.102076  0.613654  0.106637  1
  Si  Si380  1  0.103880  0.388900  0.105399  1
  Si  Si381  1  0.163529  0.312144  0.145648  1
  Si  Si382  1  0.337042  0.812922  0.145416  1
  Si  Si383  1  0.335096  0.187940  0.145841  1
  Si  Si384  1  0.166426  0.687269  0.146910  1
  Si  Si385  1  0.599715  0.885422  0.105579  1
  Si  Si386  1  0.664218  0.813722  0.145922  1
  Si  Si387  1  0.836383  0.314589  0.145466  1
  Si  Si388  1  0.835518  0.688910  0.145799  1
  Si  Si389  1  0.665699  0.188839  0.146472  1
  Si  Si390  1  0.603397  0.110200  0.106451  1
  Si  Si391  1  0.897128  0.611224  0.105745  1
  Si  Si392  1  0.898910  0.386408  0.104994  1
  Si  Si393  1  0.000000  0.714352  0.207533  1
  Si  Si394  1  0.499340  0.285897  0.164599  1
  Si  Si395  1  0.498784  -0.000000  0.195084  1
  Si  Si396  1  0.499345  0.214336  0.207561  1
  Si  Si397  1  0.164699  0.814447  0.225715  1
  Si  Si398  1  0.336898  0.313864  0.226733  1
  Si  Si399  1  0.335196  0.688417  0.225829  1
  Si  Si400  1  0.165458  0.189590  0.225586  1
  Si  Si401  1  0.327556  0.499829  0.201256  1
  Si  Si402  1  0.325912  -0.000000  0.170645  1
  Si  Si403  1  0.172208  0.001873  0.200717  1
  Si  Si404  1  0.173921  0.497761  0.171201  1
  Si  Si405  1  0.103715  0.111523  0.265633  1
  Si  Si406  1  0.395205  0.610457  0.265979  1
  Si  Si407  1  0.102248  0.886701  0.266182  1
  Si  Si408  1  0.000000  0.785896  0.164632  1
  Si  Si409  1  -0.000000  0.500223  0.195130  1
  Si  Si410  1  0.898752  0.113317  0.266170  1
  Si  Si411  1  0.600169  0.614507  0.265572  1
  Si  Si412  1  0.663897  0.312628  0.226157  1
  Si  Si413  1  0.837327  0.812614  0.226779  1
  Si  Si414  1  0.834714  0.187014  0.225927  1
  Si  Si415  1  0.665961  0.688100  0.225429  1
  Si  Si416  1  0.825419  0.998512  0.201304  1
  Si  Si417  1  0.827079  0.501320  0.170679  1
  Si  Si418  1  0.674185  0.499211  0.200950  1
  Si  Si419  1  0.672499  0.000000  0.171066  1
  Si  Si420  1  0.998214  0.000000  0.176829  1
  Si  Si421  1  0.500442  0.500205  0.176863  1
  Si  Si422  1  -0.000000  0.214405  0.164398  1
  Si  Si423  1  0.000000  0.285865  0.207364  1
  Si  Si424  1  0.500249  0.714243  0.164415  1
  Si  Si425  1  0.500105  0.785966  0.207308  1
  Si  Si426  1  0.398052  0.385723  0.267227  1
  Si  Si427  1  -0.000000  0.499920  0.337484  1
  Si  Si428  1  0.000000  0.714207  0.325207  1
  Si  Si429  1  0.164769  0.812478  0.306437  1
  Si  Si430  1  0.333521  0.312297  0.307506  1
  Si  Si431  1  0.335814  0.687496  0.306219  1
  Si  Si432  1  0.162379  0.187451  0.306002  1
  Si  Si433  1  0.327349  0.998641  0.361282  1
  Si  Si434  1  0.327157  0.501785  0.331782  1
  Si  Si435  1  0.173690  0.499763  0.361869  1
  Si  Si436  1  0.173572  0.000000  0.331234  1
  Si  Si437  1  0.499973  0.785569  0.324963  1
  Si  Si438  1  0.000000  0.000000  0.355646  1
  Si  Si439  1  -0.000000  0.785732  0.368155  1
  Si  Si440  1  0.499830  0.714275  0.367934  1
  Si  Si441  1  0.602982  0.389707  0.266347  1
  Si  Si442  1  -0.000000  0.285882  0.325025  1
  Si  Si443  1  0.664383  0.311652  0.306375  1
  Si  Si444  1  0.834133  0.810870  0.307098  1
  Si  Si445  1  0.835167  0.186020  0.306515  1
  Si  Si446  1  0.663033  0.685744  0.306059  1
  Si  Si447  1  0.827016  0.501275  0.361524  1
  Si  Si448  1  0.826800  0.000000  0.331676  1
  Si  Si449  1  0.673825  0.001266  0.361914  1
  Si  Si450  1  0.674112  0.499191  0.331272  1
  Si  Si451  1  -0.000000  0.214013  0.367919  1
  Si  Si452  1  0.897307  0.888520  0.267055  1
  Si  Si453  1  0.501104  0.499929  0.355697  1
  Si  Si454  1  0.501303  -0.000000  0.337351  1
  Si  Si455  1  0.500256  0.214189  0.325209  1
  Si  Si456  1  0.500015  0.285792  0.368093  1
  Si  Si457  1  0.398469  0.114569  0.426761  1
  Si  Si458  1  0.394747  0.889803  0.426224  1
  Si  Si459  1  0.102076  0.613654  0.427807  1
  Si  Si460  1  0.103880  0.388900  0.426569  1
  Si  Si461  1  0.164407  0.311160  0.386433  1
  Si  Si462  1  0.163529  0.312144  0.466818  1
  Si  Si463  1  0.333876  0.811030  0.386172  1
  Si  Si464  1  0.337042  0.812922  0.466586  1
  Si  Si465  1  0.335096  0.187940  0.467011  1
  Si  Si466  1  0.335444  0.185981  0.386288  1
  Si  Si467  1  0.166426  0.687269  0.468081  1
  Si  Si468  1  0.163073  0.685793  0.387332  1
  Si  Si469  1  0.599715  0.885422  0.426749  1
  Si  Si470  1  0.664502  0.812599  0.386501  1
  Si  Si471  1  0.664218  0.813722  0.467092  1
  Si  Si472  1  0.833546  0.312374  0.386024  1
  Si  Si473  1  0.836383  0.314589  0.466636  1
  Si  Si474  1  0.835518  0.688910  0.466970  1
  Si  Si475  1  0.835927  0.687910  0.386703  1
  Si  Si476  1  0.665699  0.188839  0.467642  1
  Si  Si477  1  0.662525  0.187282  0.387369  1
  Si  Si478  1  0.603397  0.110200  0.427621  1
  Si  Si479  1  0.897128  0.611224  0.426915  1
  Si  Si480  1  0.898910  0.386408  0.426165  1
  Si  Si481  1  0.000000  0.714352  0.528703  1
  Si  Si482  1  0.499340  0.285897  0.485770  1
  Si  Si483  1  0.498784  -0.000000  0.516254  1
  Si  Si484  1  0.499345  0.214336  0.528731  1
  Si  Si485  1  0.164699  0.814447  0.546885  1
  Si  Si486  1  0.336898  0.313864  0.547903  1
  Si  Si487  1  0.335196  0.688417  0.546999  1
  Si  Si488  1  0.165458  0.189590  0.546756  1
  Si  Si489  1  0.327556  0.499829  0.522426  1
  Si  Si490  1  0.325912  0.000000  0.491815  1
  Si  Si491  1  0.172208  0.001873  0.521887  1
  Si  Si492  1  0.173921  0.497761  0.492371  1
  Si  Si493  1  0.103715  0.111523  0.586803  1
  Si  Si494  1  0.395205  0.610457  0.587149  1
  Si  Si495  1  0.102248  0.886701  0.587352  1
  Si  Si496  1  -0.000000  0.785896  0.485802  1
  Si  Si497  1  -0.000000  0.500223  0.516300  1
  Si  Si498  1  0.898752  0.113317  0.587340  1
  Si  Si499  1  0.600169  0.614507  0.586743  1
  Si  Si500  1  0.663897  0.312628  0.547327  1
  Si  Si501  1  0.837327  0.812614  0.547949  1
  Si  Si502  1  0.834714  0.187014  0.547097  1
  Si  Si503  1  0.665961  0.688100  0.546599  1
  Si  Si504  1  0.825419  0.998512  0.522475  1
  Si  Si505  1  0.827079  0.501320  0.491849  1
  Si  Si506  1  0.674185  0.499211  0.522121  1
  Si  Si507  1  0.672499  0.000000  0.492236  1
  Si  Si508  1  0.998214  -0.000000  0.497999  1
  Si  Si509  1  0.500442  0.500205  0.498033  1
  Si  Si510  1  -0.000000  0.214405  0.485569  1
  Si  Si511  1  0.000000  0.285865  0.528534  1
  Si  Si512  1  0.500249  0.714243  0.485585  1
  Si  Si513  1  0.500105  0.785966  0.528478  1
  Si  Si514  1  0.398052  0.385723  0.588397  1
  Si  Si515  1  -0.000000  0.499920  0.658654  1
  Si  Si516  1  -0.000000  0.714207  0.646377  1
  Si  Si517  1  0.164769  0.812478  0.627607  1
  Si  Si518  1  0.333521  0.312297  0.628676  1
  Si  Si519  1  0.335814  0.687496  0.627389  1
  Si  Si520  1  0.162379  0.187451  0.627172  1
  Si  Si521  1  0.327349  0.998641  0.682452  1
  Si  Si522  1  0.327157  0.501785  0.652952  1
  Si  Si523  1  0.173690  0.499763  0.683039  1
  Si  Si524  1  0.173572  -0.000000  0.652404  1
  Si  Si525  1  0.499973  0.785569  0.646133  1
  Si  Si526  1  -0.000000  0.000000  0.676816  1
  Si  Si527  1  -0.000000  0.785732  0.689325  1
  Si  Si528  1  0.499830  0.714275  0.689104  1
  Si  Si529  1  0.602982  0.389707  0.587517  1
  Si  Si530  1  -0.000000  0.285882  0.646195  1
  Si  Si531  1  0.664383  0.311652  0.627545  1
  Si  Si532  1  0.834133  0.810870  0.628268  1
  Si  Si533  1  0.835167  0.186020  0.627685  1
  Si  Si534  1  0.663033  0.685744  0.627229  1
  Si  Si535  1  0.827016  0.501275  0.682694  1
  Si  Si536  1  0.826800  0.000000  0.652846  1
  Si  Si537  1  0.673825  0.001266  0.683084  1
  Si  Si538  1  0.674112  0.499191  0.652442  1
  Si  Si539  1  0.000000  0.214013  0.689090  1
  Si  Si540  1  0.897307  0.888520  0.588225  1
  Si  Si541  1  0.501104  0.499929  0.676867  1
  Si  Si542  1  0.501303  -0.000000  0.658521  1
  Si  Si543  1  0.500256  0.214189  0.646379  1
  Si  Si544  1  0.500015  0.285792  0.689263  1
  Si  Si545  1  0.398469  0.114569  0.747931  1
  Si  Si546  1  0.394747  0.889803  0.747394  1
  Si  Si547  1  0.102076  0.613654  0.748977  1
  Si  Si548  1  0.103880  0.388900  0.747739  1
  Si  Si549  1  0.164407  0.311160  0.707603  1
  Si  Si550  1  0.333876  0.811030  0.707342  1
  Si  Si551  1  0.335444  0.185981  0.707459  1
  Si  Si552  1  0.163073  0.685793  0.708502  1
  Si  Si553  1  0.599715  0.885422  0.747919  1
  Si  Si554  1  0.664502  0.812599  0.707671  1
  Si  Si555  1  0.833546  0.312374  0.707195  1
  Si  Si556  1  0.835927  0.687910  0.707873  1
  Si  Si557  1  0.662525  0.187282  0.708540  1
  Si  Si558  1  0.603397  0.110200  0.748792  1
  Si  Si559  1  0.897128  0.611224  0.748085  1
  Si  Si560  1  0.898910  0.386408  0.747335  1
  H  H561  1  0.146077  0.346535  0.073335  1
  H  H562  1  0.353167  0.846309  0.073033  1
  H  H563  1  0.362298  0.161765  0.073379  1
  H  H564  1  0.141913  0.660783  0.074731  1
  H  H565  1  0.640386  0.840937  0.073538  1
  H  H566  1  0.858881  0.341641  0.072929  1
  H  H567  1  0.859497  0.659319  0.073761  1
  H  H568  1  0.644333  0.156218  0.074568  1
  H  H569  1  0.142759  0.340997  0.779624  1
  H  H570  1  0.354574  0.843852  0.779357  1
  H  H571  1  0.356610  0.159232  0.779860  1
  H  H572  1  0.141272  0.657369  0.781214  1
  H  H573  1  0.636672  0.837833  0.780033  1
  H  H574  1  0.860496  0.339882  0.779424  1
  H  H575  1  0.854160  0.653564  0.780073  1
  H  H576  1  0.643631  0.154155  0.780880  1
