# generated using pymatgen
data_Si12H2O25
_symmetry_space_group_name_H-M   'P 1'
_cell_length_a   13.92096345
_cell_length_b   5.05139295
_cell_length_c   39.84412998
_cell_angle_alpha   90.00000000
_cell_angle_beta   105.36800000
_cell_angle_gamma   90.00000000
_symmetry_Int_Tables_number   1
_chemical_formula_structural   Si12H2O25
_chemical_formula_sum   'Si24 H4 O50'
_cell_volume   2701.66530696
_cell_formula_units_Z   2
loop_
 _symmetry_equiv_pos_site_id
 _symmetry_equiv_pos_as_xyz
  1  'x, y, z'
loop_
 _atom_site_type_symbol
 _atom_site_label
 _atom_site_symmetry_multiplicity
 _atom_site_fract_x
 _atom_site_fract_y
 _atom_site_fract_z
 _atom_site_occupancy
  O  O1  1  0.331268  0.991633  0.221323  1
  O  O2  1  0.830955  0.497432  0.221167  1
  O  O3  1  0.476211  0.259974  0.209265  1
  O  O4  1  0.975172  0.732453  0.201562  1
  O  O5  1  0.475069  0.755078  0.201712  1
  O  O6  1  0.975651  0.227537  0.208971  1
  O  O7  1  0.001020  0.530301  0.261165  1
  O  O8  1  0.001313  0.031772  0.152730  1
  O  O9  1  0.500817  0.455936  0.152837  1
  O  O10  1  0.137057  0.992030  0.210708  1
  O  O11  1  0.636996  0.496389  0.210685  1
  O  O12  1  0.249922  0.279780  0.258026  1
  O  O13  1  0.749777  0.780426  0.257990  1
  O  O14  1  0.671044  0.991793  0.301592  1
  O  O15  1  0.170729  0.497156  0.301457  1
  O  O16  1  0.331268  0.991633  0.438397  1
  O  O17  1  0.830955  0.497432  0.438241  1
  O  O18  1  0.525713  0.259883  0.313514  1
  O  O19  1  0.026349  0.731927  0.320842  1
  O  O20  1  0.476211  0.259974  0.426339  1
  O  O21  1  0.975172  0.732453  0.418636  1
  O  O22  1  0.475069  0.755078  0.418786  1
  O  O23  1  0.975651  0.227537  0.426045  1
  O  O24  1  0.526820  0.754963  0.321067  1
  O  O25  1  0.025909  0.227026  0.313348  1
  O  O26  1  0.490752  0.956161  0.261414  1
  O  O27  1  0.001020  0.530301  0.478239  1
  O  O28  1  0.001313  0.031772  0.369804  1
  O  O29  1  0.500817  0.455936  0.369911  1
  O  O30  1  0.137057  0.992030  0.427782  1
  O  O31  1  0.636996  0.496389  0.427759  1
  O  O32  1  0.864894  0.991977  0.311950  1
  O  O33  1  0.364821  0.496181  0.312009  1
  O  O34  1  0.249922  0.279780  0.475100  1
  O  O35  1  0.749777  0.780426  0.475064  1
  O  O36  1  0.751873  0.280178  0.264687  1
  O  O37  1  0.251928  0.780177  0.264693  1
  O  O38  1  0.671044  0.991793  0.518666  1
  O  O39  1  0.170729  0.497156  0.518531  1
  O  O40  1  0.525713  0.259883  0.530588  1
  O  O41  1  0.026349  0.731927  0.537916  1
  O  O42  1  0.526820  0.754963  0.538141  1
  O  O43  1  0.025909  0.227026  0.530422  1
  O  O44  1  0.490752  0.956161  0.478488  1
  O  O45  1  0.001313  0.031772  0.586879  1
  O  O46  1  0.500817  0.455936  0.586985  1
  O  O47  1  0.864894  0.991977  0.529024  1
  O  O48  1  0.364821  0.496181  0.529083  1
  O  O49  1  0.751873  0.280178  0.481761  1
  O  O50  1  0.251928  0.780177  0.481767  1
  Si  Si51  1  0.445173  0.990748  0.222310  1
  Si  Si52  1  0.944809  0.496815  0.222061  1
  Si  Si53  1  0.022484  0.995826  0.192920  1
  Si  Si54  1  0.522390  0.491881  0.193033  1
  Si  Si55  1  0.240868  0.011316  0.238049  1
  Si  Si56  1  0.740775  0.512129  0.238067  1
  Si  Si57  1  0.557040  0.990649  0.300555  1
  Si  Si58  1  0.056703  0.496534  0.300318  1
  Si  Si59  1  0.445173  0.990748  0.439385  1
  Si  Si60  1  0.944809  0.496815  0.439135  1
  Si  Si61  1  0.022484  0.995826  0.409994  1
  Si  Si62  1  0.522390  0.491881  0.410107  1
  Si  Si63  1  0.979524  0.995588  0.329602  1
  Si  Si64  1  0.479403  0.491769  0.329714  1
  Si  Si65  1  0.240868  0.011316  0.455123  1
  Si  Si66  1  0.740775  0.512129  0.455142  1
  Si  Si67  1  0.761062  0.011565  0.284651  1
  Si  Si68  1  0.261048  0.511865  0.284621  1
  Si  Si69  1  0.557040  0.990649  0.517629  1
  Si  Si70  1  0.056703  0.496534  0.517392  1
  Si  Si71  1  0.979524  0.995588  0.546676  1
  Si  Si72  1  0.479403  0.491769  0.546788  1
  Si  Si73  1  0.761062  0.011565  0.501725  1
  Si  Si74  1  0.261048  0.511865  0.501695  1
  H  H75  1  0.001313  0.031772  0.130142  1
  H  H76  1  0.500817  0.455936  0.130249  1
  H  H77  1  0.001313  0.031772  0.609467  1
  H  H78  1  0.500817  0.455936  0.609573  1
