# generated using pymatgen
data_Si6H2O13
_symmetry_space_group_name_H-M   'P 1'
_cell_length_a   8.41110944
_cell_length_b   9.86934954
_cell_length_c   31.02104124
_cell_angle_alpha   58.40835966
_cell_angle_beta   90.00000000
_cell_angle_gamma   64.79224931
_symmetry_Int_Tables_number   1
_chemical_formula_structural   Si6H2O13
_chemical_formula_sum   'Si18 H6 O39'
_cell_volume   1899.62630296
_cell_formula_units_Z   3
loop_
 _symmetry_equiv_pos_site_id
 _symmetry_equiv_pos_as_xyz
  1  'x, y, z'
loop_
 _atom_site_type_symbol
 _atom_site_label
 _atom_site_symmetry_multiplicity
 _atom_site_fract_x
 _atom_site_fract_y
 _atom_site_fract_z
 _atom_site_occupancy
  Si  Si1  1  0.493656  0.886780  0.310267  1
  Si  Si2  1  0.112613  0.505948  0.290432  1
  Si  Si3  1  0.505279  0.380993  0.311639  1
  Si  Si4  1  0.493656  0.886780  0.476934  1
  Si  Si5  1  0.618667  0.493866  0.376067  1
  Si  Si6  1  0.886397  0.618920  0.355135  1
  Si  Si7  1  0.112613  0.505948  0.457099  1
  Si  Si8  1  0.505279  0.380993  0.478305  1
  Si  Si9  1  0.380412  0.113068  0.355982  1
  O  O10  1  0.705154  0.807443  0.323059  1
  O  O11  1  0.192013  0.294310  0.324935  1
  O  O12  1  0.293768  0.513226  0.289980  1
  O  O13  1  0.406704  0.002313  0.249761  1
  O  O14  1  0.999181  0.587687  0.318534  1
  O  O15  1  0.587392  0.409742  0.264802  1
  O  O16  1  0.999734  0.592726  0.234358  1
  O  O17  1  0.705154  0.807443  0.489727  1
  O  O18  1  0.486441  0.705474  0.340402  1
  O  O19  1  0.807039  0.486684  0.378014  1
  O  O20  1  0.192013  0.294310  0.491602  1
  O  O21  1  0.293768  0.513226  0.456647  1
  O  O22  1  0.512569  0.192430  0.343137  1
  O  O23  1  0.406704  0.002313  0.416428  1
  O  O24  1  0.592113  0.409420  0.348189  1
  O  O25  1  0.999181  0.587687  0.485201  1
  O  O26  1  0.411817  0.997412  0.333914  1
  O  O27  1  0.587392  0.409742  0.431469  1
  O  O28  1  0.999734  0.592726  0.401024  1
  H  H29  1  0.406704  0.002313  0.220749  1
  H  H30  1  0.587392  0.409742  0.235790  1
  H  H31  1  0.999734  0.592726  0.205345  1
  Si  Si32  1  0.493656  0.886780  0.643601  1
  Si  Si33  1  0.618667  0.493866  0.542733  1
  Si  Si34  1  0.886397  0.618920  0.521802  1
  Si  Si35  1  0.112613  0.505948  0.623766  1
  Si  Si36  1  0.505279  0.380993  0.644972  1
  Si  Si37  1  0.380412  0.113068  0.522648  1
  Si  Si38  1  0.618667  0.493866  0.709399  1
  Si  Si39  1  0.886397  0.618920  0.688468  1
  Si  Si40  1  0.380412  0.113068  0.689315  1
  O  O41  1  0.705154  0.807443  0.656393  1
  O  O42  1  0.486441  0.705474  0.507069  1
  O  O43  1  0.807039  0.486684  0.544681  1
  O  O44  1  0.192013  0.294310  0.658268  1
  O  O45  1  0.293768  0.513226  0.623314  1
  O  O46  1  0.512569  0.192430  0.509804  1
  O  O47  1  0.406704  0.002313  0.583094  1
  O  O48  1  0.592113  0.409420  0.514855  1
  O  O49  1  0.999181  0.587687  0.651867  1
  O  O50  1  0.411817  0.997412  0.500581  1
  O  O51  1  0.587392  0.409742  0.598136  1
  O  O52  1  0.999734  0.592726  0.567691  1
  O  O53  1  0.486441  0.705474  0.673735  1
  O  O54  1  0.807039  0.486684  0.711348  1
  O  O55  1  0.512569  0.192430  0.676471  1
  O  O56  1  0.406704  0.002313  0.749761  1
  O  O57  1  0.592113  0.409420  0.681522  1
  O  O58  1  0.411817  0.997412  0.667248  1
  O  O59  1  0.587392  0.409742  0.764802  1
  O  O60  1  0.999734  0.592726  0.734358  1
  H  H61  1  0.406704  0.002313  0.778774  1
  H  H62  1  0.587392  0.409742  0.793814  1
  H  H63  1  0.999734  0.592726  0.763370  1
