# generated using pymatgen
data_Si5H2O11
_symmetry_space_group_name_H-M   'P 1'
_cell_length_a   13.76258817
_cell_length_b   6.32590885
_cell_length_c   28.68210808
_cell_angle_alpha   90.00000000
_cell_angle_beta   90.00000000
_cell_angle_gamma   90.00000000
_symmetry_Int_Tables_number   1
_chemical_formula_structural   Si5H2O11
_chemical_formula_sum   'Si10 H4 O22'
_cell_volume   2497.08952148
_cell_formula_units_Z   2
loop_
 _symmetry_equiv_pos_site_id
 _symmetry_equiv_pos_as_xyz
  1  'x, y, z'
loop_
 _atom_site_type_symbol
 _atom_site_label
 _atom_site_symmetry_multiplicity
 _atom_site_fract_x
 _atom_site_fract_y
 _atom_site_fract_z
 _atom_site_occupancy
  O  O1  1  0.499936  0.499903  0.335934  1
  O  O2  1  0.228578  0.749983  0.445647  1
  O  O3  1  0.728587  0.249940  0.205704  1
  O  O4  1  0.000000  0.500054  0.315410  1
  O  O5  1  0.771292  0.249933  0.445646  1
  O  O6  1  0.271292  0.749994  0.205703  1
  O  O7  1  0.666838  0.375344  0.372855  1
  O  O8  1  0.333015  0.624599  0.372856  1
  O  O9  1  0.833003  0.375348  0.278496  1
  O  O10  1  0.166836  0.624587  0.278496  1
  O  O11  1  0.651624  0.374675  0.285792  1
  O  O12  1  0.348216  0.625301  0.285803  1
  O  O13  1  0.848218  0.374640  0.365554  1
  O  O14  1  0.151629  0.625276  0.365554  1
  O  O15  1  0.658599  0.722991  0.329099  1
  O  O16  1  0.242813  0.973001  0.369507  1
  O  O17  1  0.841295  0.722989  0.322252  1
  O  O18  1  0.257061  0.972982  0.281849  1
  O  O19  1  0.341286  0.276956  0.329097  1
  O  O20  1  0.742807  0.026942  0.281846  1
  O  O21  1  0.158606  0.276953  0.322250  1
  O  O22  1  0.757058  0.026940  0.369499  1
  Si  Si23  1  0.613079  0.493219  0.331115  1
  Si  Si24  1  0.238589  0.743229  0.391350  1
  Si  Si25  1  0.886783  0.493183  0.320234  1
  Si  Si26  1  0.261259  0.743222  0.260000  1
  Si  Si27  1  0.386780  0.506743  0.331118  1
  Si  Si28  1  0.738583  0.256706  0.259995  1
  Si  Si29  1  0.113082  0.506712  0.320235  1
  Si  Si30  1  0.761258  0.256695  0.391355  1
  Si  Si31  1  0.749947  0.874976  0.325672  1
  Si  Si32  1  0.249947  0.124959  0.325676  1
  H  H33  1  0.228578  0.749983  0.477026  1
  H  H34  1  0.728587  0.249940  0.174326  1
  H  H35  1  0.771292  0.249933  0.477024  1
  H  H36  1  0.271292  0.749994  0.174325  1
