# generated using pymatgen
data_Si33H2O67
_symmetry_space_group_name_H-M   'P 1'
_cell_length_a   25.36503145
_cell_length_b   13.87769178
_cell_length_c   63.68429163
_cell_angle_alpha   90.00000000
_cell_angle_beta   90.00000000
_cell_angle_gamma   90.00000000
_symmetry_Int_Tables_number   1
_chemical_formula_structural   Si33H2O67
_chemical_formula_sum   'Si264 H16 O536'
_cell_volume   22417.385762
_cell_formula_units_Z   8
loop_
 _symmetry_equiv_pos_site_id
 _symmetry_equiv_pos_as_xyz
  1  'x, y, z'
loop_
 _atom_site_type_symbol
 _atom_site_label
 _atom_site_symmetry_multiplicity
 _atom_site_fract_x
 _atom_site_fract_y
 _atom_site_fract_z
 _atom_site_occupancy
  O  O1  1  0.149841  0.259891  0.198176  1
  O  O2  1  0.149735  0.740196  0.198160  1
  O  O3  1  0.149737  0.239782  0.121859  1
  O  O4  1  0.149825  0.759352  0.121838  1
  O  O5  1  0.319412  0.750103  0.160002  1
  O  O6  1  0.180506  0.250034  0.160013  1
  O  O7  1  0.319452  0.249987  0.160017  1
  O  O8  1  0.180534  0.749916  0.160004  1
  O  O9  1  0.249959  0.750130  0.188033  1
  O  O10  1  0.250040  0.249990  0.188047  1
  O  O11  1  0.249952  0.250450  0.131986  1
  O  O12  1  0.250033  0.750166  0.131977  1
  O  O13  1  0.309260  0.600231  0.182657  1
  O  O14  1  0.190124  0.100239  0.182700  1
  O  O15  1  0.309947  0.399834  0.182743  1
  O  O16  1  0.189964  0.899852  0.182708  1
  O  O17  1  0.190322  0.399765  0.137256  1
  O  O18  1  0.309146  0.899986  0.137311  1
  O  O19  1  0.191138  0.600142  0.137305  1
  O  O20  1  0.308770  0.100296  0.137310  1
  O  O21  1  0.095160  0.408946  0.192147  1
  O  O22  1  0.094686  0.591637  0.192020  1
  O  O23  1  0.094766  0.090834  0.127822  1
  O  O24  1  0.094669  0.907882  0.128025  1
  O  O25  1  0.084712  0.336884  0.227257  1
  O  O26  1  0.085106  0.662193  0.227281  1
  O  O27  1  0.084593  0.163152  0.092738  1
  O  O28  1  0.085435  0.838047  0.092678  1
  O  O29  1  0.050380  0.250067  0.194314  1
  O  O30  1  0.050008  0.750454  0.194729  1
  O  O31  1  0.050328  0.250104  0.125692  1
  O  O32  1  0.050074  0.748927  0.125014  1
  O  O33  1  0.150776  0.500405  0.165851  1
  O  O34  1  0.151708  0.000000  0.153744  1
  O  O35  1  0.250522  -0.000000  0.160541  1
  O  O36  1  0.249345  0.498429  0.160402  1
  O  O37  1  0.049940  0.499540  0.163275  1
  O  O38  1  0.050671  -0.000000  0.156946  1
  O  O39  1  0.071622  0.499500  0.247114  1
  O  O40  1  0.000000  0.599140  0.137483  1
  O  O41  1  -0.000000  0.099085  0.182581  1
  O  O42  1  0.001098  0.751145  0.159822  1
  O  O43  1  0.149893  0.759406  0.372464  1
  O  O44  1  0.149789  0.240032  0.372409  1
  O  O45  1  0.149844  0.740209  0.296150  1
  O  O46  1  0.149918  0.259800  0.296115  1
  O  O47  1  0.319560  0.250091  0.334304  1
  O  O48  1  0.180611  0.749988  0.334310  1
  O  O49  1  0.319603  0.750136  0.334312  1
  O  O50  1  0.180584  0.250118  0.334270  1
  O  O51  1  0.250004  0.250240  0.362297  1
  O  O52  1  0.250140  0.750411  0.362323  1
  O  O53  1  0.250059  0.750106  0.306300  1
  O  O54  1  0.250144  0.250307  0.306271  1
  O  O55  1  0.308978  0.100245  0.356936  1
  O  O56  1  0.191359  0.600245  0.356997  1
  O  O57  1  0.309426  0.900013  0.356973  1
  O  O58  1  0.190624  0.399879  0.357002  1
  O  O59  1  0.190039  0.899876  0.311595  1
  O  O60  1  0.310279  0.399940  0.311591  1
  O  O61  1  0.190387  0.100295  0.311603  1
  O  O62  1  0.309579  0.600411  0.311621  1
  O  O63  1  0.094773  0.908060  0.366279  1
  O  O64  1  0.094765  0.091049  0.366419  1
  O  O65  1  0.094507  0.592057  0.302371  1
  O  O66  1  0.095510  0.409232  0.302104  1
  O  O67  1  0.085529  0.838237  0.401622  1
  O  O68  1  0.084909  0.162879  0.401563  1
  O  O69  1  0.085472  0.661785  0.266986  1
  O  O70  1  0.084765  0.336986  0.267046  1
  O  O71  1  0.050101  0.749191  0.369312  1
  O  O72  1  0.050301  0.250176  0.368731  1
  O  O73  1  0.049988  0.750979  0.299301  1
  O  O74  1  0.050443  0.250458  0.300006  1
  O  O75  1  0.151702  0.000000  0.340521  1
  O  O76  1  0.151267  0.500678  0.328367  1
  O  O77  1  0.249737  0.498791  0.333900  1
  O  O78  1  0.250533  0.000000  0.333812  1
  O  O79  1  0.050662  -0.000000  0.337347  1
  O  O80  1  0.050646  0.498965  0.331188  1
  O  O81  1  -0.000000  0.624497  0.247206  1
  O  O82  1  -0.000000  0.099178  0.311703  1
  O  O83  1  0.001875  0.750298  0.334323  1
  O  O84  1  -0.000000  0.599139  0.356842  1
  O  O85  1  0.350260  0.759512  0.198125  1
  O  O86  1  0.649861  0.759292  0.198189  1
  O  O87  1  0.350293  0.240139  0.198153  1
  O  O88  1  0.649826  0.240393  0.198129  1
  O  O89  1  0.649857  0.740442  0.121848  1
  O  O90  1  0.350323  0.740419  0.121888  1
  O  O91  1  0.649838  0.259594  0.121837  1
  O  O92  1  0.350229  0.259386  0.121866  1
  O  O93  1  0.594804  0.907951  0.191994  1
  O  O94  1  0.404790  0.908855  0.192064  1
  O  O95  1  0.595353  0.090884  0.192140  1
  O  O96  1  0.405508  0.091724  0.191965  1
  O  O97  1  0.404911  0.590913  0.127869  1
  O  O98  1  0.594761  0.591823  0.128022  1
  O  O99  1  0.405428  0.407835  0.128105  1
  O  O100  1  0.595248  0.408920  0.127872  1
  O  O101  1  0.585590  0.838170  0.227392  1
  O  O102  1  0.415358  0.836905  0.227151  1
  O  O103  1  0.584784  0.162872  0.227212  1
  O  O104  1  0.414791  0.162155  0.227293  1
  O  O105  1  0.415414  0.663144  0.092838  1
  O  O106  1  0.585589  0.661645  0.092645  1
  O  O107  1  0.414599  0.338045  0.092721  1
  O  O108  1  0.584954  0.337393  0.092732  1
  O  O109  1  0.550065  0.749211  0.195094  1
  O  O110  1  0.449764  0.750070  0.194245  1
  O  O111  1  0.550399  0.249721  0.194283  1
  O  O112  1  0.450109  0.250679  0.194882  1
  O  O113  1  0.449785  0.749841  0.125785  1
  O  O114  1  0.550072  0.750621  0.124948  1
  O  O115  1  0.450064  0.248924  0.124994  1
  O  O116  1  0.550371  0.250086  0.125555  1
  O  O117  1  0.349051  0.000000  0.165862  1
  O  O118  1  0.651048  0.000000  0.165869  1
  O  O119  1  0.650612  0.500174  0.154226  1
  O  O120  1  0.348080  0.500008  0.153776  1
  O  O121  1  0.550481  0.000000  0.163156  1
  O  O122  1  0.449653  0.000000  0.163077  1
  O  O123  1  0.448912  0.500631  0.157081  1
  O  O124  1  0.549915  0.499416  0.156737  1
  O  O125  1  0.500312  0.900778  0.137414  1
  O  O126  1  0.500123  0.099141  0.137416  1
  O  O127  1  0.500227  0.599180  0.182583  1
  O  O128  1  0.499996  0.400832  0.182575  1
  O  O129  1  0.502207  0.750057  0.160020  1
  O  O130  1  0.498462  0.250330  0.159919  1
  O  O131  1  0.428495  -0.000000  0.247009  1
  O  O132  1  0.500119  0.875421  0.247113  1
  O  O133  1  0.350213  0.259428  0.372475  1
  O  O134  1  0.649723  0.259405  0.372451  1
  O  O135  1  0.350345  0.740456  0.372481  1
  O  O136  1  0.649831  0.740742  0.372486  1
  O  O137  1  0.649816  0.240070  0.296102  1
  O  O138  1  0.350329  0.239832  0.296181  1
  O  O139  1  0.649710  0.760089  0.296181  1
  O  O140  1  0.350224  0.759978  0.296139  1
  O  O141  1  0.594909  0.408373  0.366391  1
  O  O142  1  0.404938  0.408602  0.366430  1
  O  O143  1  0.595607  0.591031  0.366489  1
  O  O144  1  0.405481  0.591684  0.366423  1
  O  O145  1  0.405863  0.091723  0.302386  1
  O  O146  1  0.595080  0.091056  0.302144  1
  O  O147  1  0.405373  0.908590  0.302207  1
  O  O148  1  0.594469  0.908382  0.302391  1
  O  O149  1  0.584711  0.336829  0.401571  1
  O  O150  1  0.414646  0.338055  0.401659  1
  O  O151  1  0.584837  0.662826  0.401545  1
  O  O152  1  0.414802  0.662449  0.401713  1
  O  O153  1  0.414697  0.161621  0.267015  1
  O  O154  1  0.584756  0.163044  0.267009  1
  O  O155  1  0.414731  0.837737  0.266911  1
  O  O156  1  0.584779  0.837686  0.267136  1
  O  O157  1  0.550230  0.249726  0.368688  1
  O  O158  1  0.449945  0.249787  0.369232  1
  O  O159  1  0.550356  0.749373  0.368591  1
  O  O160  1  0.450084  0.750740  0.369278  1
  O  O161  1  0.450102  0.251141  0.299317  1
  O  O162  1  0.550351  0.249989  0.299931  1
  O  O163  1  0.449913  0.749197  0.299318  1
  O  O164  1  0.550175  0.749372  0.299887  1
  O  O165  1  0.348495  0.500600  0.340516  1
  O  O166  1  0.651870  0.499509  0.340480  1
  O  O167  1  0.650941  0.000000  0.328415  1
  O  O168  1  0.349003  0.000000  0.328295  1
  O  O169  1  0.550767  0.500705  0.337491  1
  O  O170  1  0.449509  0.499492  0.337495  1
  O  O171  1  0.449500  0.000000  0.331345  1
  O  O172  1  0.550335  -0.000000  0.331245  1
  O  O173  1  0.571558  -0.000000  0.247213  1
  O  O174  1  0.571574  0.499672  0.421323  1
  O  O175  1  0.500373  0.400834  0.311876  1
  O  O176  1  0.499796  0.598941  0.311825  1
  O  O177  1  0.499715  0.099113  0.357006  1
  O  O178  1  0.500429  0.900639  0.356956  1
  O  O179  1  0.498391  0.249405  0.334280  1
  O  O180  1  0.498239  0.750251  0.334261  1
  O  O181  1  0.499905  0.124542  0.247138  1
  O  O182  1  0.850253  0.259751  0.198158  1
  O  O183  1  0.850264  0.740021  0.198167  1
  O  O184  1  0.850273  0.239979  0.121828  1
  O  O185  1  0.850241  0.760224  0.121839  1
  O  O186  1  0.819599  0.250001  0.159980  1
  O  O187  1  0.680599  0.749954  0.160013  1
  O  O188  1  0.819608  0.749963  0.160007  1
  O  O189  1  0.680623  0.249961  0.159981  1
  O  O190  1  0.750077  0.249706  0.187998  1
  O  O191  1  0.750077  0.750238  0.188022  1
  O  O192  1  0.750082  0.749485  0.132003  1
  O  O193  1  0.750079  0.250037  0.131964  1
  O  O194  1  0.810077  0.100089  0.182656  1
  O  O195  1  0.691144  0.600122  0.182699  1
  O  O196  1  0.810085  0.899826  0.182669  1
  O  O197  1  0.691102  0.399752  0.182671  1
  O  O198  1  0.691148  0.899690  0.137298  1
  O  O199  1  0.809977  0.399809  0.137265  1
  O  O200  1  0.691016  0.100119  0.137306  1
  O  O201  1  0.810034  0.600234  0.137295  1
  O  O202  1  0.905625  0.407891  0.191951  1
  O  O203  1  0.904951  0.590798  0.192220  1
  O  O204  1  0.905651  0.091704  0.127973  1
  O  O205  1  0.905515  0.908733  0.127860  1
  O  O206  1  0.914619  0.338258  0.227334  1
  O  O207  1  0.915344  0.663143  0.227285  1
  O  O208  1  0.914688  0.161772  0.092647  1
  O  O209  1  0.915073  0.837248  0.092648  1
  O  O210  1  0.950099  0.248909  0.195037  1
  O  O211  1  0.949737  0.749752  0.194334  1
  O  O212  1  0.950071  0.250869  0.124991  1
  O  O213  1  0.949781  0.749396  0.125361  1
  O  O214  1  0.847893  0.499697  0.166331  1
  O  O215  1  0.848343  -0.000000  0.153670  1
  O  O216  1  0.749192  0.500006  0.159338  1
  O  O217  1  0.749522  0.000000  0.160501  1
  O  O218  1  0.948813  0.500713  0.162964  1
  O  O219  1  0.949359  -0.000000  0.156988  1
  O  O220  1  0.998195  0.249917  0.160007  1
  O  O221  1  -0.000000  0.400910  0.137478  1
  O  O222  1  -0.000000  0.900863  0.182603  1
  O  O223  1  0.850338  0.759771  0.372397  1
  O  O224  1  0.850195  0.240557  0.372416  1
  O  O225  1  0.850187  0.740047  0.296136  1
  O  O226  1  0.850286  0.259702  0.296126  1
  O  O227  1  0.819453  0.749894  0.334272  1
  O  O228  1  0.680519  0.249935  0.334261  1
  O  O229  1  0.819445  0.250047  0.334267  1
  O  O230  1  0.680557  0.749984  0.334313  1
  O  O231  1  0.750077  0.749933  0.362322  1
  O  O232  1  0.749957  0.249916  0.362291  1
  O  O233  1  0.750028  0.249799  0.306230  1
  O  O234  1  0.749943  0.749950  0.306258  1
  O  O235  1  0.809176  0.600138  0.356978  1
  O  O236  1  0.690905  0.100125  0.356965  1
  O  O237  1  0.808885  0.399847  0.356967  1
  O  O238  1  0.691108  0.899879  0.356980  1
  O  O239  1  0.690268  0.399719  0.311528  1
  O  O240  1  0.809876  0.899727  0.311581  1
  O  O241  1  0.689973  0.600209  0.311561  1
  O  O242  1  0.809983  0.100118  0.311570  1
  O  O243  1  0.905296  0.908838  0.366364  1
  O  O244  1  0.905347  0.091885  0.366262  1
  O  O245  1  0.904821  0.590825  0.302125  1
  O  O246  1  0.905507  0.407981  0.302370  1
  O  O247  1  0.915346  0.836973  0.401493  1
  O  O248  1  0.914519  0.161911  0.401587  1
  O  O249  1  0.915337  0.663191  0.267068  1
  O  O250  1  0.914763  0.338131  0.267017  1
  O  O251  1  0.949807  0.749722  0.368644  1
  O  O252  1  0.949994  0.250837  0.369273  1
  O  O253  1  0.949676  0.749773  0.300031  1
  O  O254  1  0.950134  0.249109  0.299371  1
  O  O255  1  0.848317  -0.000000  0.340519  1
  O  O256  1  0.849173  0.499675  0.328438  1
  O  O257  1  0.749481  0.000000  0.333744  1
  O  O258  1  0.750648  0.500404  0.333699  1
  O  O259  1  0.949360  0.000000  0.337297  1
  O  O260  1  0.949799  0.500801  0.331136  1
  O  O261  1  0.000000  0.124592  0.421370  1
  O  O262  1  0.928504  -0.000000  0.421375  1
  O  O263  1  0.928453  0.500605  0.247186  1
  O  O264  1  -0.000000  0.375567  0.247152  1
  O  O265  1  0.998446  0.249613  0.334351  1
  O  O266  1  0.000000  0.400812  0.356861  1
  O  O267  1  -0.000000  0.900912  0.311705  1
  O  O268  1  0.149841  0.259891  0.546793  1
  O  O269  1  0.149735  0.740196  0.546777  1
  O  O270  1  0.149737  0.239782  0.470476  1
  O  O271  1  0.149825  0.759352  0.470455  1
  O  O272  1  0.319412  0.750103  0.508619  1
  O  O273  1  0.180506  0.250034  0.508631  1
  O  O274  1  0.319452  0.249987  0.508634  1
  O  O275  1  0.180534  0.749916  0.508622  1
  O  O276  1  0.249959  0.750130  0.536651  1
  O  O277  1  0.250040  0.249990  0.536664  1
  O  O278  1  0.249952  0.250450  0.480604  1
  O  O279  1  0.250033  0.750166  0.480595  1
  O  O280  1  0.309260  0.600231  0.531275  1
  O  O281  1  0.190124  0.100239  0.531318  1
  O  O282  1  0.309947  0.399834  0.531360  1
  O  O283  1  0.189964  0.899852  0.531326  1
  O  O284  1  0.190322  0.399765  0.485873  1
  O  O285  1  0.309146  0.899986  0.485928  1
  O  O286  1  0.191138  0.600142  0.485923  1
  O  O287  1  0.308770  0.100296  0.485927  1
  O  O288  1  0.095160  0.408946  0.540765  1
  O  O289  1  0.094686  0.591637  0.540638  1
  O  O290  1  0.094766  0.090834  0.476440  1
  O  O291  1  0.094669  0.907882  0.476642  1
  O  O292  1  0.084712  0.336884  0.575875  1
  O  O293  1  0.085106  0.662193  0.575899  1
  O  O294  1  0.084593  0.163152  0.441355  1
  O  O295  1  0.085435  0.838047  0.441295  1
  O  O296  1  0.050380  0.250067  0.542932  1
  O  O297  1  0.050008  0.750454  0.543347  1
  O  O298  1  0.050328  0.250104  0.474310  1
  O  O299  1  0.050074  0.748927  0.473631  1
  O  O300  1  0.150776  0.500405  0.514468  1
  O  O301  1  0.151708  0.000000  0.502362  1
  O  O302  1  0.250522  -0.000000  0.509159  1
  O  O303  1  0.249345  0.498429  0.509019  1
  O  O304  1  0.049940  0.499540  0.511892  1
  O  O305  1  0.050671  -0.000000  0.505564  1
  O  O306  1  0.071622  0.499500  0.595732  1
  O  O307  1  0.000000  0.599140  0.486101  1
  O  O308  1  -0.000000  0.099085  0.531198  1
  O  O309  1  0.071567  0.000000  0.421488  1
  O  O310  1  0.001098  0.751145  0.508440  1
  O  O311  1  -0.000000  0.875374  0.421446  1
  O  O312  1  0.149893  0.759406  0.721082  1
  O  O313  1  0.149789  0.240032  0.721027  1
  O  O314  1  0.149844  0.740209  0.644768  1
  O  O315  1  0.149918  0.259800  0.644733  1
  O  O316  1  0.319560  0.250091  0.682921  1
  O  O317  1  0.180611  0.749988  0.682928  1
  O  O318  1  0.319603  0.750136  0.682930  1
  O  O319  1  0.180584  0.250118  0.682887  1
  O  O320  1  0.250004  0.250240  0.710915  1
  O  O321  1  0.250140  0.750411  0.710940  1
  O  O322  1  0.250059  0.750106  0.654918  1
  O  O323  1  0.250144  0.250307  0.654888  1
  O  O324  1  0.308978  0.100245  0.705554  1
  O  O325  1  0.191359  0.600245  0.705614  1
  O  O326  1  0.309426  0.900013  0.705591  1
  O  O327  1  0.190624  0.399879  0.705619  1
  O  O328  1  0.190039  0.899876  0.660212  1
  O  O329  1  0.310279  0.399940  0.660209  1
  O  O330  1  0.190387  0.100295  0.660220  1
  O  O331  1  0.309579  0.600411  0.660239  1
  O  O332  1  0.094773  0.908060  0.714897  1
  O  O333  1  0.094765  0.091049  0.715037  1
  O  O334  1  0.094507  0.592057  0.650989  1
  O  O335  1  0.095510  0.409232  0.650722  1
  O  O336  1  0.085529  0.838237  0.750239  1
  O  O337  1  0.084909  0.162879  0.750181  1
  O  O338  1  0.085472  0.661785  0.615604  1
  O  O339  1  0.084765  0.336986  0.615664  1
  O  O340  1  0.050101  0.749191  0.717930  1
  O  O341  1  0.050301  0.250176  0.717349  1
  O  O342  1  0.049988  0.750979  0.647919  1
  O  O343  1  0.050443  0.250458  0.648624  1
  O  O344  1  0.151702  -0.000000  0.689139  1
  O  O345  1  0.151267  0.500678  0.676984  1
  O  O346  1  0.249737  0.498791  0.682517  1
  O  O347  1  0.250533  0.000000  0.682430  1
  O  O348  1  0.050662  0.000000  0.685965  1
  O  O349  1  0.050646  0.498965  0.679805  1
  O  O350  1  -0.000000  0.624497  0.595823  1
  O  O351  1  0.000000  0.099178  0.660320  1
  O  O352  1  0.001875  0.750298  0.682941  1
  O  O353  1  -0.000000  0.599139  0.705460  1
  O  O354  1  0.350260  0.759512  0.546743  1
  O  O355  1  0.649861  0.759292  0.546806  1
  O  O356  1  0.350293  0.240139  0.546771  1
  O  O357  1  0.649826  0.240393  0.546747  1
  O  O358  1  0.649857  0.740442  0.470466  1
  O  O359  1  0.350323  0.740419  0.470505  1
  O  O360  1  0.649838  0.259594  0.470455  1
  O  O361  1  0.350229  0.259386  0.470484  1
  O  O362  1  0.594804  0.907951  0.540612  1
  O  O363  1  0.404790  0.908855  0.540682  1
  O  O364  1  0.595353  0.090884  0.540758  1
  O  O365  1  0.405508  0.091724  0.540583  1
  O  O366  1  0.404911  0.590913  0.476486  1
  O  O367  1  0.594761  0.591823  0.476640  1
  O  O368  1  0.405428  0.407835  0.476722  1
  O  O369  1  0.595248  0.408920  0.476490  1
  O  O370  1  0.585590  0.838170  0.576010  1
  O  O371  1  0.415358  0.836905  0.575769  1
  O  O372  1  0.584784  0.162872  0.575830  1
  O  O373  1  0.414791  0.162155  0.575911  1
  O  O374  1  0.415414  0.663144  0.441455  1
  O  O375  1  0.585589  0.661645  0.441262  1
  O  O376  1  0.414599  0.338045  0.441338  1
  O  O377  1  0.584954  0.337393  0.441349  1
  O  O378  1  0.550065  0.749211  0.543711  1
  O  O379  1  0.449764  0.750070  0.542863  1
  O  O380  1  0.550399  0.249721  0.542900  1
  O  O381  1  0.450109  0.250679  0.543500  1
  O  O382  1  0.449785  0.749841  0.474403  1
  O  O383  1  0.550072  0.750621  0.473566  1
  O  O384  1  0.450064  0.248924  0.473612  1
  O  O385  1  0.550371  0.250086  0.474172  1
  O  O386  1  0.349051  -0.000000  0.514479  1
  O  O387  1  0.651048  0.000000  0.514487  1
  O  O388  1  0.650612  0.500174  0.502844  1
  O  O389  1  0.348080  0.500008  0.502394  1
  O  O390  1  0.550481  0.000000  0.511774  1
  O  O391  1  0.449653  -0.000000  0.511695  1
  O  O392  1  0.448912  0.500631  0.505699  1
  O  O393  1  0.549915  0.499416  0.505355  1
  O  O394  1  0.500152  0.624569  0.421508  1
  O  O395  1  0.499892  0.375413  0.421515  1
  O  O396  1  0.428494  0.500362  0.421578  1
  O  O397  1  0.500312  0.900778  0.486032  1
  O  O398  1  0.500123  0.099141  0.486034  1
  O  O399  1  0.500227  0.599180  0.531201  1
  O  O400  1  0.499996  0.400832  0.531192  1
  O  O401  1  0.502207  0.750057  0.508638  1
  O  O402  1  0.498462  0.250330  0.508537  1
  O  O403  1  0.428495  0.000000  0.595627  1
  O  O404  1  0.500119  0.875421  0.595731  1
  O  O405  1  0.350213  0.259428  0.721092  1
  O  O406  1  0.649723  0.259405  0.721069  1
  O  O407  1  0.350345  0.740456  0.721098  1
  O  O408  1  0.649831  0.740742  0.721104  1
  O  O409  1  0.649816  0.240070  0.644720  1
  O  O410  1  0.350329  0.239832  0.644798  1
  O  O411  1  0.649710  0.760089  0.644798  1
  O  O412  1  0.350224  0.759978  0.644757  1
  O  O413  1  0.594909  0.408373  0.715009  1
  O  O414  1  0.404938  0.408602  0.715047  1
  O  O415  1  0.595607  0.591031  0.715106  1
  O  O416  1  0.405481  0.591684  0.715041  1
  O  O417  1  0.405863  0.091723  0.651003  1
  O  O418  1  0.595080  0.091056  0.650761  1
  O  O419  1  0.405373  0.908590  0.650825  1
  O  O420  1  0.594469  0.908382  0.651008  1
  O  O421  1  0.584711  0.336829  0.750188  1
  O  O422  1  0.414646  0.338055  0.750276  1
  O  O423  1  0.584837  0.662826  0.750162  1
  O  O424  1  0.414802  0.662449  0.750331  1
  O  O425  1  0.414697  0.161621  0.615633  1
  O  O426  1  0.584756  0.163044  0.615626  1
  O  O427  1  0.414731  0.837737  0.615529  1
  O  O428  1  0.584779  0.837686  0.615753  1
  O  O429  1  0.550230  0.249726  0.717306  1
  O  O430  1  0.449945  0.249787  0.717850  1
  O  O431  1  0.550356  0.749373  0.717208  1
  O  O432  1  0.450084  0.750740  0.717895  1
  O  O433  1  0.450102  0.251141  0.647934  1
  O  O434  1  0.550351  0.249989  0.648548  1
  O  O435  1  0.449913  0.749197  0.647936  1
  O  O436  1  0.550175  0.749372  0.648505  1
  O  O437  1  0.348495  0.500600  0.689134  1
  O  O438  1  0.651870  0.499509  0.689098  1
  O  O439  1  0.650941  0.000000  0.677032  1
  O  O440  1  0.349003  -0.000000  0.676913  1
  O  O441  1  0.550767  0.500705  0.686109  1
  O  O442  1  0.449509  0.499492  0.686113  1
  O  O443  1  0.449500  -0.000000  0.679963  1
  O  O444  1  0.550335  0.000000  0.679863  1
  O  O445  1  0.571558  -0.000000  0.595831  1
  O  O446  1  0.500373  0.400834  0.660493  1
  O  O447  1  0.499796  0.598941  0.660442  1
  O  O448  1  0.499715  0.099113  0.705624  1
  O  O449  1  0.500429  0.900639  0.705574  1
  O  O450  1  0.498391  0.249405  0.682898  1
  O  O451  1  0.498239  0.750251  0.682879  1
  O  O452  1  0.499905  0.124542  0.595756  1
  O  O453  1  0.850253  0.259751  0.546776  1
  O  O454  1  0.850264  0.740021  0.546785  1
  O  O455  1  0.850273  0.239979  0.470446  1
  O  O456  1  0.850241  0.760224  0.470457  1
  O  O457  1  0.819599  0.250001  0.508598  1
  O  O458  1  0.680599  0.749954  0.508631  1
  O  O459  1  0.819608  0.749963  0.508625  1
  O  O460  1  0.680623  0.249961  0.508599  1
  O  O461  1  0.750077  0.249706  0.536616  1
  O  O462  1  0.750077  0.750238  0.536639  1
  O  O463  1  0.750082  0.749485  0.480620  1
  O  O464  1  0.750079  0.250037  0.480582  1
  O  O465  1  0.810077  0.100089  0.531274  1
  O  O466  1  0.691144  0.600122  0.531317  1
  O  O467  1  0.810085  0.899826  0.531287  1
  O  O468  1  0.691102  0.399752  0.531288  1
  O  O469  1  0.691148  0.899690  0.485916  1
  O  O470  1  0.809977  0.399809  0.485883  1
  O  O471  1  0.691016  0.100119  0.485923  1
  O  O472  1  0.810034  0.600234  0.485913  1
  O  O473  1  0.905625  0.407891  0.540568  1
  O  O474  1  0.904951  0.590798  0.540837  1
  O  O475  1  0.905651  0.091704  0.476590  1
  O  O476  1  0.905515  0.908733  0.476478  1
  O  O477  1  0.914619  0.338258  0.575952  1
  O  O478  1  0.915344  0.663143  0.575903  1
  O  O479  1  0.914688  0.161772  0.441264  1
  O  O480  1  0.915073  0.837248  0.441266  1
  O  O481  1  0.950099  0.248909  0.543655  1
  O  O482  1  0.949737  0.749752  0.542952  1
  O  O483  1  0.950071  0.250869  0.473608  1
  O  O484  1  0.949781  0.749396  0.473979  1
  O  O485  1  0.847893  0.499697  0.514949  1
  O  O486  1  0.848343  0.000000  0.502288  1
  O  O487  1  0.749192  0.500006  0.507956  1
  O  O488  1  0.749522  -0.000000  0.509119  1
  O  O489  1  0.948813  0.500713  0.511581  1
  O  O490  1  0.949359  -0.000000  0.505606  1
  O  O491  1  0.998195  0.249917  0.508625  1
  O  O492  1  0.000000  0.400910  0.486096  1
  O  O493  1  -0.000000  0.900863  0.531221  1
  O  O494  1  0.850338  0.759771  0.721015  1
  O  O495  1  0.850195  0.240557  0.721034  1
  O  O496  1  0.850187  0.740047  0.644754  1
  O  O497  1  0.850286  0.259702  0.644744  1
  O  O498  1  0.819453  0.749894  0.682890  1
  O  O499  1  0.680519  0.249935  0.682879  1
  O  O500  1  0.819445  0.250047  0.682885  1
  O  O501  1  0.680557  0.749984  0.682930  1
  O  O502  1  0.750077  0.749933  0.710940  1
  O  O503  1  0.749957  0.249916  0.710909  1
  O  O504  1  0.750028  0.249799  0.654848  1
  O  O505  1  0.749943  0.749950  0.654876  1
  O  O506  1  0.809176  0.600138  0.705595  1
  O  O507  1  0.690905  0.100125  0.705583  1
  O  O508  1  0.808885  0.399847  0.705585  1
  O  O509  1  0.691108  0.899879  0.705598  1
  O  O510  1  0.690268  0.399719  0.660146  1
  O  O511  1  0.809876  0.899727  0.660198  1
  O  O512  1  0.689973  0.600209  0.660179  1
  O  O513  1  0.809983  0.100118  0.660187  1
  O  O514  1  0.905296  0.908838  0.714981  1
  O  O515  1  0.905347  0.091885  0.714879  1
  O  O516  1  0.904821  0.590825  0.650743  1
  O  O517  1  0.905507  0.407981  0.650988  1
  O  O518  1  0.915346  0.836973  0.750111  1
  O  O519  1  0.914519  0.161911  0.750205  1
  O  O520  1  0.915337  0.663191  0.615686  1
  O  O521  1  0.914763  0.338131  0.615635  1
  O  O522  1  0.949807  0.749722  0.717262  1
  O  O523  1  0.949994  0.250837  0.717891  1
  O  O524  1  0.949676  0.749773  0.648648  1
  O  O525  1  0.950134  0.249109  0.647989  1
  O  O526  1  0.848317  -0.000000  0.689136  1
  O  O527  1  0.849173  0.499675  0.677055  1
  O  O528  1  0.749481  -0.000000  0.682362  1
  O  O529  1  0.750648  0.500404  0.682317  1
  O  O530  1  0.949360  -0.000000  0.685914  1
  O  O531  1  0.949799  0.500801  0.679753  1
  O  O532  1  0.928453  0.500605  0.595804  1
  O  O533  1  -0.000000  0.375567  0.595770  1
  O  O534  1  0.998446  0.249613  0.682968  1
  O  O535  1  -0.000000  0.400812  0.705478  1
  O  O536  1  -0.000000  0.900912  0.660322  1
  Si  Si537  1  -0.000000  0.712495  0.136751  1
  Si  Si538  1  0.307484  0.714535  0.183018  1
  Si  Si539  1  0.192443  0.214593  0.183040  1
  Si  Si540  1  0.307635  0.285439  0.183055  1
  Si  Si541  1  0.192343  0.785491  0.183035  1
  Si  Si542  1  0.192299  0.285404  0.136968  1
  Si  Si543  1  0.307578  0.785638  0.136974  1
  Si  Si544  1  0.192534  0.714467  0.136981  1
  Si  Si545  1  0.307434  0.214640  0.136988  1
  Si  Si546  1  0.096233  0.310744  0.203806  1
  Si  Si547  1  0.096180  0.689370  0.203860  1
  Si  Si548  1  0.096086  0.189137  0.116201  1
  Si  Si549  1  0.096363  0.810397  0.116084  1
  Si  Si550  1  0.304496  -0.000000  0.148966  1
  Si  Si551  1  0.195251  0.499880  0.148920  1
  Si  Si552  1  0.195234  0.000000  0.171096  1
  Si  Si553  1  0.304465  0.499908  0.171087  1
  Si  Si554  1  0.098099  0.500123  0.178249  1
  Si  Si555  1  0.098378  -0.000000  0.141716  1
  Si  Si556  1  -0.000000  0.000000  0.170729  1
  Si  Si557  1  0.000000  0.787366  0.183080  1
  Si  Si558  1  0.000000  0.787458  0.311141  1
  Si  Si559  1  0.307524  0.214571  0.357313  1
  Si  Si560  1  0.192654  0.714587  0.357332  1
  Si  Si561  1  0.307736  0.785666  0.357336  1
  Si  Si562  1  0.192413  0.285511  0.357307  1
  Si  Si563  1  0.192440  0.785502  0.311279  1
  Si  Si564  1  0.307778  0.285549  0.311270  1
  Si  Si565  1  0.192579  0.214656  0.311252  1
  Si  Si566  1  0.307641  0.714734  0.311287  1
  Si  Si567  1  0.096456  0.810563  0.378216  1
  Si  Si568  1  0.096215  0.189197  0.378100  1
  Si  Si569  1  0.096301  0.689467  0.290398  1
  Si  Si570  1  0.096363  0.310893  0.290495  1
  Si  Si571  1  0.304856  0.500109  0.323217  1
  Si  Si572  1  0.195314  0.000000  0.323208  1
  Si  Si573  1  0.195613  0.500037  0.345355  1
  Si  Si574  1  0.304640  -0.000000  0.345284  1
  Si  Si575  1  0.098395  -0.000000  0.352561  1
  Si  Si576  1  0.098471  0.500279  0.316047  1
  Si  Si577  1  0.061407  0.611456  0.247143  1
  Si  Si578  1  0.061127  0.387634  0.247149  1
  Si  Si579  1  -0.000000  0.499954  0.345029  1
  Si  Si580  1  -0.000000  -0.000000  0.323560  1
  Si  Si581  1  0.000000  0.712552  0.357463  1
  Si  Si582  1  0.000000  0.212643  0.311154  1
  Si  Si583  1  0.499729  0.500031  0.170741  1
  Si  Si584  1  0.596470  0.810544  0.203971  1
  Si  Si585  1  0.403828  0.810623  0.203713  1
  Si  Si586  1  0.596316  0.189167  0.203766  1
  Si  Si587  1  0.403841  0.189339  0.203864  1
  Si  Si588  1  0.403881  0.689308  0.116283  1
  Si  Si589  1  0.596453  0.689259  0.116063  1
  Si  Si590  1  0.403704  0.310415  0.116128  1
  Si  Si591  1  0.596351  0.310829  0.116174  1
  Si  Si592  1  0.598374  0.000000  0.178261  1
  Si  Si593  1  0.401800  0.000000  0.178203  1
  Si  Si594  1  0.401404  0.499729  0.141758  1
  Si  Si595  1  0.598060  0.500152  0.141763  1
  Si  Si596  1  0.500137  -0.000000  0.149244  1
  Si  Si597  1  0.499953  0.287358  0.183112  1
  Si  Si598  1  0.500423  0.787322  0.136848  1
  Si  Si599  1  0.499966  0.212565  0.136782  1
  Si  Si600  1  0.500408  0.712625  0.183181  1
  Si  Si601  1  0.438866  0.887773  0.247040  1
  Si  Si602  1  0.438699  0.111547  0.247131  1
  Si  Si603  1  0.561152  0.112272  0.247120  1
  Si  Si604  1  0.561364  0.611642  0.421405  1
  Si  Si605  1  0.499997  0.000000  0.345170  1
  Si  Si606  1  0.596165  0.310378  0.378127  1
  Si  Si607  1  0.403586  0.310779  0.378240  1
  Si  Si608  1  0.596381  0.689289  0.378115  1
  Si  Si609  1  0.403800  0.689445  0.378269  1
  Si  Si610  1  0.403908  0.189206  0.290437  1
  Si  Si611  1  0.596208  0.189223  0.290466  1
  Si  Si612  1  0.403722  0.810817  0.290358  1
  Si  Si613  1  0.596020  0.810659  0.290556  1
  Si  Si614  1  0.598700  0.499824  0.352609  1
  Si  Si615  1  0.401663  0.500151  0.352645  1
  Si  Si616  1  0.401949  -0.000000  0.316070  1
  Si  Si617  1  0.598154  0.000000  0.316098  1
  Si  Si618  1  0.500122  0.499939  0.323725  1
  Si  Si619  1  0.499914  0.787184  0.357460  1
  Si  Si620  1  0.561333  0.888408  0.247220  1
  Si  Si621  1  0.499707  0.212598  0.357494  1
  Si  Si622  1  0.499666  0.712363  0.311132  1
  Si  Si623  1  0.499948  0.287441  0.311165  1
  Si  Si624  1  -0.000000  0.212512  0.183172  1
  Si  Si625  1  0.000000  0.287483  0.136854  1
  Si  Si626  1  0.807708  0.214445  0.183005  1
  Si  Si627  1  0.692577  0.714481  0.183034  1
  Si  Si628  1  0.807710  0.785476  0.183032  1
  Si  Si629  1  0.692569  0.285399  0.183003  1
  Si  Si630  1  0.692585  0.785323  0.136986  1
  Si  Si631  1  0.807696  0.285426  0.136948  1
  Si  Si632  1  0.692547  0.214474  0.136962  1
  Si  Si633  1  0.807756  0.714554  0.136972  1
  Si  Si634  1  0.903792  0.310487  0.203927  1
  Si  Si635  1  0.903850  0.689155  0.203825  1
  Si  Si636  1  0.903820  0.189274  0.116064  1
  Si  Si637  1  0.903863  0.810760  0.116106  1
  Si  Si638  1  0.804593  0.499979  0.148879  1
  Si  Si639  1  0.695530  0.000000  0.148943  1
  Si  Si640  1  0.695372  0.499967  0.171025  1
  Si  Si641  1  0.804834  -0.000000  0.171033  1
  Si  Si642  1  0.901324  0.499724  0.178300  1
  Si  Si643  1  0.901769  0.000000  0.141702  1
  Si  Si644  1  0.000000  0.500048  0.149320  1
  Si  Si645  1  0.901855  0.499750  0.316059  1
  Si  Si646  1  0.901666  -0.000000  0.352532  1
  Si  Si647  1  0.807618  0.714490  0.357308  1
  Si  Si648  1  0.692409  0.214465  0.357294  1
  Si  Si649  1  0.807475  0.285508  0.357291  1
  Si  Si650  1  0.692557  0.785547  0.357329  1
  Si  Si651  1  0.692451  0.285338  0.311227  1
  Si  Si652  1  0.807543  0.785372  0.311248  1
  Si  Si653  1  0.692343  0.714583  0.311269  1
  Si  Si654  1  0.807634  0.214473  0.311238  1
  Si  Si655  1  0.903925  0.810677  0.378042  1
  Si  Si656  1  0.903636  0.189458  0.378173  1
  Si  Si657  1  0.903804  0.689187  0.290524  1
  Si  Si658  1  0.903841  0.310510  0.290421  1
  Si  Si659  1  0.804760  0.000000  0.323181  1
  Si  Si660  1  0.695377  0.499940  0.323130  1
  Si  Si661  1  0.695496  -0.000000  0.345311  1
  Si  Si662  1  0.804574  0.500011  0.345312  1
  Si  Si663  1  0.938966  0.887643  0.421388  1
  Si  Si664  1  -0.000000  0.287399  0.357487  1
  Si  Si665  1  0.938662  0.388657  0.247172  1
  Si  Si666  1  0.938638  0.111441  0.421403  1
  Si  Si667  1  0.938953  0.612460  0.247181  1
  Si  Si668  1  -0.000000  0.712495  0.485368  1
  Si  Si669  1  0.307484  0.714535  0.531635  1
  Si  Si670  1  0.192443  0.214593  0.531658  1
  Si  Si671  1  0.307635  0.285439  0.531672  1
  Si  Si672  1  0.192343  0.785491  0.531653  1
  Si  Si673  1  0.192299  0.285404  0.485586  1
  Si  Si674  1  0.307578  0.785638  0.485592  1
  Si  Si675  1  0.192534  0.714467  0.485598  1
  Si  Si676  1  0.307434  0.214640  0.485606  1
  Si  Si677  1  0.096233  0.310744  0.552424  1
  Si  Si678  1  0.096180  0.689370  0.552478  1
  Si  Si679  1  0.096086  0.189137  0.464819  1
  Si  Si680  1  0.096363  0.810397  0.464702  1
  Si  Si681  1  0.304496  -0.000000  0.497584  1
  Si  Si682  1  0.195251  0.499880  0.497538  1
  Si  Si683  1  0.195234  0.000000  0.519714  1
  Si  Si684  1  0.304465  0.499908  0.519705  1
  Si  Si685  1  0.098099  0.500123  0.526866  1
  Si  Si686  1  0.098378  -0.000000  0.490334  1
  Si  Si687  1  0.000000  -0.000000  0.519347  1
  Si  Si688  1  0.061436  0.888553  0.421461  1
  Si  Si689  1  -0.000000  0.787366  0.531698  1
  Si  Si690  1  0.061095  0.112383  0.421447  1
  Si  Si691  1  -0.000000  0.787458  0.659759  1
  Si  Si692  1  0.307524  0.214571  0.705931  1
  Si  Si693  1  0.192654  0.714587  0.705949  1
  Si  Si694  1  0.307736  0.785666  0.705954  1
  Si  Si695  1  0.192413  0.285511  0.705924  1
  Si  Si696  1  0.192440  0.785502  0.659897  1
  Si  Si697  1  0.307778  0.285549  0.659887  1
  Si  Si698  1  0.192579  0.214656  0.659869  1
  Si  Si699  1  0.307641  0.714734  0.659905  1
  Si  Si700  1  0.096456  0.810563  0.726834  1
  Si  Si701  1  0.096215  0.189197  0.726718  1
  Si  Si702  1  0.096301  0.689467  0.639016  1
  Si  Si703  1  0.096363  0.310893  0.639112  1
  Si  Si704  1  0.304856  0.500109  0.671835  1
  Si  Si705  1  0.195314  -0.000000  0.671825  1
  Si  Si706  1  0.195613  0.500037  0.693973  1
  Si  Si707  1  0.304640  0.000000  0.693902  1
  Si  Si708  1  0.098395  -0.000000  0.701178  1
  Si  Si709  1  0.098471  0.500279  0.664665  1
  Si  Si710  1  0.061407  0.611456  0.595761  1
  Si  Si711  1  0.061127  0.387634  0.595767  1
  Si  Si712  1  -0.000000  0.499954  0.693646  1
  Si  Si713  1  -0.000000  -0.000000  0.672177  1
  Si  Si714  1  0.000000  0.712552  0.706081  1
  Si  Si715  1  -0.000000  0.212643  0.659772  1
  Si  Si716  1  0.499729  0.500031  0.519359  1
  Si  Si717  1  0.596470  0.810544  0.552589  1
  Si  Si718  1  0.403828  0.810623  0.552331  1
  Si  Si719  1  0.596316  0.189167  0.552383  1
  Si  Si720  1  0.403841  0.189339  0.552482  1
  Si  Si721  1  0.403881  0.689308  0.464901  1
  Si  Si722  1  0.596453  0.689259  0.464681  1
  Si  Si723  1  0.403704  0.310415  0.464746  1
  Si  Si724  1  0.596351  0.310829  0.464791  1
  Si  Si725  1  0.598374  0.000000  0.526878  1
  Si  Si726  1  0.401800  0.000000  0.526821  1
  Si  Si727  1  0.401404  0.499729  0.490375  1
  Si  Si728  1  0.598060  0.500152  0.490381  1
  Si  Si729  1  0.500137  -0.000000  0.497862  1
  Si  Si730  1  0.438904  0.612223  0.421569  1
  Si  Si731  1  0.499953  0.287358  0.531729  1
  Si  Si732  1  0.500423  0.787322  0.485465  1
  Si  Si733  1  0.499966  0.212565  0.485400  1
  Si  Si734  1  0.500408  0.712625  0.531798  1
  Si  Si735  1  0.438866  0.887773  0.595658  1
  Si  Si736  1  0.438674  0.388429  0.421506  1
  Si  Si737  1  0.438699  0.111547  0.595749  1
  Si  Si738  1  0.561152  0.112272  0.595738  1
  Si  Si739  1  0.561147  0.387772  0.421449  1
  Si  Si740  1  0.499997  -0.000000  0.693788  1
  Si  Si741  1  0.596165  0.310378  0.726745  1
  Si  Si742  1  0.403586  0.310779  0.726857  1
  Si  Si743  1  0.596381  0.689289  0.726733  1
  Si  Si744  1  0.403800  0.689445  0.726887  1
  Si  Si745  1  0.403908  0.189206  0.639055  1
  Si  Si746  1  0.596208  0.189223  0.639083  1
  Si  Si747  1  0.403722  0.810817  0.638975  1
  Si  Si748  1  0.596020  0.810659  0.639173  1
  Si  Si749  1  0.598700  0.499824  0.701226  1
  Si  Si750  1  0.401663  0.500151  0.701262  1
  Si  Si751  1  0.401949  0.000000  0.664687  1
  Si  Si752  1  0.598154  -0.000000  0.664715  1
  Si  Si753  1  0.500122  0.499939  0.672343  1
  Si  Si754  1  0.499914  0.787184  0.706077  1
  Si  Si755  1  0.561333  0.888408  0.595837  1
  Si  Si756  1  0.499707  0.212598  0.706111  1
  Si  Si757  1  0.499666  0.712363  0.659749  1
  Si  Si758  1  0.499948  0.287441  0.659783  1
  Si  Si759  1  0.000000  0.212512  0.531790  1
  Si  Si760  1  0.000000  0.287483  0.485472  1
  Si  Si761  1  0.807708  0.214445  0.531622  1
  Si  Si762  1  0.692577  0.714481  0.531652  1
  Si  Si763  1  0.807710  0.785476  0.531650  1
  Si  Si764  1  0.692569  0.285399  0.531621  1
  Si  Si765  1  0.692585  0.785323  0.485604  1
  Si  Si766  1  0.807696  0.285426  0.485565  1
  Si  Si767  1  0.692547  0.214474  0.485580  1
  Si  Si768  1  0.807756  0.714554  0.485590  1
  Si  Si769  1  0.903792  0.310487  0.552545  1
  Si  Si770  1  0.903850  0.689155  0.552443  1
  Si  Si771  1  0.903820  0.189274  0.464682  1
  Si  Si772  1  0.903863  0.810760  0.464723  1
  Si  Si773  1  0.804593  0.499979  0.497496  1
  Si  Si774  1  0.695530  0.000000  0.497561  1
  Si  Si775  1  0.695372  0.499967  0.519643  1
  Si  Si776  1  0.804834  0.000000  0.519651  1
  Si  Si777  1  0.901324  0.499724  0.526918  1
  Si  Si778  1  0.901769  -0.000000  0.490320  1
  Si  Si779  1  -0.000000  0.500048  0.497938  1
  Si  Si780  1  0.901855  0.499750  0.664676  1
  Si  Si781  1  0.901666  0.000000  0.701150  1
  Si  Si782  1  0.807618  0.714490  0.705926  1
  Si  Si783  1  0.692409  0.214465  0.705912  1
  Si  Si784  1  0.807475  0.285508  0.705908  1
  Si  Si785  1  0.692557  0.785547  0.705947  1
  Si  Si786  1  0.692451  0.285338  0.659844  1
  Si  Si787  1  0.807543  0.785372  0.659865  1
  Si  Si788  1  0.692343  0.714583  0.659887  1
  Si  Si789  1  0.807634  0.214473  0.659856  1
  Si  Si790  1  0.903925  0.810677  0.726660  1
  Si  Si791  1  0.903636  0.189458  0.726790  1
  Si  Si792  1  0.903804  0.689187  0.639142  1
  Si  Si793  1  0.903841  0.310510  0.639039  1
  Si  Si794  1  0.804760  0.000000  0.671798  1
  Si  Si795  1  0.695377  0.499940  0.671747  1
  Si  Si796  1  0.695496  -0.000000  0.693929  1
  Si  Si797  1  0.804574  0.500011  0.693929  1
  Si  Si798  1  0.000000  0.287399  0.706105  1
  Si  Si799  1  0.938662  0.388657  0.595789  1
  Si  Si800  1  0.938953  0.612460  0.595799  1
  H  H801  1  0.084593  0.163152  0.078605  1
  H  H802  1  0.085435  0.838047  0.078545  1
  H  H803  1  0.415414  0.663144  0.078705  1
  H  H804  1  0.585589  0.661645  0.078512  1
  H  H805  1  0.414599  0.338045  0.078588  1
  H  H806  1  0.584954  0.337393  0.078599  1
  H  H807  1  0.914688  0.161772  0.078514  1
  H  H808  1  0.915073  0.837248  0.078516  1
  H  H809  1  0.085529  0.838237  0.764371  1
  H  H810  1  0.084909  0.162879  0.764313  1
  H  H811  1  0.584711  0.336829  0.764321  1
  H  H812  1  0.414646  0.338055  0.764408  1
  H  H813  1  0.584837  0.662826  0.764294  1
  H  H814  1  0.414802  0.662449  0.764463  1
  H  H815  1  0.915346  0.836973  0.764243  1
  H  H816  1  0.914519  0.161911  0.764337  1
