# generated using pymatgen
data_Si17H2O35
_symmetry_space_group_name_H-M   'P 1'
_cell_length_a   25.36503145
_cell_length_b   13.87769178
_cell_length_c   46.53683193
_cell_angle_alpha   90.00000000
_cell_angle_beta   90.00000000
_cell_angle_gamma   90.00000000
_symmetry_Int_Tables_number   1
_chemical_formula_structural   Si17H2O35
_chemical_formula_sum   'Si136 H16 O280'
_cell_volume   16381.3412516
_cell_formula_units_Z   8
loop_
 _symmetry_equiv_pos_site_id
 _symmetry_equiv_pos_as_xyz
  1  'x, y, z'
loop_
 _atom_site_type_symbol
 _atom_site_label
 _atom_site_symmetry_multiplicity
 _atom_site_fract_x
 _atom_site_fract_y
 _atom_site_fract_z
 _atom_site_occupancy
  O  O1  1  0.084712  0.336884  0.126781  1
  O  O2  1  0.085106  0.662193  0.126814  1
  O  O3  1  0.071622  0.499500  0.153955  1
  O  O4  1  0.149893  0.759406  0.325493  1
  O  O5  1  0.149789  0.240032  0.325418  1
  O  O6  1  0.149844  0.740209  0.221060  1
  O  O7  1  0.149918  0.259800  0.221012  1
  O  O8  1  0.319560  0.250091  0.273272  1
  O  O9  1  0.180611  0.749988  0.273281  1
  O  O10  1  0.319603  0.750136  0.273283  1
  O  O11  1  0.180584  0.250118  0.273225  1
  O  O12  1  0.250004  0.250240  0.311580  1
  O  O13  1  0.250140  0.750411  0.311615  1
  O  O14  1  0.250059  0.750106  0.234950  1
  O  O15  1  0.250144  0.250307  0.234909  1
  O  O16  1  0.308978  0.100245  0.304243  1
  O  O17  1  0.191359  0.600245  0.304326  1
  O  O18  1  0.309426  0.900013  0.304294  1
  O  O19  1  0.190624  0.399879  0.304333  1
  O  O20  1  0.190039  0.899876  0.242195  1
  O  O21  1  0.310279  0.399940  0.242191  1
  O  O22  1  0.190387  0.100295  0.242206  1
  O  O23  1  0.309579  0.600411  0.242232  1
  O  O24  1  0.094773  0.908060  0.317029  1
  O  O25  1  0.094765  0.091049  0.317221  1
  O  O26  1  0.094507  0.592057  0.229573  1
  O  O27  1  0.095510  0.409232  0.229207  1
  O  O28  1  0.085529  0.838237  0.365394  1
  O  O29  1  0.084909  0.162879  0.365314  1
  O  O30  1  0.085472  0.661785  0.181149  1
  O  O31  1  0.084765  0.336986  0.181232  1
  O  O32  1  0.050101  0.749191  0.321180  1
  O  O33  1  0.050301  0.250176  0.320385  1
  O  O34  1  0.049988  0.750979  0.225372  1
  O  O35  1  0.050443  0.250458  0.226337  1
  O  O36  1  0.151702  0.000000  0.281780  1
  O  O37  1  0.151267  0.500678  0.265147  1
  O  O38  1  0.249737  0.498791  0.272719  1
  O  O39  1  0.250533  -0.000000  0.272599  1
  O  O40  1  0.050662  -0.000000  0.277436  1
  O  O41  1  0.050646  0.498965  0.269007  1
  O  O42  1  0.000000  0.624497  0.154080  1
  O  O43  1  -0.000000  0.099178  0.242343  1
  O  O44  1  0.001875  0.750298  0.273299  1
  O  O45  1  0.000000  0.599139  0.304115  1
  O  O46  1  0.350213  0.259428  0.325508  1
  O  O47  1  0.649723  0.259405  0.325476  1
  O  O48  1  0.350345  0.740456  0.325516  1
  O  O49  1  0.649831  0.740742  0.325523  1
  O  O50  1  0.649816  0.240070  0.220994  1
  O  O51  1  0.350329  0.239832  0.221102  1
  O  O52  1  0.649710  0.760089  0.221102  1
  O  O53  1  0.350224  0.759978  0.221044  1
  O  O54  1  0.594909  0.408373  0.317183  1
  O  O55  1  0.404938  0.408602  0.317235  1
  O  O56  1  0.595607  0.591031  0.317316  1
  O  O57  1  0.405481  0.591684  0.317226  1
  O  O58  1  0.405863  0.091723  0.229593  1
  O  O59  1  0.595080  0.091056  0.229261  1
  O  O60  1  0.405373  0.908590  0.229348  1
  O  O61  1  0.594469  0.908382  0.229600  1
  O  O62  1  0.584711  0.336829  0.365325  1
  O  O63  1  0.414646  0.338055  0.365445  1
  O  O64  1  0.584837  0.662826  0.365289  1
  O  O65  1  0.414802  0.662449  0.365520  1
  O  O66  1  0.414697  0.161621  0.181189  1
  O  O67  1  0.584756  0.163044  0.181181  1
  O  O68  1  0.414731  0.837737  0.181047  1
  O  O69  1  0.584779  0.837686  0.181354  1
  O  O70  1  0.550230  0.249726  0.320326  1
  O  O71  1  0.449945  0.249787  0.321070  1
  O  O72  1  0.550356  0.749373  0.320192  1
  O  O73  1  0.450084  0.750740  0.321132  1
  O  O74  1  0.450102  0.251141  0.225393  1
  O  O75  1  0.550351  0.249989  0.226233  1
  O  O76  1  0.449913  0.749197  0.225395  1
  O  O77  1  0.550175  0.749372  0.226173  1
  O  O78  1  0.348495  0.500600  0.281773  1
  O  O79  1  0.651870  0.499509  0.281724  1
  O  O80  1  0.650941  0.000000  0.265213  1
  O  O81  1  0.349003  -0.000000  0.265049  1
  O  O82  1  0.550767  0.500705  0.277633  1
  O  O83  1  0.449509  0.499492  0.277639  1
  O  O84  1  0.449500  -0.000000  0.269223  1
  O  O85  1  0.550335  -0.000000  0.269086  1
  O  O86  1  0.571574  0.499672  0.392355  1
  O  O87  1  0.500373  0.400834  0.242579  1
  O  O88  1  0.499796  0.598941  0.242510  1
  O  O89  1  0.499715  0.099113  0.304339  1
  O  O90  1  0.500429  0.900639  0.304271  1
  O  O91  1  0.498391  0.249405  0.273240  1
  O  O92  1  0.498239  0.750251  0.273213  1
  O  O93  1  0.914619  0.338258  0.126887  1
  O  O94  1  0.915344  0.663143  0.126820  1
  O  O95  1  0.850338  0.759771  0.325401  1
  O  O96  1  0.850195  0.240557  0.325427  1
  O  O97  1  0.850187  0.740047  0.221041  1
  O  O98  1  0.850286  0.259702  0.221027  1
  O  O99  1  0.819453  0.749894  0.273229  1
  O  O100  1  0.680519  0.249935  0.273214  1
  O  O101  1  0.819445  0.250047  0.273221  1
  O  O102  1  0.680557  0.749984  0.273284  1
  O  O103  1  0.750077  0.749933  0.311614  1
  O  O104  1  0.749957  0.249916  0.311572  1
  O  O105  1  0.750028  0.249799  0.234854  1
  O  O106  1  0.749943  0.749950  0.234892  1
  O  O107  1  0.809176  0.600138  0.304300  1
  O  O108  1  0.690905  0.100125  0.304283  1
  O  O109  1  0.808885  0.399847  0.304286  1
  O  O110  1  0.691108  0.899879  0.304304  1
  O  O111  1  0.690268  0.399719  0.242104  1
  O  O112  1  0.809876  0.899727  0.242176  1
  O  O113  1  0.689973  0.600209  0.242149  1
  O  O114  1  0.809983  0.100118  0.242161  1
  O  O115  1  0.905296  0.908838  0.317145  1
  O  O116  1  0.905347  0.091885  0.317005  1
  O  O117  1  0.904821  0.590825  0.229237  1
  O  O118  1  0.905507  0.407981  0.229572  1
  O  O119  1  0.915346  0.836973  0.365219  1
  O  O120  1  0.914519  0.161911  0.365347  1
  O  O121  1  0.915337  0.663191  0.181262  1
  O  O122  1  0.914763  0.338131  0.181192  1
  O  O123  1  0.949807  0.749722  0.320265  1
  O  O124  1  0.949994  0.250837  0.321127  1
  O  O125  1  0.949676  0.749773  0.226370  1
  O  O126  1  0.950134  0.249109  0.225467  1
  O  O127  1  0.848317  -0.000000  0.281777  1
  O  O128  1  0.849173  0.499675  0.265244  1
  O  O129  1  0.749481  -0.000000  0.272506  1
  O  O130  1  0.750648  0.500404  0.272444  1
  O  O131  1  0.949360  -0.000000  0.277368  1
  O  O132  1  0.949799  0.500801  0.268936  1
  O  O133  1  -0.000000  0.124592  0.392420  1
  O  O134  1  0.928504  -0.000000  0.392426  1
  O  O135  1  0.928453  0.500605  0.154054  1
  O  O136  1  0.000000  0.375567  0.154007  1
  O  O137  1  0.998446  0.249613  0.273336  1
  O  O138  1  0.000000  0.400812  0.304140  1
  O  O139  1  0.000000  0.900912  0.242346  1
  O  O140  1  0.149841  0.259891  0.564057  1
  O  O141  1  0.149735  0.740196  0.564035  1
  O  O142  1  0.149737  0.239782  0.459620  1
  O  O143  1  0.149825  0.759352  0.459591  1
  O  O144  1  0.319412  0.750103  0.511817  1
  O  O145  1  0.180506  0.250034  0.511833  1
  O  O146  1  0.319452  0.249987  0.511838  1
  O  O147  1  0.180534  0.749916  0.511821  1
  O  O148  1  0.249959  0.750130  0.550177  1
  O  O149  1  0.250040  0.249990  0.550196  1
  O  O150  1  0.249952  0.250450  0.473479  1
  O  O151  1  0.250033  0.750166  0.473466  1
  O  O152  1  0.309260  0.600231  0.542821  1
  O  O153  1  0.190124  0.100239  0.542880  1
  O  O154  1  0.309947  0.399834  0.542938  1
  O  O155  1  0.189964  0.899852  0.542891  1
  O  O156  1  0.190322  0.399765  0.480690  1
  O  O157  1  0.309146  0.899986  0.480766  1
  O  O158  1  0.191138  0.600142  0.480758  1
  O  O159  1  0.308770  0.100296  0.480764  1
  O  O160  1  0.095160  0.408946  0.555808  1
  O  O161  1  0.094686  0.591637  0.555634  1
  O  O162  1  0.094766  0.090834  0.467781  1
  O  O163  1  0.094669  0.907882  0.468058  1
  O  O164  1  0.084712  0.336884  0.603854  1
  O  O165  1  0.085106  0.662193  0.603887  1
  O  O166  1  0.084593  0.163152  0.419769  1
  O  O167  1  0.085435  0.838047  0.419687  1
  O  O168  1  0.050380  0.250067  0.558773  1
  O  O169  1  0.050008  0.750454  0.559341  1
  O  O170  1  0.050328  0.250104  0.464866  1
  O  O171  1  0.050074  0.748927  0.463937  1
  O  O172  1  0.150776  0.500405  0.519822  1
  O  O173  1  0.151708  -0.000000  0.503254  1
  O  O174  1  0.250522  -0.000000  0.512556  1
  O  O175  1  0.249345  0.498429  0.512365  1
  O  O176  1  0.049940  0.499540  0.516297  1
  O  O177  1  0.050671  -0.000000  0.507636  1
  O  O178  1  0.071622  0.499500  0.631028  1
  O  O179  1  -0.000000  0.599140  0.481002  1
  O  O180  1  -0.000000  0.099085  0.542716  1
  O  O181  1  0.071567  -0.000000  0.392581  1
  O  O182  1  0.001098  0.751145  0.511572  1
  O  O183  1  -0.000000  0.875374  0.392523  1
  O  O184  1  0.085472  0.661785  0.658223  1
  O  O185  1  0.084765  0.336986  0.658305  1
  O  O186  1  -0.000000  0.624497  0.631153  1
  O  O187  1  0.350260  0.759512  0.563988  1
  O  O188  1  0.649861  0.759292  0.564075  1
  O  O189  1  0.350293  0.240139  0.564026  1
  O  O190  1  0.649826  0.240393  0.563993  1
  O  O191  1  0.649857  0.740442  0.459606  1
  O  O192  1  0.350323  0.740419  0.459660  1
  O  O193  1  0.649838  0.259594  0.459591  1
  O  O194  1  0.350229  0.259386  0.459630  1
  O  O195  1  0.594804  0.907951  0.555598  1
  O  O196  1  0.404790  0.908855  0.555694  1
  O  O197  1  0.595353  0.090884  0.555798  1
  O  O198  1  0.405508  0.091724  0.555559  1
  O  O199  1  0.404911  0.590913  0.467845  1
  O  O200  1  0.594761  0.591823  0.468055  1
  O  O201  1  0.405428  0.407835  0.468167  1
  O  O202  1  0.595248  0.408920  0.467849  1
  O  O203  1  0.585590  0.838170  0.604039  1
  O  O204  1  0.415358  0.836905  0.603710  1
  O  O205  1  0.584784  0.162872  0.603793  1
  O  O206  1  0.414791  0.162155  0.603904  1
  O  O207  1  0.415414  0.663144  0.419905  1
  O  O208  1  0.585589  0.661645  0.419641  1
  O  O209  1  0.414599  0.338045  0.419745  1
  O  O210  1  0.584954  0.337393  0.419760  1
  O  O211  1  0.550065  0.749211  0.559840  1
  O  O212  1  0.449764  0.750070  0.558679  1
  O  O213  1  0.550399  0.249721  0.558730  1
  O  O214  1  0.450109  0.250679  0.559550  1
  O  O215  1  0.449785  0.749841  0.464994  1
  O  O216  1  0.550072  0.750621  0.463848  1
  O  O217  1  0.450064  0.248924  0.463911  1
  O  O218  1  0.550371  0.250086  0.464678  1
  O  O219  1  0.349051  -0.000000  0.519837  1
  O  O220  1  0.651048  -0.000000  0.519847  1
  O  O221  1  0.650612  0.500174  0.503914  1
  O  O222  1  0.348080  0.500008  0.503298  1
  O  O223  1  0.550481  0.000000  0.516134  1
  O  O224  1  0.449653  0.000000  0.516027  1
  O  O225  1  0.448912  0.500631  0.507821  1
  O  O226  1  0.549915  0.499416  0.507350  1
  O  O227  1  0.500152  0.624569  0.392608  1
  O  O228  1  0.499892  0.375413  0.392617  1
  O  O229  1  0.428494  0.500362  0.392704  1
  O  O230  1  0.500312  0.900778  0.480907  1
  O  O231  1  0.500123  0.099141  0.480910  1
  O  O232  1  0.500227  0.599180  0.542720  1
  O  O233  1  0.499996  0.400832  0.542708  1
  O  O234  1  0.502207  0.750057  0.511843  1
  O  O235  1  0.498462  0.250330  0.511704  1
  O  O236  1  0.850253  0.259751  0.564034  1
  O  O237  1  0.850264  0.740021  0.564046  1
  O  O238  1  0.850273  0.239979  0.459578  1
  O  O239  1  0.850241  0.760224  0.459593  1
  O  O240  1  0.819599  0.250001  0.511788  1
  O  O241  1  0.680599  0.749954  0.511834  1
  O  O242  1  0.819608  0.749963  0.511825  1
  O  O243  1  0.680623  0.249961  0.511790  1
  O  O244  1  0.750077  0.249706  0.550130  1
  O  O245  1  0.750077  0.750238  0.550162  1
  O  O246  1  0.750082  0.749485  0.473502  1
  O  O247  1  0.750079  0.250037  0.473449  1
  O  O248  1  0.810077  0.100089  0.542820  1
  O  O249  1  0.691144  0.600122  0.542878  1
  O  O250  1  0.810085  0.899826  0.542837  1
  O  O251  1  0.691102  0.399752  0.542840  1
  O  O252  1  0.691148  0.899690  0.480748  1
  O  O253  1  0.809977  0.399809  0.480704  1
  O  O254  1  0.691016  0.100119  0.480759  1
  O  O255  1  0.810034  0.600234  0.480744  1
  O  O256  1  0.905625  0.407891  0.555539  1
  O  O257  1  0.904951  0.590798  0.555907  1
  O  O258  1  0.905651  0.091704  0.467987  1
  O  O259  1  0.905515  0.908733  0.467833  1
  O  O260  1  0.914619  0.338258  0.603960  1
  O  O261  1  0.915344  0.663143  0.603893  1
  O  O262  1  0.914688  0.161772  0.419644  1
  O  O263  1  0.915073  0.837248  0.419646  1
  O  O264  1  0.950099  0.248909  0.559763  1
  O  O265  1  0.949737  0.749752  0.558801  1
  O  O266  1  0.950071  0.250869  0.463906  1
  O  O267  1  0.949781  0.749396  0.464413  1
  O  O268  1  0.847893  0.499697  0.520480  1
  O  O269  1  0.848343  -0.000000  0.503153  1
  O  O270  1  0.749192  0.500006  0.510910  1
  O  O271  1  0.749522  0.000000  0.512501  1
  O  O272  1  0.948813  0.500713  0.515871  1
  O  O273  1  0.949359  -0.000000  0.507694  1
  O  O274  1  0.998195  0.249917  0.511825  1
  O  O275  1  -0.000000  0.400910  0.480995  1
  O  O276  1  -0.000000  0.900863  0.542747  1
  O  O277  1  0.915337  0.663191  0.658335  1
  O  O278  1  0.914763  0.338131  0.658265  1
  O  O279  1  0.928453  0.500605  0.631127  1
  O  O280  1  -0.000000  0.375567  0.631080  1
  Si  Si281  1  0.000000  0.787458  0.241574  1
  Si  Si282  1  0.307524  0.214571  0.304759  1
  Si  Si283  1  0.192654  0.714587  0.304785  1
  Si  Si284  1  0.307736  0.785666  0.304791  1
  Si  Si285  1  0.192413  0.285511  0.304751  1
  Si  Si286  1  0.192440  0.785502  0.241764  1
  Si  Si287  1  0.307778  0.285549  0.241750  1
  Si  Si288  1  0.192579  0.214656  0.241726  1
  Si  Si289  1  0.307641  0.714734  0.241774  1
  Si  Si290  1  0.096456  0.810563  0.333364  1
  Si  Si291  1  0.096215  0.189197  0.333206  1
  Si  Si292  1  0.096301  0.689467  0.213188  1
  Si  Si293  1  0.096363  0.310893  0.213320  1
  Si  Si294  1  0.304856  0.500109  0.258100  1
  Si  Si295  1  0.195314  -0.000000  0.258087  1
  Si  Si296  1  0.195613  0.500037  0.288396  1
  Si  Si297  1  0.304640  -0.000000  0.288298  1
  Si  Si298  1  0.098395  -0.000000  0.298256  1
  Si  Si299  1  0.098471  0.500279  0.248288  1
  Si  Si300  1  0.061407  0.611456  0.153995  1
  Si  Si301  1  0.061127  0.387634  0.154004  1
  Si  Si302  1  0.000000  0.499954  0.287949  1
  Si  Si303  1  0.000000  -0.000000  0.258569  1
  Si  Si304  1  0.000000  0.712552  0.304965  1
  Si  Si305  1  0.000000  0.212643  0.241592  1
  Si  Si306  1  0.561364  0.611642  0.392467  1
  Si  Si307  1  0.499997  -0.000000  0.288142  1
  Si  Si308  1  0.596165  0.310378  0.333243  1
  Si  Si309  1  0.403586  0.310779  0.333397  1
  Si  Si310  1  0.596381  0.689289  0.333227  1
  Si  Si311  1  0.403800  0.689445  0.333437  1
  Si  Si312  1  0.403908  0.189206  0.213241  1
  Si  Si313  1  0.596208  0.189223  0.213280  1
  Si  Si314  1  0.403722  0.810817  0.213133  1
  Si  Si315  1  0.596020  0.810659  0.213404  1
  Si  Si316  1  0.598700  0.499824  0.298322  1
  Si  Si317  1  0.401663  0.500151  0.298371  1
  Si  Si318  1  0.401949  -0.000000  0.248319  1
  Si  Si319  1  0.598154  0.000000  0.248357  1
  Si  Si320  1  0.500122  0.499939  0.258796  1
  Si  Si321  1  0.499914  0.787184  0.304960  1
  Si  Si322  1  0.499707  0.212598  0.305006  1
  Si  Si323  1  0.499666  0.712363  0.241561  1
  Si  Si324  1  0.499948  0.287441  0.241608  1
  Si  Si325  1  0.901855  0.499750  0.248304  1
  Si  Si326  1  0.901666  -0.000000  0.298217  1
  Si  Si327  1  0.807618  0.714490  0.304753  1
  Si  Si328  1  0.692409  0.214465  0.304734  1
  Si  Si329  1  0.807475  0.285508  0.304729  1
  Si  Si330  1  0.692557  0.785547  0.304781  1
  Si  Si331  1  0.692451  0.285338  0.241692  1
  Si  Si332  1  0.807543  0.785372  0.241720  1
  Si  Si333  1  0.692343  0.714583  0.241749  1
  Si  Si334  1  0.807634  0.214473  0.241707  1
  Si  Si335  1  0.903925  0.810677  0.333127  1
  Si  Si336  1  0.903636  0.189458  0.333305  1
  Si  Si337  1  0.903804  0.689187  0.213361  1
  Si  Si338  1  0.903841  0.310510  0.213220  1
  Si  Si339  1  0.804760  0.000000  0.258050  1
  Si  Si340  1  0.695377  0.499940  0.257980  1
  Si  Si341  1  0.695496  0.000000  0.288335  1
  Si  Si342  1  0.804574  0.500011  0.288336  1
  Si  Si343  1  0.938966  0.887643  0.392444  1
  Si  Si344  1  -0.000000  0.287399  0.304998  1
  Si  Si345  1  0.938662  0.388657  0.154034  1
  Si  Si346  1  0.938638  0.111441  0.392464  1
  Si  Si347  1  0.938953  0.612460  0.154047  1
  Si  Si348  1  -0.000000  0.712495  0.479999  1
  Si  Si349  1  0.307484  0.714535  0.543314  1
  Si  Si350  1  0.192443  0.214593  0.543345  1
  Si  Si351  1  0.307635  0.285439  0.543365  1
  Si  Si352  1  0.192343  0.785491  0.543338  1
  Si  Si353  1  0.192299  0.285404  0.480297  1
  Si  Si354  1  0.307578  0.785638  0.480305  1
  Si  Si355  1  0.192534  0.714467  0.480314  1
  Si  Si356  1  0.307434  0.214640  0.480324  1
  Si  Si357  1  0.096233  0.310744  0.571763  1
  Si  Si358  1  0.096180  0.689370  0.571837  1
  Si  Si359  1  0.096086  0.189137  0.451878  1
  Si  Si360  1  0.096363  0.810397  0.451718  1
  Si  Si361  1  0.304496  0.000000  0.496716  1
  Si  Si362  1  0.195251  0.499880  0.496653  1
  Si  Si363  1  0.195234  -0.000000  0.527000  1
  Si  Si364  1  0.304465  0.499908  0.526987  1
  Si  Si365  1  0.098099  0.500123  0.536788  1
  Si  Si366  1  0.098378  -0.000000  0.486794  1
  Si  Si367  1  -0.000000  -0.000000  0.526497  1
  Si  Si368  1  0.061436  0.888553  0.392543  1
  Si  Si369  1  -0.000000  0.787366  0.543400  1
  Si  Si370  1  0.061095  0.112383  0.392524  1
  Si  Si371  1  0.061407  0.611456  0.631069  1
  Si  Si372  1  0.061127  0.387634  0.631077  1
  Si  Si373  1  0.499729  0.500031  0.526514  1
  Si  Si374  1  0.596470  0.810544  0.571988  1
  Si  Si375  1  0.403828  0.810623  0.571635  1
  Si  Si376  1  0.596316  0.189167  0.571707  1
  Si  Si377  1  0.403841  0.189339  0.571842  1
  Si  Si378  1  0.403881  0.689308  0.451990  1
  Si  Si379  1  0.596453  0.689259  0.451689  1
  Si  Si380  1  0.403704  0.310415  0.451778  1
  Si  Si381  1  0.596351  0.310829  0.451840  1
  Si  Si382  1  0.598374  -0.000000  0.536805  1
  Si  Si383  1  0.401800  0.000000  0.536726  1
  Si  Si384  1  0.401404  0.499729  0.486851  1
  Si  Si385  1  0.598060  0.500152  0.486858  1
  Si  Si386  1  0.500137  -0.000000  0.497096  1
  Si  Si387  1  0.438904  0.612223  0.392691  1
  Si  Si388  1  0.499953  0.287358  0.543443  1
  Si  Si389  1  0.500423  0.787322  0.480132  1
  Si  Si390  1  0.499966  0.212565  0.480042  1
  Si  Si391  1  0.500408  0.712625  0.543537  1
  Si  Si392  1  0.438674  0.388429  0.392606  1
  Si  Si393  1  0.561147  0.387772  0.392527  1
  Si  Si394  1  0.000000  0.212512  0.543526  1
  Si  Si395  1  -0.000000  0.287483  0.480141  1
  Si  Si396  1  0.807708  0.214445  0.543297  1
  Si  Si397  1  0.692577  0.714481  0.543337  1
  Si  Si398  1  0.807710  0.785476  0.543334  1
  Si  Si399  1  0.692569  0.285399  0.543294  1
  Si  Si400  1  0.692585  0.785323  0.480321  1
  Si  Si401  1  0.807696  0.285426  0.480269  1
  Si  Si402  1  0.692547  0.214474  0.480289  1
  Si  Si403  1  0.807756  0.714554  0.480302  1
  Si  Si404  1  0.903792  0.310487  0.571929  1
  Si  Si405  1  0.903850  0.689155  0.571788  1
  Si  Si406  1  0.903820  0.189274  0.451690  1
  Si  Si407  1  0.903863  0.810760  0.451747  1
  Si  Si408  1  0.804593  0.499979  0.496596  1
  Si  Si409  1  0.695530  -0.000000  0.496684  1
  Si  Si410  1  0.695372  0.499967  0.526902  1
  Si  Si411  1  0.804834  -0.000000  0.526914  1
  Si  Si412  1  0.901324  0.499724  0.536858  1
  Si  Si413  1  0.901769  -0.000000  0.486775  1
  Si  Si414  1  -0.000000  0.500048  0.497200  1
  Si  Si415  1  0.938662  0.388657  0.631107  1
  Si  Si416  1  0.938953  0.612460  0.631121  1
  H  H417  1  0.084712  0.336884  0.107442  1
  H  H418  1  0.085106  0.662193  0.107475  1
  H  H419  1  0.414697  0.161621  0.161850  1
  H  H420  1  0.584756  0.163044  0.161841  1
  H  H421  1  0.414731  0.837737  0.161707  1
  H  H422  1  0.584779  0.837686  0.162015  1
  H  H423  1  0.914619  0.338258  0.107548  1
  H  H424  1  0.915344  0.663143  0.107480  1
  H  H425  1  0.085472  0.661785  0.677562  1
  H  H426  1  0.084765  0.336986  0.677644  1
  H  H427  1  0.585590  0.838170  0.623379  1
  H  H428  1  0.415358  0.836905  0.623049  1
  H  H429  1  0.584784  0.162872  0.623132  1
  H  H430  1  0.414791  0.162155  0.623243  1
  H  H431  1  0.915337  0.663191  0.677675  1
  H  H432  1  0.914763  0.338131  0.677605  1
