# generated using pymatgen
data_Si4H2O9
_symmetry_space_group_name_H-M   'P 1'
_cell_length_a   8.41110944
_cell_length_b   9.86934954
_cell_length_c   37.61478892
_cell_angle_alpha   58.40835966
_cell_angle_beta   90.00000000
_cell_angle_gamma   64.79224931
_symmetry_Int_Tables_number   1
_chemical_formula_structural   Si4H2O9
_chemical_formula_sum   'Si12 H6 O27'
_cell_volume   2303.40567329
_cell_formula_units_Z   3
loop_
 _symmetry_equiv_pos_site_id
 _symmetry_equiv_pos_as_xyz
  1  'x, y, z'
loop_
 _atom_site_type_symbol
 _atom_site_label
 _atom_site_symmetry_multiplicity
 _atom_site_fract_x
 _atom_site_fract_y
 _atom_site_fract_z
 _atom_site_occupancy
  O  O1  1  0.705154  0.807443  0.260114  1
  O  O2  1  0.192013  0.294310  0.261661  1
  O  O3  1  0.293768  0.513226  0.232834  1
  O  O4  1  0.406704  0.002313  0.199665  1
  O  O5  1  -0.000000  0.587687  0.256382  1
  O  O6  1  0.587392  0.409742  0.212069  1
  O  O7  1  0.000000  0.592726  0.186961  1
  O  O8  1  0.705154  0.807443  0.397565  1
  O  O9  1  0.486441  0.705474  0.274416  1
  O  O10  1  0.807039  0.486684  0.305436  1
  O  O11  1  0.192013  0.294310  0.399111  1
  O  O12  1  0.293768  0.513226  0.370284  1
  O  O13  1  0.512569  0.192430  0.276673  1
  O  O14  1  0.406704  0.002313  0.337115  1
  O  O15  1  0.592113  0.409420  0.280838  1
  O  O16  1  0.000000  0.587687  0.393833  1
  O  O17  1  0.411817  0.997412  0.269066  1
  O  O18  1  0.587392  0.409742  0.349519  1
  O  O19  1  0.000000  0.592726  0.324412  1
  O  O20  1  0.486441  0.705474  0.411867  1
  O  O21  1  0.807039  0.486684  0.442886  1
  O  O22  1  0.512569  0.192430  0.414123  1
  O  O23  1  0.406704  0.002313  0.474566  1
  O  O24  1  0.592113  0.409420  0.418288  1
  O  O25  1  0.411817  0.997412  0.406516  1
  O  O26  1  0.587392  0.409742  0.486970  1
  O  O27  1  0.000000  0.592726  0.461862  1
  Si  Si28  1  0.493656  0.886780  0.249564  1
  Si  Si29  1  0.112613  0.505948  0.233206  1
  Si  Si30  1  0.505279  0.380993  0.250695  1
  Si  Si31  1  0.493656  0.886780  0.387015  1
  Si  Si32  1  0.618667  0.493866  0.303829  1
  Si  Si33  1  0.886397  0.618920  0.286567  1
  Si  Si34  1  0.112613  0.505948  0.370657  1
  Si  Si35  1  0.505279  0.380993  0.388146  1
  Si  Si36  1  0.380412  0.113068  0.287265  1
  Si  Si37  1  0.618667  0.493866  0.441279  1
  Si  Si38  1  0.886397  0.618920  0.424017  1
  Si  Si39  1  0.380412  0.113068  0.424716  1
  H  H40  1  0.406704  0.002313  0.175738  1
  H  H41  1  0.587392  0.409742  0.188142  1
  H  H42  1  0.000000  0.592726  0.163034  1
  H  H43  1  0.406704  0.002313  0.498493  1
  H  H44  1  0.587392  0.409742  0.510897  1
  H  H45  1  0.000000  0.592726  0.485789  1
