# generated using pymatgen
data_Si15H2O31
_symmetry_space_group_name_H-M   'P 1'
_cell_length_a   13.76258817
_cell_length_b   6.32590885
_cell_length_c   42.44632425
_cell_angle_alpha   90.00000000
_cell_angle_beta   90.00000000
_cell_angle_gamma   90.00000000
_symmetry_Int_Tables_number   1
_chemical_formula_structural   Si15H2O31
_chemical_formula_sum   'Si30 H4 O62'
_cell_volume   3695.4142704
_cell_formula_units_Z   2
loop_
 _symmetry_equiv_pos_site_id
 _symmetry_equiv_pos_as_xyz
  1  'x, y, z'
loop_
 _atom_site_type_symbol
 _atom_site_label
 _atom_site_symmetry_multiplicity
 _atom_site_fract_x
 _atom_site_fract_y
 _atom_site_fract_z
 _atom_site_occupancy
  O  O1  1  0.499936  0.499903  0.226999  1
  O  O2  1  0.228578  0.749983  0.301136  1
  O  O3  1  0.728587  0.249940  0.139000  1
  O  O4  1  -0.000000  0.500054  0.213131  1
  O  O5  1  0.499929  0.000000  0.375275  1
  O  O6  1  0.771292  0.249933  0.301135  1
  O  O7  1  0.271292  0.749994  0.138999  1
  O  O8  1  0.666838  0.375344  0.251948  1
  O  O9  1  0.333015  0.624599  0.251948  1
  O  O10  1  0.833003  0.375348  0.188187  1
  O  O11  1  0.332995  0.875352  0.350327  1
  O  O12  1  0.666841  0.124582  0.350323  1
  O  O13  1  0.166836  0.624587  0.188187  1
  O  O14  1  0.151615  0.874635  0.355256  1
  O  O15  1  0.651624  0.374675  0.193117  1
  O  O16  1  0.348216  0.625301  0.193125  1
  O  O17  1  0.848229  0.125330  0.355260  1
  O  O18  1  0.848218  0.374640  0.247014  1
  O  O19  1  0.151629  0.625276  0.247014  1
  O  O20  1  0.658599  0.722991  0.222381  1
  O  O21  1  0.242813  0.973001  0.249686  1
  O  O22  1  0.841295  0.722989  0.217754  1
  O  O23  1  0.341288  0.222983  0.379891  1
  O  O24  1  0.757070  0.472981  0.352591  1
  O  O25  1  0.257061  0.972982  0.190453  1
  O  O26  1  0.341286  0.276956  0.222380  1
  O  O27  1  0.742807  0.026942  0.190451  1
  O  O28  1  0.242799  0.526935  0.352586  1
  O  O29  1  0.158606  0.276953  0.217753  1
  O  O30  1  0.658605  0.776957  0.379889  1
  O  O31  1  0.757058  0.026940  0.249680  1
  O  O32  1  0.000000  0.000000  0.389130  1
  O  O33  1  0.499936  0.499903  0.551273  1
  O  O34  1  0.228578  0.749983  0.625409  1
  O  O35  1  0.728587  0.249940  0.463273  1
  O  O36  1  -0.000000  0.500054  0.537405  1
  O  O37  1  0.771292  0.249933  0.625408  1
  O  O38  1  0.271292  0.749994  0.463273  1
  O  O39  1  0.166854  0.875361  0.414082  1
  O  O40  1  0.666838  0.375344  0.576222  1
  O  O41  1  0.333015  0.624599  0.576222  1
  O  O42  1  0.833006  0.124587  0.414085  1
  O  O43  1  0.833003  0.375348  0.512460  1
  O  O44  1  0.166836  0.624587  0.512461  1
  O  O45  1  0.651624  0.374675  0.517391  1
  O  O46  1  0.348216  0.625301  0.517398  1
  O  O47  1  0.848218  0.374640  0.571288  1
  O  O48  1  0.348232  0.874622  0.409150  1
  O  O49  1  0.651618  0.125293  0.409151  1
  O  O50  1  0.151629  0.625276  0.571288  1
  O  O51  1  0.158600  0.222990  0.384514  1
  O  O52  1  0.658599  0.722991  0.546654  1
  O  O53  1  0.242813  0.973001  0.573959  1
  O  O54  1  0.742801  0.473004  0.411824  1
  O  O55  1  0.841295  0.722989  0.542028  1
  O  O56  1  0.257061  0.972982  0.514726  1
  O  O57  1  0.841278  0.776965  0.384514  1
  O  O58  1  0.341286  0.276956  0.546653  1
  O  O59  1  0.742807  0.026942  0.514724  1
  O  O60  1  0.158606  0.276953  0.542027  1
  O  O61  1  0.257072  0.526939  0.411819  1
  O  O62  1  0.757058  0.026940  0.573954  1
  Si  Si63  1  0.613079  0.493219  0.223743  1
  Si  Si64  1  0.238589  0.743229  0.264446  1
  Si  Si65  1  0.886783  0.493183  0.216391  1
  Si  Si66  1  0.386782  0.993190  0.378527  1
  Si  Si67  1  0.761263  0.243225  0.337826  1
  Si  Si68  1  0.261259  0.743222  0.175689  1
  Si  Si69  1  0.386780  0.506743  0.223745  1
  Si  Si70  1  0.738583  0.256706  0.175685  1
  Si  Si71  1  0.238581  0.756704  0.337823  1
  Si  Si72  1  0.113082  0.506712  0.216391  1
  Si  Si73  1  0.613084  0.006721  0.378528  1
  Si  Si74  1  0.761258  0.256695  0.264449  1
  Si  Si75  1  0.749947  0.874976  0.220065  1
  Si  Si76  1  0.249947  0.124959  0.220068  1
  Si  Si77  1  0.113079  0.993220  0.385880  1
  Si  Si78  1  0.613079  0.493219  0.548017  1
  Si  Si79  1  0.238589  0.743229  0.588719  1
  Si  Si80  1  0.738583  0.243224  0.426583  1
  Si  Si81  1  0.886783  0.493183  0.540664  1
  Si  Si82  1  0.261259  0.743222  0.499962  1
  Si  Si83  1  0.886778  0.006751  0.385881  1
  Si  Si84  1  0.386780  0.506743  0.548018  1
  Si  Si85  1  0.738583  0.256706  0.499959  1
  Si  Si86  1  0.113082  0.506712  0.540665  1
  Si  Si87  1  0.261267  0.756701  0.426585  1
  Si  Si88  1  0.761258  0.256695  0.588722  1
  Si  Si89  1  0.249945  0.374977  0.382203  1
  Si  Si90  1  0.749947  0.874976  0.544339  1
  Si  Si91  1  0.249947  0.124959  0.544342  1
  Si  Si92  1  0.749944  0.624957  0.382206  1
  H  H93  1  0.728587  0.249940  0.117796  1
  H  H94  1  0.271292  0.749994  0.117796  1
  H  H95  1  0.228578  0.749983  0.646613  1
  H  H96  1  0.771292  0.249933  0.646612  1
