# generated using pymatgen
data_Si6H2O13
_symmetry_space_group_name_H-M   'P 1'
_cell_length_a   13.92096345
_cell_length_b   5.05139295
_cell_length_c   31.19500335
_cell_angle_alpha   90.00000000
_cell_angle_beta   105.36800000
_cell_angle_gamma   90.00000000
_symmetry_Int_Tables_number   1
_chemical_formula_structural   Si6H2O13
_chemical_formula_sum   'Si12 H4 O26'
_cell_volume   2115.20387925
_cell_formula_units_Z   2
loop_
 _symmetry_equiv_pos_site_id
 _symmetry_equiv_pos_as_xyz
  1  'x, y, z'
loop_
 _atom_site_type_symbol
 _atom_site_label
 _atom_site_symmetry_multiplicity
 _atom_site_fract_x
 _atom_site_fract_y
 _atom_site_fract_z
 _atom_site_occupancy
  O  O1  1  0.331268  0.991633  0.282687  1
  O  O2  1  0.830955  0.497432  0.282488  1
  O  O3  1  0.476211  0.259974  0.267286  1
  O  O4  1  0.975172  0.732453  0.257448  1
  O  O5  1  0.475069  0.755078  0.257639  1
  O  O6  1  0.975651  0.227537  0.266910  1
  O  O7  1  0.001020  0.530301  0.333576  1
  O  O8  1  0.001313  0.031772  0.195076  1
  O  O9  1  0.500817  0.455936  0.195212  1
  O  O10  1  0.137057  0.992030  0.269128  1
  O  O11  1  0.636996  0.496389  0.269100  1
  O  O12  1  0.249922  0.279780  0.329567  1
  O  O13  1  0.749777  0.780426  0.329520  1
  O  O14  1  0.671044  0.991793  0.385211  1
  O  O15  1  0.170729  0.497156  0.385039  1
  O  O16  1  0.525713  0.259883  0.400439  1
  O  O17  1  0.026349  0.731927  0.409799  1
  O  O18  1  0.526820  0.754963  0.410086  1
  O  O19  1  0.025909  0.227026  0.400227  1
  O  O20  1  0.490752  0.956161  0.333894  1
  O  O21  1  0.001313  0.031772  0.472336  1
  O  O22  1  0.500817  0.455936  0.472472  1
  O  O23  1  0.864894  0.991977  0.398442  1
  O  O24  1  0.364821  0.496181  0.398517  1
  O  O25  1  0.751873  0.280178  0.338074  1
  O  O26  1  0.251928  0.780177  0.338082  1
  Si  Si27  1  0.445173  0.990748  0.283948  1
  Si  Si28  1  0.944809  0.496815  0.283629  1
  Si  Si29  1  0.022484  0.995826  0.246409  1
  Si  Si30  1  0.522390  0.491881  0.246553  1
  Si  Si31  1  0.240868  0.011316  0.304050  1
  Si  Si32  1  0.740775  0.512129  0.304074  1
  Si  Si33  1  0.557040  0.990649  0.383887  1
  Si  Si34  1  0.056703  0.496534  0.383584  1
  Si  Si35  1  0.979524  0.995588  0.420987  1
  Si  Si36  1  0.479403  0.491769  0.421130  1
  Si  Si37  1  0.761062  0.011565  0.363573  1
  Si  Si38  1  0.261048  0.511865  0.363534  1
  H  H39  1  0.001313  0.031772  0.166226  1
  H  H40  1  0.500817  0.455936  0.166361  1
  H  H41  1  0.001313  0.031772  0.501187  1
  H  H42  1  0.500817  0.455936  0.501323  1
