# generated using pymatgen
data_Si11H2O23
_symmetry_space_group_name_H-M   'P 1'
_cell_length_a   15.08014935
_cell_length_b   13.75080220
_cell_length_c   46.51065068
_cell_angle_alpha   90.00000000
_cell_angle_beta   90.00000000
_cell_angle_gamma   90.00000000
_symmetry_Int_Tables_number   1
_chemical_formula_structural   Si11H2O23
_chemical_formula_sum   'Si88 H16 O184'
_cell_volume   9644.64158366
_cell_formula_units_Z   8
loop_
 _symmetry_equiv_pos_site_id
 _symmetry_equiv_pos_as_xyz
  1  'x, y, z'
loop_
 _atom_site_type_symbol
 _atom_site_label
 _atom_site_symmetry_multiplicity
 _atom_site_fract_x
 _atom_site_fract_y
 _atom_site_fract_z
 _atom_site_occupancy
  O  O1  1  0.083114  0.254446  0.226708  1
  O  O2  1  0.419144  0.755614  0.225414  1
  O  O3  1  0.414974  0.246142  0.227184  1
  O  O4  1  0.088117  0.745326  0.229818  1
  O  O5  1  0.142759  0.340997  0.182862  1
  O  O6  1  0.353167  0.846309  0.126853  1
  O  O7  1  0.354574  0.843852  0.182469  1
  O  O8  1  0.356610  0.159232  0.183210  1
  O  O9  1  0.362298  0.161765  0.127362  1
  O  O10  1  0.141272  0.657369  0.185207  1
  O  O11  1  0.249263  0.250066  0.216841  1
  O  O12  1  0.252229  0.749652  0.217057  1
  O  O13  1  0.175138  0.407412  0.232141  1
  O  O14  1  0.325778  0.907167  0.232271  1
  O  O15  1  0.322791  0.093099  0.232558  1
  O  O16  1  0.381361  0.002512  0.155031  1
  O  O17  1  0.496994  0.872763  0.154576  1
  O  O18  1  0.181476  0.593177  0.234375  1
  O  O19  1  0.588628  0.754347  0.229506  1
  O  O20  1  0.913434  0.255345  0.227989  1
  O  O21  1  0.918674  0.744648  0.225851  1
  O  O22  1  0.584539  0.244614  0.228133  1
  O  O23  1  0.640386  0.840937  0.127596  1
  O  O24  1  0.636672  0.837833  0.183466  1
  O  O25  1  0.860496  0.339882  0.182568  1
  O  O26  1  0.854160  0.653564  0.183524  1
  O  O27  1  0.643631  0.154155  0.184714  1
  O  O28  1  0.644333  0.156218  0.129116  1
  O  O29  1  0.752671  0.755914  0.216092  1
  O  O30  1  0.748712  0.255656  0.216258  1
  O  O31  1  0.675734  0.911214  0.231523  1
  O  O32  1  0.825932  0.411835  0.231011  1
  O  O33  1  0.820467  0.597737  0.234026  1
  O  O34  1  0.501154  0.127201  0.156625  1
  O  O35  1  0.616917  0.997485  0.156262  1
  O  O36  1  0.088028  0.755223  0.318573  1
  O  O37  1  0.415186  0.254235  0.321221  1
  O  O38  1  0.418708  0.744472  0.322039  1
  O  O39  1  0.083559  0.246250  0.320835  1
  O  O40  1  0.139066  0.839910  0.364110  1
  O  O41  1  0.358667  0.338417  0.366036  1
  O  O42  1  0.352873  0.652518  0.363981  1
  O  O43  1  0.144913  0.155506  0.363580  1
  O  O44  1  0.252440  0.755464  0.331177  1
  O  O45  1  0.249160  0.255398  0.331223  1
  O  O46  1  0.176707  0.911315  0.315709  1
  O  O47  1  0.328208  0.411542  0.317411  1
  O  O48  1  0.320569  0.597353  0.313378  1
  O  O49  1  0.180052  0.097619  0.313413  1
  O  O50  1  0.250098  0.490541  0.274630  1
  O  O51  1  0.246132  0.996996  0.272477  1
  O  O52  1  0.417377  0.500046  0.280350  1
  O  O53  1  0.414212  0.001203  0.268360  1
  O  O54  1  0.079976  0.001103  0.280938  1
  O  O55  1  0.083193  0.499677  0.267838  1
  O  O56  1  0.118112  0.998984  0.391722  1
  O  O57  1  0.001314  0.127372  0.391267  1
  O  O58  1  0.492644  0.750423  0.273790  1
  O  O59  1  0.496345  0.250439  0.274167  1
  O  O60  1  0.497445  0.627405  0.391156  1
  O  O61  1  0.000000  0.599453  0.304438  1
  O  O62  1  0.002391  0.250426  0.273816  1
  O  O63  1  0.499980  0.900846  0.304191  1
  O  O64  1  0.584881  0.255129  0.320095  1
  O  O65  1  0.918556  0.755012  0.322445  1
  O  O66  1  0.914016  0.244222  0.319830  1
  O  O67  1  0.588159  0.745621  0.318225  1
  O  O68  1  0.640788  0.341608  0.364697  1
  O  O69  1  0.856462  0.842344  0.365874  1
  O  O70  1  0.857517  0.156968  0.364293  1
  O  O71  1  0.639862  0.659641  0.363400  1
  O  O72  1  0.749734  0.250574  0.331580  1
  O  O73  1  0.751922  0.750209  0.331471  1
  O  O74  1  0.676774  0.407727  0.315651  1
  O  O75  1  0.826204  0.907378  0.316301  1
  O  O76  1  0.820212  0.092937  0.314911  1
  O  O77  1  0.681047  0.593383  0.314472  1
  O  O78  1  0.746407  0.992963  0.275206  1
  O  O79  1  0.750174  0.494140  0.273560  1
  O  O80  1  0.914075  0.000000  0.279810  1
  O  O81  1  0.917287  0.501147  0.267399  1
  O  O82  1  0.583330  0.500725  0.280472  1
  O  O83  1  0.580213  0.000000  0.266811  1
  O  O84  1  0.500229  0.099480  0.304435  1
  O  O85  1  0.000000  0.900784  0.243743  1
  O  O86  1  0.682005  0.097088  0.234726  1
  O  O87  1  0.998987  0.099529  0.243514  1
  O  O88  1  0.616863  0.502328  0.391472  1
  O  O89  1  0.992542  0.750390  0.274171  1
  O  O90  1  0.500551  0.400752  0.243733  1
  O  O91  1  0.998497  0.400729  0.304293  1
  O  O92  1  0.500079  0.599360  0.243572  1
  O  O93  1  0.083995  0.754606  0.463438  1
  O  O94  1  0.411814  0.254907  0.466809  1
  O  O95  1  0.416559  0.745427  0.463098  1
  O  O96  1  0.081257  0.245343  0.462579  1
  O  O97  1  0.144393  0.842889  0.419981  1
  O  O98  1  0.359037  0.341717  0.421920  1
  O  O99  1  0.355924  0.658022  0.419562  1
  O  O100  1  0.143520  0.158055  0.419142  1
  O  O101  1  0.250030  0.749492  0.453582  1
  O  O102  1  0.248049  0.249345  0.453750  1
  O  O103  1  0.177561  0.906347  0.469748  1
  O  O104  1  0.317973  0.406704  0.470957  1
  O  O105  1  0.324424  0.592659  0.469060  1
  O  O106  1  0.173081  0.092155  0.468527  1
  O  O107  1  0.253009  0.005376  0.509338  1
  O  O108  1  0.252928  0.508600  0.512045  1
  O  O109  1  0.419352  0.000000  0.517474  1
  O  O110  1  0.419228  0.499408  0.503794  1
  O  O111  1  0.085180  0.499080  0.516407  1
  O  O112  1  0.085108  0.000000  0.504963  1
  O  O113  1  0.499754  0.599396  0.540991  1
  O  O114  1  0.319149  0.902222  0.549787  1
  O  O115  1  0.381470  0.497867  0.393078  1
  O  O116  1  0.005212  0.749608  0.510912  1
  O  O117  1  0.005498  0.249672  0.510546  1
  O  O118  1  0.495431  0.749784  0.510525  1
  O  O119  1  0.581114  0.255527  0.462314  1
  O  O120  1  0.914441  0.755015  0.465436  1
  O  O121  1  0.911595  0.245161  0.465811  1
  O  O122  1  0.586275  0.744577  0.465047  1
  O  O123  1  0.646206  0.347588  0.420254  1
  O  O124  1  0.857623  0.844104  0.421487  1
  O  O125  1  0.861480  0.160594  0.420182  1
  O  O126  1  0.638295  0.661213  0.419289  1
  O  O127  1  0.747313  0.244836  0.452893  1
  O  O128  1  0.750755  0.744569  0.452906  1
  O  O129  1  0.678851  0.402446  0.470892  1
  O  O130  1  0.817581  0.903336  0.471133  1
  O  O131  1  0.823132  0.089309  0.468592  1
  O  O132  1  0.673843  0.588121  0.467526  1
  O  O133  1  0.753080  0.506170  0.509523  1
  O  O134  1  0.753017  0.005359  0.512013  1
  O  O135  1  0.919233  0.500411  0.517939  1
  O  O136  1  0.919129  0.998704  0.503542  1
  O  O137  1  0.585270  0.998847  0.516512  1
  O  O138  1  0.585264  0.500298  0.504863  1
  O  O139  1  0.998644  0.400744  0.480358  1
  O  O140  1  0.500783  0.372821  0.393640  1
  O  O141  1  -0.000000  0.599348  0.480481  1
  O  O142  1  0.000000  0.099159  0.540893  1
  O  O143  1  0.882799  0.001057  0.393079  1
  O  O144  1  0.000000  0.872629  0.393270  1
  O  O145  1  -0.000000  0.900587  0.541122  1
  O  O146  1  0.508776  0.249575  0.510878  1
  O  O147  1  0.500265  0.900472  0.480138  1
  O  O148  1  0.500228  0.400681  0.541107  1
  O  O149  1  0.500447  0.099279  0.480383  1
  O  O150  1  0.081207  0.255229  0.558514  1
  O  O151  1  0.416674  0.754835  0.558001  1
  O  O152  1  0.411381  0.245259  0.554851  1
  O  O153  1  0.084517  0.745766  0.558254  1
  O  O154  1  0.146077  0.346535  0.600727  1
  O  O155  1  0.353167  0.846309  0.600282  1
  O  O156  1  0.354574  0.843852  0.655898  1
  O  O157  1  0.356610  0.159232  0.656639  1
  O  O158  1  0.362298  0.161765  0.600791  1
  O  O159  1  0.141913  0.660783  0.602784  1
  O  O160  1  0.247227  0.244168  0.568007  1
  O  O161  1  0.250782  0.744282  0.567844  1
  O  O162  1  0.323798  0.088369  0.552749  1
  O  O163  1  0.171269  0.588299  0.554040  1
  O  O164  1  0.381361  0.002512  0.628460  1
  O  O165  1  0.496994  0.872763  0.628005  1
  O  O166  1  0.179428  0.402530  0.550304  1
  O  O167  1  0.586220  0.754951  0.556028  1
  O  O168  1  0.911657  0.254410  0.555322  1
  O  O169  1  0.914869  0.744863  0.556494  1
  O  O170  1  0.580717  0.244811  0.559523  1
  O  O171  1  0.640386  0.840937  0.601025  1
  O  O172  1  0.636672  0.837833  0.656895  1
  O  O173  1  0.858881  0.341641  0.600128  1
  O  O174  1  0.859497  0.659319  0.601355  1
  O  O175  1  0.643631  0.154155  0.658143  1
  O  O176  1  0.644333  0.156218  0.602545  1
  O  O177  1  0.750373  0.750477  0.568306  1
  O  O178  1  0.747548  0.250309  0.568152  1
  O  O179  1  0.678389  0.907702  0.552048  1
  O  O180  1  0.818969  0.406676  0.550958  1
  O  O181  1  0.822363  0.592609  0.552419  1
  O  O182  1  0.501154  0.127201  0.630054  1
  O  O183  1  0.673644  0.093303  0.552670  1
  O  O184  1  0.616917  0.997485  0.629691  1
  Si  Si185  1  0.398469  0.114569  0.155495  1
  Si  Si186  1  0.394747  0.889803  0.154703  1
  Si  Si187  1  0.163529  0.312144  0.214542  1
  Si  Si188  1  0.337042  0.812922  0.214201  1
  Si  Si189  1  0.335096  0.187940  0.214826  1
  Si  Si190  1  0.166426  0.687269  0.216403  1
  Si  Si191  1  0.599715  0.885422  0.155478  1
  Si  Si192  1  0.664218  0.813722  0.214946  1
  Si  Si193  1  0.836383  0.314589  0.214274  1
  Si  Si194  1  0.835518  0.688910  0.214766  1
  Si  Si195  1  0.665699  0.188839  0.215757  1
  Si  Si196  1  0.603397  0.110200  0.156763  1
  Si  Si197  1  0.000000  0.714352  0.305765  1
  Si  Si198  1  0.499340  0.285897  0.242478  1
  Si  Si199  1  0.498784  0.000000  0.287415  1
  Si  Si200  1  0.499345  0.214336  0.305806  1
  Si  Si201  1  0.164699  0.814447  0.332567  1
  Si  Si202  1  0.336898  0.313864  0.334068  1
  Si  Si203  1  0.335196  0.688417  0.332735  1
  Si  Si204  1  0.165458  0.189590  0.332377  1
  Si  Si205  1  0.327556  0.499829  0.296513  1
  Si  Si206  1  0.325912  -0.000000  0.251389  1
  Si  Si207  1  0.172208  0.001873  0.295718  1
  Si  Si208  1  0.173921  0.497761  0.252210  1
  Si  Si209  1  0.103715  0.111523  0.391410  1
  Si  Si210  1  0.395205  0.610457  0.391919  1
  Si  Si211  1  0.102248  0.886701  0.392219  1
  Si  Si212  1  0.000000  0.785896  0.242527  1
  Si  Si213  1  0.000000  0.500223  0.287482  1
  Si  Si214  1  0.898752  0.113317  0.392201  1
  Si  Si215  1  0.600169  0.614507  0.391320  1
  Si  Si216  1  0.663897  0.312628  0.333219  1
  Si  Si217  1  0.837327  0.812614  0.334136  1
  Si  Si218  1  0.834714  0.187014  0.332880  1
  Si  Si219  1  0.665961  0.688100  0.332146  1
  Si  Si220  1  0.825419  0.998512  0.296584  1
  Si  Si221  1  0.827079  0.501320  0.251439  1
  Si  Si222  1  0.674185  0.499211  0.296062  1
  Si  Si223  1  0.672499  0.000000  0.252010  1
  Si  Si224  1  0.998214  -0.000000  0.260505  1
  Si  Si225  1  0.500442  0.500205  0.260556  1
  Si  Si226  1  0.000000  0.214405  0.242182  1
  Si  Si227  1  0.000000  0.285865  0.305517  1
  Si  Si228  1  0.500249  0.714243  0.242206  1
  Si  Si229  1  0.500105  0.785966  0.305434  1
  Si  Si230  1  0.398052  0.385723  0.393759  1
  Si  Si231  1  -0.000000  0.499920  0.497323  1
  Si  Si232  1  0.000000  0.714207  0.479226  1
  Si  Si233  1  0.164769  0.812478  0.451557  1
  Si  Si234  1  0.333521  0.312297  0.453133  1
  Si  Si235  1  0.335814  0.687496  0.451236  1
  Si  Si236  1  0.162379  0.187451  0.450916  1
  Si  Si237  1  0.327349  0.998641  0.532403  1
  Si  Si238  1  0.327157  0.501785  0.488918  1
  Si  Si239  1  0.173690  0.499763  0.533268  1
  Si  Si240  1  0.173572  0.000000  0.488110  1
  Si  Si241  1  0.499973  0.785569  0.478866  1
  Si  Si242  1  0.000000  0.000000  0.524095  1
  Si  Si243  1  -0.000000  0.785732  0.542534  1
  Si  Si244  1  0.499830  0.714275  0.542208  1
  Si  Si245  1  0.602982  0.389707  0.392462  1
  Si  Si246  1  -0.000000  0.285882  0.478958  1
  Si  Si247  1  0.664383  0.311652  0.451465  1
  Si  Si248  1  0.834133  0.810870  0.452532  1
  Si  Si249  1  0.835167  0.186020  0.451672  1
  Si  Si250  1  0.663033  0.685744  0.451001  1
  Si  Si251  1  0.827016  0.501275  0.532760  1
  Si  Si252  1  0.826800  0.000000  0.488762  1
  Si  Si253  1  0.673825  0.001266  0.533334  1
  Si  Si254  1  0.674112  0.499191  0.488166  1
  Si  Si255  1  -0.000000  0.214013  0.542187  1
  Si  Si256  1  0.897307  0.888520  0.393506  1
  Si  Si257  1  0.501104  0.499929  0.524170  1
  Si  Si258  1  0.501303  0.000000  0.497127  1
  Si  Si259  1  0.500256  0.214189  0.479229  1
  Si  Si260  1  0.500015  0.285792  0.542443  1
  Si  Si261  1  0.398469  0.114569  0.628924  1
  Si  Si262  1  0.394747  0.889803  0.628132  1
  Si  Si263  1  0.164407  0.311160  0.569478  1
  Si  Si264  1  0.333876  0.811030  0.569093  1
  Si  Si265  1  0.335444  0.185981  0.569265  1
  Si  Si266  1  0.163073  0.685793  0.570802  1
  Si  Si267  1  0.599715  0.885422  0.628907  1
  Si  Si268  1  0.664502  0.812599  0.569578  1
  Si  Si269  1  0.833546  0.312374  0.568875  1
  Si  Si270  1  0.835927  0.687910  0.569876  1
  Si  Si271  1  0.662525  0.187282  0.570858  1
  Si  Si272  1  0.603397  0.110200  0.630193  1
  H  H273  1  0.142759  0.340997  0.163512  1
  H  H274  1  0.353167  0.846309  0.107502  1
  H  H275  1  0.362298  0.161765  0.108012  1
  H  H276  1  0.141272  0.657369  0.165856  1
  H  H277  1  0.640386  0.840937  0.108246  1
  H  H278  1  0.860496  0.339882  0.163217  1
  H  H279  1  0.854160  0.653564  0.164174  1
  H  H280  1  0.644333  0.156218  0.109765  1
  H  H281  1  0.146077  0.346535  0.620078  1
  H  H282  1  0.354574  0.843852  0.675249  1
  H  H283  1  0.356610  0.159232  0.675990  1
  H  H284  1  0.141913  0.660783  0.622135  1
  H  H285  1  0.636672  0.837833  0.676245  1
  H  H286  1  0.858881  0.341641  0.619478  1
  H  H287  1  0.859497  0.659319  0.620706  1
  H  H288  1  0.643631  0.154155  0.677493  1
