# generated using pymatgen
data_Si22H14O51
_symmetry_space_group_name_H-M   'P 1'
_cell_length_a   13.65576622
_cell_length_b   30.53718233
_cell_length_c   39.61523533
_cell_angle_alpha   116.55342932
_cell_angle_beta   90.00000000
_cell_angle_gamma   90.00000000
_symmetry_Int_Tables_number   1
_chemical_formula_structural   Si22H14O51
_chemical_formula_sum   'Si44 H28 O102'
_cell_volume   14777.3413015
_cell_formula_units_Z   2
loop_
 _symmetry_equiv_pos_site_id
 _symmetry_equiv_pos_as_xyz
  1  'x, y, z'
loop_
 _atom_site_type_symbol
 _atom_site_label
 _atom_site_symmetry_multiplicity
 _atom_site_fract_x
 _atom_site_fract_y
 _atom_site_fract_z
 _atom_site_occupancy
  O  O1  1  0.500702  0.934225  0.163816  1
  O  O2  1  0.729230  0.864857  0.312523  1
  O  O3  1  0.794281  0.834140  0.359889  1
  O  O4  1  0.793876  0.334196  0.416317  1
  O  O5  1  0.793876  0.834196  0.244021  1
  O  O6  1  0.838787  0.919264  0.361832  1
  O  O7  1  0.839440  0.794272  0.404792  1
  O  O8  1  0.838532  0.919290  0.300736  1
  O  O9  1  0.838888  0.294297  0.343998  1
  O  O10  1  0.669700  0.834213  0.403399  1
  O  O11  1  0.668681  0.397145  0.437839  1
  O  O12  1  0.668681  0.897145  0.265542  1
  O  O13  1  0.668678  0.896736  0.381469  1
  O  O14  1  0.668735  0.334300  0.372961  1
  O  O15  1  0.668735  0.834300  0.200664  1
  O  O16  1  0.729215  0.250069  0.366207  1
  O  O17  1  0.869117  0.250031  0.273004  1
  O  O18  1  0.869117  0.750031  0.445300  1
  O  O19  1  0.499364  0.864952  0.392901  1
  O  O20  1  0.500375  0.365018  0.405692  1
  O  O21  1  0.500375  0.865019  0.233396  1
  O  O22  1  0.499471  0.499739  0.313415  1
  O  O23  1  0.499471  0.000000  0.485711  1
  O  O24  1  0.500702  0.434225  0.336112  1
  O  O25  1  0.500702  0.934225  0.508408  1
  O  O26  1  0.588803  0.419123  0.275261  1
  O  O27  1  0.588803  0.919123  0.447557  1
  O  O28  1  0.412193  0.419549  0.386709  1
  O  O29  1  0.412193  0.919550  0.214413  1
  O  O30  1  0.589455  0.419348  0.386756  1
  O  O31  1  0.589455  0.919348  0.214460  1
  O  O32  1  0.408844  0.419094  0.275924  1
  O  O33  1  0.408844  0.919094  0.448220  1
  O  O34  1  0.266600  0.865319  0.312317  1
  O  O35  1  0.200249  0.334434  0.416233  1
  O  O36  1  0.200249  0.834434  0.243937  1
  O  O37  1  0.206662  0.835047  0.361142  1
  O  O38  1  0.160445  0.919560  0.299792  1
  O  O39  1  0.160608  0.295641  0.344266  1
  O  O40  1  0.161452  0.919442  0.361729  1
  O  O41  1  0.162042  0.795629  0.405972  1
  O  O42  1  0.269436  0.750345  0.353461  1
  O  O43  1  0.266534  0.250567  0.366057  1
  O  O44  1  0.330417  0.335032  0.373536  1
  O  O45  1  0.330417  0.835032  0.201240  1
  O  O46  1  0.330218  0.396703  0.437128  1
  O  O47  1  0.330218  0.896703  0.264832  1
  O  O48  1  0.332073  0.833996  0.405293  1
  O  O49  1  0.330180  0.896244  0.381923  1
  O  O50  1  0.132465  0.250297  0.273176  1
  O  O51  1  0.132465  0.750297  0.445472  1
  O  O52  1  0.000000  0.934193  0.336200  1
  O  O53  1  0.001134  0.750259  0.400021  1
  O  O54  1  0.000000  0.250082  0.318446  1
  O  O55  1  0.668365  0.165810  0.517616  1
  O  O56  1  0.668365  0.665810  0.345320  1
  O  O57  1  0.729035  0.135284  0.405763  1
  O  O58  1  0.793633  0.165915  0.358311  1
  O  O59  1  0.793802  0.165785  0.474316  1
  O  O60  1  0.793802  0.665786  0.302020  1
  O  O61  1  0.838540  0.080894  0.356430  1
  O  O62  1  0.838738  0.205695  0.313424  1
  O  O63  1  0.838429  0.080858  0.417520  1
  O  O64  1  0.839064  0.705669  0.374316  1
  O  O65  1  0.868771  0.000000  0.359132  1
  O  O66  1  0.729646  0.749950  0.352073  1
  O  O67  1  0.668615  0.103033  0.336540  1
  O  O68  1  0.668389  0.165904  0.315025  1
  O  O69  1  0.668115  0.103105  0.452696  1
  O  O70  1  0.668115  0.603105  0.280400  1
  O  O71  1  0.499793  0.135366  0.484828  1
  O  O72  1  0.499793  0.635366  0.312532  1
  O  O73  1  0.499233  0.134679  0.326392  1
  O  O74  1  0.588433  0.080688  0.503470  1
  O  O75  1  0.588433  0.580687  0.331174  1
  O  O76  1  0.499942  0.065744  0.209397  1
  O  O77  1  0.499942  0.565744  0.381693  1
  O  O78  1  0.411182  0.080470  0.503455  1
  O  O79  1  0.411182  0.580470  0.331158  1
  O  O80  1  0.589275  0.081090  0.270342  1
  O  O81  1  0.589275  0.581090  0.442638  1
  O  O82  1  0.411904  0.081165  0.270901  1
  O  O83  1  0.411904  0.581165  0.443197  1
  O  O84  1  0.501020  0.000000  0.232054  1
  O  O85  1  0.501020  0.500215  0.404350  1
  O  O86  1  0.270171  0.134545  0.405229  1
  O  O87  1  0.206137  0.165675  0.474282  1
  O  O88  1  0.206137  0.665675  0.301986  1
  O  O89  1  0.206497  0.165293  0.357652  1
  O  O90  1  0.161562  0.080728  0.417725  1
  O  O91  1  0.161962  0.705612  0.374365  1
  O  O92  1  0.163180  0.080946  0.356594  1
  O  O93  1  0.161643  0.205610  0.313249  1
  O  O94  1  0.000000  0.065953  0.381791  1
  O  O95  1  0.331377  0.102935  0.452696  1
  O  O96  1  0.331377  0.602934  0.280400  1
  O  O97  1  0.330634  0.165744  0.315307  1
  O  O98  1  0.331297  0.165281  0.517490  1
  O  O99  1  0.331297  0.665281  0.345194  1
  O  O100  1  0.332589  0.101930  0.336464  1
  O  O101  1  0.131603  0.000000  0.358924  1
  O  O102  1  0.499942  0.065744  0.553990  1
  Si  Si103  1  0.759438  0.302546  0.374038  1
  Si  Si104  1  0.888607  0.944242  0.339878  1
  Si  Si105  1  0.759525  0.879727  0.353809  1
  Si  Si106  1  0.760011  0.802418  0.380401  1
  Si  Si107  1  0.759299  0.879741  0.281463  1
  Si  Si108  1  0.498962  0.443755  0.300799  1
  Si  Si109  1  0.498962  0.943756  0.473095  1
  Si  Si110  1  0.390687  0.878645  0.407728  1
  Si  Si111  1  0.605576  0.379849  0.400504  1
  Si  Si112  1  0.605576  0.879849  0.228208  1
  Si  Si113  1  0.395541  0.380065  0.400422  1
  Si  Si114  1  0.395541  0.880065  0.228126  1
  Si  Si115  1  0.607551  0.879373  0.406906  1
  Si  Si116  1  0.501085  0.444458  0.378118  1
  Si  Si117  1  0.501085  0.944458  0.205821  1
  Si  Si118  1  0.112125  0.944130  0.339243  1
  Si  Si119  1  0.237520  0.879100  0.279627  1
  Si  Si120  1  0.237645  0.304900  0.375325  1
  Si  Si121  1  0.239836  0.879817  0.354486  1
  Si  Si122  1  0.242540  0.804720  0.382415  1
  Si  Si123  1  0.113071  0.750574  0.406954  1
  Si  Si124  1  0.112639  0.250563  0.311849  1
  Si  Si125  1  0.888649  0.055996  0.378394  1
  Si  Si126  1  0.759095  0.120337  0.364421  1
  Si  Si127  1  0.759161  0.197572  0.337790  1
  Si  Si128  1  0.759084  0.120355  0.436808  1
  Si  Si129  1  0.759455  0.697448  0.344323  1
  Si  Si130  1  0.888942  0.249978  0.311523  1
  Si  Si131  1  0.889311  0.749966  0.406760  1
  Si  Si132  1  0.499904  0.055590  0.512017  1
  Si  Si133  1  0.499904  0.555590  0.339721  1
  Si  Si134  1  0.604743  0.120438  0.490000  1
  Si  Si135  1  0.604743  0.620439  0.317704  1
  Si  Si136  1  0.391366  0.120571  0.312189  1
  Si  Si137  1  0.606373  0.120505  0.311350  1
  Si  Si138  1  0.394996  0.120103  0.489892  1
  Si  Si139  1  0.394996  0.620102  0.317596  1
  Si  Si140  1  0.500765  0.055860  0.244378  1
  Si  Si141  1  0.500765  0.555859  0.416674  1
  Si  Si142  1  0.111603  0.055680  0.378518  1
  Si  Si143  1  0.239973  0.196562  0.337430  1
  Si  Si144  1  0.240576  0.120378  0.437296  1
  Si  Si145  1  0.240605  0.696233  0.343884  1
  Si  Si146  1  0.243450  0.120348  0.363117  1
  H  H147  1  0.500702  0.934225  0.141097  1
  H  H148  1  0.793876  0.334196  0.439035  1
  H  H149  1  0.793876  0.834196  0.221302  1
  H  H150  1  0.668681  0.397145  0.460557  1
  H  H151  1  0.668735  0.834300  0.177946  1
  H  H152  1  0.869117  0.250030  0.250286  1
  H  H153  1  0.869117  0.750031  0.468019  1
  H  H154  1  0.500702  0.934225  0.531127  1
  H  H155  1  0.588803  0.419123  0.252543  1
  H  H156  1  0.408844  0.419094  0.253206  1
  H  H157  1  0.200249  0.334434  0.438952  1
  H  H158  1  0.200249  0.834434  0.221218  1
  H  H159  1  0.330417  0.835032  0.178521  1
  H  H160  1  0.330218  0.396703  0.459847  1
  H  H161  1  0.132465  0.250297  0.250457  1
  H  H162  1  0.132465  0.750297  0.468190  1
  H  H163  1  0.668365  0.165810  0.540335  1
  H  H164  1  0.793802  0.165786  0.497035  1
  H  H165  1  0.793802  0.665786  0.279301  1
  H  H166  1  0.668115  0.603105  0.257682  1
  H  H167  1  0.499942  0.065744  0.186679  1
  H  H168  1  0.589275  0.581090  0.465357  1
  H  H169  1  0.411904  0.581165  0.465916  1
  H  H170  1  0.206137  0.165675  0.497001  1
  H  H171  1  0.206137  0.665675  0.279267  1
  H  H172  1  0.331377  0.602934  0.257682  1
  H  H173  1  0.331297  0.165281  0.540209  1
  H  H174  1  0.499942  0.065744  0.576708  1
