# generated using pymatgen
data_Si8H2O17
_symmetry_space_group_name_H-M   'P 1'
_cell_length_a   8.41110944
_cell_length_b   9.86934954
_cell_length_c   36.19121478
_cell_angle_alpha   58.40835966
_cell_angle_beta   90.00000000
_cell_angle_gamma   64.79224931
_symmetry_Int_Tables_number   1
_chemical_formula_structural   Si8H2O17
_chemical_formula_sum   'Si24 H6 O51'
_cell_volume   2216.23068678
_cell_formula_units_Z   3
loop_
 _symmetry_equiv_pos_site_id
 _symmetry_equiv_pos_as_xyz
  1  'x, y, z'
loop_
 _atom_site_type_symbol
 _atom_site_label
 _atom_site_symmetry_multiplicity
 _atom_site_fract_x
 _atom_site_fract_y
 _atom_site_fract_z
 _atom_site_occupancy
  Si  Si1  1  0.493656  0.886780  0.265944  1
  Si  Si2  1  0.112613  0.505948  0.248942  1
  Si  Si3  1  0.505279  0.380993  0.267119  1
  Si  Si4  1  0.493656  0.886780  0.408801  1
  Si  Si5  1  0.618667  0.493866  0.322343  1
  Si  Si6  1  0.886397  0.618920  0.304401  1
  Si  Si7  1  0.112613  0.505948  0.391799  1
  Si  Si8  1  0.505279  0.380993  0.409976  1
  Si  Si9  1  0.380412  0.113068  0.305127  1
  O  O10  1  0.705154  0.807443  0.276908  1
  O  O11  1  0.192013  0.294310  0.278516  1
  O  O12  1  0.293768  0.513226  0.248555  1
  O  O13  1  0.406704  0.002313  0.214081  1
  O  O14  1  0.999181  0.587687  0.273029  1
  O  O15  1  0.587392  0.409742  0.226973  1
  O  O16  1  0.999734  0.592726  0.200878  1
  O  O17  1  0.705154  0.807443  0.419766  1
  O  O18  1  0.486441  0.705474  0.291773  1
  O  O19  1  0.807039  0.486684  0.324012  1
  O  O20  1  0.192013  0.294310  0.421373  1
  O  O21  1  0.293768  0.513226  0.391412  1
  O  O22  1  0.512569  0.192430  0.294118  1
  O  O23  1  0.406704  0.002313  0.356938  1
  O  O24  1  0.592113  0.409420  0.298447  1
  O  O25  1  0.999181  0.587687  0.415887  1
  O  O26  1  0.411817  0.997412  0.286212  1
  O  O27  1  0.587392  0.409742  0.369830  1
  O  O28  1  0.999734  0.592726  0.343735  1
  H  H29  1  0.406704  0.002313  0.189213  1
  H  H30  1  0.587392  0.409742  0.202105  1
  H  H31  1  0.999734  0.592726  0.176010  1
  O  O32  1  0.705154  0.807443  0.562623  1
  O  O33  1  0.486441  0.705474  0.434630  1
  O  O34  1  0.807039  0.486684  0.466870  1
  O  O35  1  0.192013  0.294310  0.564230  1
  O  O36  1  0.293768  0.513226  0.534269  1
  O  O37  1  0.512569  0.192430  0.436975  1
  O  O38  1  0.406704  0.002313  0.499795  1
  O  O39  1  0.592113  0.409420  0.441304  1
  O  O40  1  0.999181  0.587687  0.558744  1
  O  O41  1  0.411817  0.997412  0.429069  1
  O  O42  1  0.587392  0.409742  0.512687  1
  O  O43  1  0.999734  0.592726  0.486592  1
  Si  Si44  1  0.493656  0.886780  0.551658  1
  Si  Si45  1  0.618667  0.493866  0.465200  1
  Si  Si46  1  0.886397  0.618920  0.447258  1
  Si  Si47  1  0.112613  0.505948  0.534656  1
  Si  Si48  1  0.505279  0.380993  0.552833  1
  Si  Si49  1  0.380412  0.113068  0.447984  1
  Si  Si50  1  0.493656  0.886780  0.694515  1
  Si  Si51  1  0.618667  0.493866  0.608057  1
  Si  Si52  1  0.886397  0.618920  0.590116  1
  Si  Si53  1  0.112613  0.505948  0.677514  1
  Si  Si54  1  0.505279  0.380993  0.695690  1
  Si  Si55  1  0.380412  0.113068  0.590842  1
  Si  Si56  1  0.618667  0.493866  0.750914  1
  Si  Si57  1  0.886397  0.618920  0.732973  1
  Si  Si58  1  0.380412  0.113068  0.733699  1
  O  O59  1  0.705154  0.807443  0.705480  1
  O  O60  1  0.486441  0.705474  0.577487  1
  O  O61  1  0.807039  0.486684  0.609727  1
  O  O62  1  0.192013  0.294310  0.707087  1
  O  O63  1  0.293768  0.513226  0.677126  1
  O  O64  1  0.512569  0.192430  0.579832  1
  O  O65  1  0.406704  0.002313  0.642652  1
  O  O66  1  0.592113  0.409420  0.584161  1
  O  O67  1  0.999181  0.587687  0.701601  1
  O  O68  1  0.411817  0.997412  0.571927  1
  O  O69  1  0.587392  0.409742  0.655545  1
  O  O70  1  0.999734  0.592726  0.629449  1
  O  O71  1  0.486441  0.705474  0.720344  1
  O  O72  1  0.807039  0.486684  0.752584  1
  O  O73  1  0.512569  0.192430  0.722689  1
  O  O74  1  0.406704  0.002313  0.785510  1
  O  O75  1  0.592113  0.409420  0.727018  1
  O  O76  1  0.411817  0.997412  0.714784  1
  O  O77  1  0.587392  0.409742  0.798402  1
  O  O78  1  0.999734  0.592726  0.772306  1
  H  H79  1  0.406704  0.002313  0.810378  1
  H  H80  1  0.587392  0.409742  0.823270  1
  H  H81  1  0.999734  0.592726  0.797174  1
