# generated using pymatgen
data_Si21H2O43
_symmetry_space_group_name_H-M   'P 1'
_cell_length_a   15.08014935
_cell_length_b   13.75080220
_cell_length_c   63.36899560
_cell_angle_alpha   90.00000000
_cell_angle_beta   90.00000000
_cell_angle_gamma   90.00000000
_symmetry_Int_Tables_number   1
_chemical_formula_structural   Si21H2O43
_chemical_formula_sum   'Si168 H16 O344'
_cell_volume   13140.4579637
_cell_formula_units_Z   8
loop_
 _symmetry_equiv_pos_site_id
 _symmetry_equiv_pos_as_xyz
  1  'x, y, z'
loop_
 _atom_site_type_symbol
 _atom_site_label
 _atom_site_symmetry_multiplicity
 _atom_site_fract_x
 _atom_site_fract_y
 _atom_site_fract_z
 _atom_site_occupancy
  O  O1  1  0.083995  0.754606  0.125617  1
  O  O2  1  0.411814  0.254907  0.128091  1
  O  O3  1  0.416559  0.745427  0.125368  1
  O  O4  1  0.081257  0.245343  0.124987  1
  O  O5  1  0.144393  0.842889  0.093721  1
  O  O6  1  0.359037  0.341717  0.095144  1
  O  O7  1  0.355924  0.658022  0.093413  1
  O  O8  1  0.143520  0.158055  0.093105  1
  O  O9  1  0.250030  0.749492  0.118383  1
  O  O10  1  0.248049  0.249345  0.118506  1
  O  O11  1  0.177561  0.906347  0.130248  1
  O  O12  1  0.317973  0.406704  0.131135  1
  O  O13  1  0.324424  0.592659  0.129744  1
  O  O14  1  0.173081  0.092155  0.129352  1
  O  O15  1  0.253009  0.005376  0.159306  1
  O  O16  1  0.252928  0.508600  0.161293  1
  O  O17  1  0.419352  0.000000  0.165278  1
  O  O18  1  0.419228  0.499408  0.155237  1
  O  O19  1  0.085180  0.499080  0.164494  1
  O  O20  1  0.085108  0.000000  0.156095  1
  O  O21  1  0.499754  0.599396  0.182539  1
  O  O22  1  0.319149  0.902222  0.188994  1
  O  O23  1  0.005212  0.749608  0.160461  1
  O  O24  1  0.005498  0.249672  0.160193  1
  O  O25  1  0.495431  0.749784  0.160178  1
  O  O26  1  0.581114  0.255527  0.124792  1
  O  O27  1  0.914441  0.755015  0.127084  1
  O  O28  1  0.911595  0.245161  0.127359  1
  O  O29  1  0.586275  0.744577  0.126798  1
  O  O30  1  0.646206  0.347588  0.093921  1
  O  O31  1  0.857623  0.844104  0.094827  1
  O  O32  1  0.861480  0.160594  0.093869  1
  O  O33  1  0.638295  0.661213  0.093213  1
  O  O34  1  0.747313  0.244836  0.117877  1
  O  O35  1  0.750755  0.744569  0.117887  1
  O  O36  1  0.678851  0.402446  0.131088  1
  O  O37  1  0.817581  0.903336  0.131265  1
  O  O38  1  0.823132  0.089309  0.129400  1
  O  O39  1  0.673843  0.588121  0.128618  1
  O  O40  1  0.753080  0.506170  0.159442  1
  O  O41  1  0.753017  0.005359  0.161269  1
  O  O42  1  0.919233  0.500411  0.165619  1
  O  O43  1  0.919129  0.998704  0.155052  1
  O  O44  1  0.585270  0.998847  0.164572  1
  O  O45  1  0.585264  0.500298  0.156022  1
  O  O46  1  0.998644  0.400744  0.138036  1
  O  O47  1  -0.000000  0.599348  0.138126  1
  O  O48  1  -0.000000  0.099159  0.182466  1
  O  O49  1  -0.000000  0.900587  0.182634  1
  O  O50  1  0.508776  0.249575  0.160437  1
  O  O51  1  0.500265  0.900472  0.137875  1
  O  O52  1  0.500228  0.400681  0.182623  1
  O  O53  1  0.500447  0.099279  0.138054  1
  O  O54  1  0.081207  0.255229  0.195400  1
  O  O55  1  0.083114  0.254446  0.299346  1
  O  O56  1  0.416674  0.754835  0.195023  1
  O  O57  1  0.419144  0.755614  0.298397  1
  O  O58  1  0.414974  0.246142  0.299696  1
  O  O59  1  0.411381  0.245259  0.192711  1
  O  O60  1  0.088117  0.745326  0.301629  1
  O  O61  1  0.084517  0.745766  0.195208  1
  O  O62  1  0.146077  0.346535  0.226383  1
  O  O63  1  0.142759  0.340997  0.267165  1
  O  O64  1  0.353167  0.846309  0.226056  1
  O  O65  1  0.354574  0.843852  0.266876  1
  O  O66  1  0.356610  0.159232  0.267420  1
  O  O67  1  0.362298  0.161765  0.226430  1
  O  O68  1  0.141272  0.657369  0.268885  1
  O  O69  1  0.141913  0.660783  0.227892  1
  O  O70  1  0.247227  0.244168  0.202367  1
  O  O71  1  0.249263  0.250066  0.292104  1
  O  O72  1  0.250782  0.744282  0.202248  1
  O  O73  1  0.252229  0.749652  0.292263  1
  O  O74  1  0.175138  0.407412  0.303334  1
  O  O75  1  0.325778  0.907167  0.303429  1
  O  O76  1  0.322791  0.093099  0.303639  1
  O  O77  1  0.323798  0.088369  0.191168  1
  O  O78  1  0.171269  0.588299  0.192116  1
  O  O79  1  0.118123  0.501411  0.247712  1
  O  O80  1  0.381361  0.002512  0.246737  1
  O  O81  1  0.001548  0.372714  0.246285  1
  O  O82  1  0.496994  0.872763  0.246404  1
  O  O83  1  0.181476  0.593177  0.304973  1
  O  O84  1  0.179428  0.402530  0.189374  1
  O  O85  1  0.586220  0.754951  0.193575  1
  O  O86  1  0.588628  0.754347  0.301400  1
  O  O87  1  0.911657  0.254410  0.193057  1
  O  O88  1  0.913434  0.255345  0.300286  1
  O  O89  1  0.918674  0.744648  0.298717  1
  O  O90  1  0.914869  0.744863  0.193917  1
  O  O91  1  0.584539  0.244614  0.300392  1
  O  O92  1  0.580717  0.244811  0.196140  1
  O  O93  1  0.640386  0.840937  0.226602  1
  O  O94  1  0.636672  0.837833  0.267608  1
  O  O95  1  0.858881  0.341641  0.225943  1
  O  O96  1  0.860496  0.339882  0.266949  1
  O  O97  1  0.854160  0.653564  0.267651  1
  O  O98  1  0.859497  0.659319  0.226844  1
  O  O99  1  0.643631  0.154155  0.268524  1
  O  O100  1  0.644333  0.156218  0.227717  1
  O  O101  1  0.750373  0.750477  0.202587  1
  O  O102  1  0.752671  0.755914  0.291554  1
  O  O103  1  0.747548  0.250309  0.202474  1
  O  O104  1  0.748712  0.255656  0.291676  1
  O  O105  1  0.678389  0.907702  0.190654  1
  O  O106  1  0.675734  0.911214  0.302880  1
  O  O107  1  0.818969  0.406676  0.189854  1
  O  O108  1  0.825932  0.411835  0.302504  1
  O  O109  1  0.820467  0.597737  0.304717  1
  O  O110  1  0.822363  0.592609  0.190926  1
  O  O111  1  0.501154  0.127201  0.247908  1
  O  O112  1  0.673644  0.093303  0.191110  1
  O  O113  1  0.616917  0.997485  0.247641  1
  O  O114  1  0.882780  0.498682  0.246559  1
  O  O115  1  0.000000  0.627396  0.248093  1
  O  O116  1  0.088028  0.755223  0.366772  1
  O  O117  1  0.415186  0.254235  0.368716  1
  O  O118  1  0.418708  0.744472  0.369316  1
  O  O119  1  0.083559  0.246250  0.368432  1
  O  O120  1  0.139066  0.839910  0.400194  1
  O  O121  1  0.358667  0.338417  0.401608  1
  O  O122  1  0.352873  0.652518  0.400099  1
  O  O123  1  0.144913  0.155506  0.399805  1
  O  O124  1  0.252440  0.755464  0.376023  1
  O  O125  1  0.249160  0.255398  0.376057  1
  O  O126  1  0.176707  0.911315  0.364670  1
  O  O127  1  0.328208  0.411542  0.365919  1
  O  O128  1  0.320569  0.597353  0.362959  1
  O  O129  1  0.180052  0.097619  0.362985  1
  O  O130  1  0.250098  0.490541  0.334519  1
  O  O131  1  0.246132  0.996996  0.332939  1
  O  O132  1  0.417377  0.500046  0.338717  1
  O  O133  1  0.414212  0.001203  0.329917  1
  O  O134  1  0.079976  0.001103  0.339149  1
  O  O135  1  0.083193  0.499677  0.329534  1
  O  O136  1  0.118112  0.998984  0.420461  1
  O  O137  1  0.001314  0.127372  0.420126  1
  O  O138  1  0.492644  0.750423  0.333903  1
  O  O139  1  0.496345  0.250439  0.334179  1
  O  O140  1  0.497445  0.627405  0.420045  1
  O  O141  1  0.000000  0.599453  0.356397  1
  O  O142  1  0.002391  0.250426  0.333922  1
  O  O143  1  0.499980  0.900846  0.356216  1
  O  O144  1  0.584881  0.255129  0.367889  1
  O  O145  1  0.918556  0.755012  0.369614  1
  O  O146  1  0.914016  0.244222  0.367694  1
  O  O147  1  0.588159  0.745621  0.366516  1
  O  O148  1  0.640788  0.341608  0.400625  1
  O  O149  1  0.856462  0.842344  0.401489  1
  O  O150  1  0.857517  0.156968  0.400329  1
  O  O151  1  0.639862  0.659641  0.399673  1
  O  O152  1  0.749734  0.250574  0.376319  1
  O  O153  1  0.751922  0.750209  0.376239  1
  O  O154  1  0.676774  0.407727  0.364627  1
  O  O155  1  0.826204  0.907378  0.365104  1
  O  O156  1  0.820212  0.092937  0.364084  1
  O  O157  1  0.681047  0.593383  0.363762  1
  O  O158  1  0.746407  0.992963  0.334942  1
  O  O159  1  0.750174  0.494140  0.333734  1
  O  O160  1  0.914075  0.000000  0.338321  1
  O  O161  1  0.917287  0.501147  0.329212  1
  O  O162  1  0.583330  0.500725  0.338807  1
  O  O163  1  0.580213  -0.000000  0.328780  1
  O  O164  1  0.500229  0.099480  0.356395  1
  O  O165  1  0.000000  0.900784  0.311849  1
  O  O166  1  0.682005  0.097088  0.305231  1
  O  O167  1  0.998987  0.099529  0.311681  1
  O  O168  1  0.616863  0.502328  0.420277  1
  O  O169  1  0.992542  0.750390  0.334182  1
  O  O170  1  0.500551  0.400752  0.311842  1
  O  O171  1  0.998497  0.400729  0.356291  1
  O  O172  1  0.500079  0.599360  0.311724  1
  O  O173  1  0.083995  0.754606  0.473098  1
  O  O174  1  0.411814  0.254907  0.475572  1
  O  O175  1  0.416559  0.745427  0.472848  1
  O  O176  1  0.081257  0.245343  0.472467  1
  O  O177  1  0.144393  0.842889  0.441201  1
  O  O178  1  0.359037  0.341717  0.442625  1
  O  O179  1  0.355924  0.658022  0.440894  1
  O  O180  1  0.143520  0.158055  0.440586  1
  O  O181  1  0.250030  0.749492  0.465864  1
  O  O182  1  0.248049  0.249345  0.465987  1
  O  O183  1  0.177561  0.906347  0.477729  1
  O  O184  1  0.317973  0.406704  0.478616  1
  O  O185  1  0.324424  0.592659  0.477224  1
  O  O186  1  0.173081  0.092155  0.476833  1
  O  O187  1  0.253009  0.005376  0.506787  1
  O  O188  1  0.252928  0.508600  0.508774  1
  O  O189  1  0.419352  0.000000  0.512758  1
  O  O190  1  0.419228  0.499408  0.502718  1
  O  O191  1  0.085180  0.499080  0.511975  1
  O  O192  1  0.085108  0.000000  0.503576  1
  O  O193  1  0.499754  0.599396  0.530019  1
  O  O194  1  0.319149  0.902222  0.536475  1
  O  O195  1  0.381470  0.497867  0.421456  1
  O  O196  1  0.005212  0.749608  0.507942  1
  O  O197  1  0.005498  0.249672  0.507673  1
  O  O198  1  0.495431  0.749784  0.507658  1
  O  O199  1  0.581114  0.255527  0.472273  1
  O  O200  1  0.914441  0.755015  0.474564  1
  O  O201  1  0.911595  0.245161  0.474839  1
  O  O202  1  0.586275  0.744577  0.474278  1
  O  O203  1  0.646206  0.347588  0.441402  1
  O  O204  1  0.857623  0.844104  0.442307  1
  O  O205  1  0.861480  0.160594  0.441349  1
  O  O206  1  0.638295  0.661213  0.440694  1
  O  O207  1  0.747313  0.244836  0.465358  1
  O  O208  1  0.750755  0.744569  0.465367  1
  O  O209  1  0.678851  0.402446  0.478569  1
  O  O210  1  0.817581  0.903336  0.478746  1
  O  O211  1  0.823132  0.089309  0.476880  1
  O  O212  1  0.673843  0.588121  0.476098  1
  O  O213  1  0.753080  0.506170  0.506923  1
  O  O214  1  0.753017  0.005359  0.508750  1
  O  O215  1  0.919233  0.500411  0.513100  1
  O  O216  1  0.919129  0.998704  0.502532  1
  O  O217  1  0.585270  0.998847  0.512052  1
  O  O218  1  0.585264  0.500298  0.503502  1
  O  O219  1  0.998644  0.400744  0.485517  1
  O  O220  1  0.500783  0.372821  0.421869  1
  O  O221  1  -0.000000  0.599348  0.485607  1
  O  O222  1  -0.000000  0.099159  0.529947  1
  O  O223  1  0.882799  0.001057  0.421457  1
  O  O224  1  -0.000000  0.872629  0.421597  1
  O  O225  1  0.000000  0.900587  0.530115  1
  O  O226  1  0.508776  0.249575  0.507917  1
  O  O227  1  0.500265  0.900472  0.485355  1
  O  O228  1  0.500228  0.400681  0.530104  1
  O  O229  1  0.500447  0.099279  0.485535  1
  O  O230  1  0.081207  0.255229  0.542880  1
  O  O231  1  0.083114  0.254446  0.646827  1
  O  O232  1  0.416674  0.754835  0.542504  1
  O  O233  1  0.419144  0.755614  0.645877  1
  O  O234  1  0.414974  0.246142  0.647176  1
  O  O235  1  0.411381  0.245259  0.540192  1
  O  O236  1  0.088117  0.745326  0.649109  1
  O  O237  1  0.084517  0.745766  0.542689  1
  O  O238  1  0.146077  0.346535  0.573863  1
  O  O239  1  0.142759  0.340997  0.614645  1
  O  O240  1  0.353167  0.846309  0.573536  1
  O  O241  1  0.354574  0.843852  0.614357  1
  O  O242  1  0.356610  0.159232  0.614901  1
  O  O243  1  0.362298  0.161765  0.573910  1
  O  O244  1  0.141272  0.657369  0.616366  1
  O  O245  1  0.141913  0.660783  0.575373  1
  O  O246  1  0.247227  0.244168  0.549848  1
  O  O247  1  0.249263  0.250066  0.639585  1
  O  O248  1  0.250782  0.744282  0.549728  1
  O  O249  1  0.252229  0.749652  0.639743  1
  O  O250  1  0.175138  0.407412  0.650814  1
  O  O251  1  0.325778  0.907167  0.650910  1
  O  O252  1  0.322791  0.093099  0.651120  1
  O  O253  1  0.323798  0.088369  0.538649  1
  O  O254  1  0.171269  0.588299  0.539596  1
  O  O255  1  0.118123  0.501411  0.595192  1
  O  O256  1  0.381361  0.002512  0.594218  1
  O  O257  1  0.001548  0.372714  0.593766  1
  O  O258  1  0.496994  0.872763  0.593884  1
  O  O259  1  0.181476  0.593177  0.652454  1
  O  O260  1  0.179428  0.402530  0.536854  1
  O  O261  1  0.586220  0.754951  0.541056  1
  O  O262  1  0.588628  0.754347  0.648880  1
  O  O263  1  0.911657  0.254410  0.540537  1
  O  O264  1  0.913434  0.255345  0.647767  1
  O  O265  1  0.918674  0.744648  0.646198  1
  O  O266  1  0.914869  0.744863  0.541397  1
  O  O267  1  0.584539  0.244614  0.647872  1
  O  O268  1  0.580717  0.244811  0.543621  1
  O  O269  1  0.640386  0.840937  0.574082  1
  O  O270  1  0.636672  0.837833  0.615088  1
  O  O271  1  0.858881  0.341641  0.573423  1
  O  O272  1  0.860496  0.339882  0.614429  1
  O  O273  1  0.854160  0.653564  0.615131  1
  O  O274  1  0.859497  0.659319  0.574324  1
  O  O275  1  0.643631  0.154155  0.616004  1
  O  O276  1  0.644333  0.156218  0.575197  1
  O  O277  1  0.750373  0.750477  0.550067  1
  O  O278  1  0.752671  0.755914  0.639035  1
  O  O279  1  0.747548  0.250309  0.549954  1
  O  O280  1  0.748712  0.255656  0.639157  1
  O  O281  1  0.678389  0.907702  0.538135  1
  O  O282  1  0.675734  0.911214  0.650361  1
  O  O283  1  0.818969  0.406676  0.537335  1
  O  O284  1  0.825932  0.411835  0.649985  1
  O  O285  1  0.820467  0.597737  0.652198  1
  O  O286  1  0.822363  0.592609  0.538407  1
  O  O287  1  0.501154  0.127201  0.595388  1
  O  O288  1  0.673644  0.093303  0.538591  1
  O  O289  1  0.616917  0.997485  0.595121  1
  O  O290  1  0.882780  0.498682  0.594039  1
  O  O291  1  0.000000  0.627396  0.595574  1
  O  O292  1  0.088028  0.755223  0.714253  1
  O  O293  1  0.415186  0.254235  0.716196  1
  O  O294  1  0.418708  0.744472  0.716796  1
  O  O295  1  0.083559  0.246250  0.715912  1
  O  O296  1  0.139066  0.839910  0.747675  1
  O  O297  1  0.358667  0.338417  0.749089  1
  O  O298  1  0.352873  0.652518  0.747580  1
  O  O299  1  0.144913  0.155506  0.747286  1
  O  O300  1  0.252440  0.755464  0.723503  1
  O  O301  1  0.249160  0.255398  0.723537  1
  O  O302  1  0.176707  0.911315  0.712150  1
  O  O303  1  0.328208  0.411542  0.713400  1
  O  O304  1  0.320569  0.597353  0.710439  1
  O  O305  1  0.180052  0.097619  0.710465  1
  O  O306  1  0.250098  0.490541  0.682000  1
  O  O307  1  0.246132  0.996996  0.680419  1
  O  O308  1  0.417377  0.500046  0.686198  1
  O  O309  1  0.414212  0.001203  0.677398  1
  O  O310  1  0.079976  0.001103  0.686630  1
  O  O311  1  0.083193  0.499677  0.677015  1
  O  O312  1  0.492644  0.750423  0.681383  1
  O  O313  1  0.496345  0.250439  0.681660  1
  O  O314  1  -0.000000  0.599453  0.703878  1
  O  O315  1  0.002391  0.250426  0.681402  1
  O  O316  1  0.499980  0.900846  0.703696  1
  O  O317  1  0.584881  0.255129  0.715369  1
  O  O318  1  0.918556  0.755012  0.717094  1
  O  O319  1  0.914016  0.244222  0.715175  1
  O  O320  1  0.588159  0.745621  0.713997  1
  O  O321  1  0.640788  0.341608  0.748106  1
  O  O322  1  0.856462  0.842344  0.748969  1
  O  O323  1  0.857517  0.156968  0.747809  1
  O  O324  1  0.639862  0.659641  0.747154  1
  O  O325  1  0.749734  0.250574  0.723799  1
  O  O326  1  0.751922  0.750209  0.723719  1
  O  O327  1  0.676774  0.407727  0.712108  1
  O  O328  1  0.826204  0.907378  0.712584  1
  O  O329  1  0.820212  0.092937  0.711564  1
  O  O330  1  0.681047  0.593383  0.711242  1
  O  O331  1  0.746407  0.992963  0.682423  1
  O  O332  1  0.750174  0.494140  0.681214  1
  O  O333  1  0.914075  0.000000  0.685802  1
  O  O334  1  0.917287  0.501147  0.676692  1
  O  O335  1  0.583330  0.500725  0.686288  1
  O  O336  1  0.580213  0.000000  0.676261  1
  O  O337  1  0.500229  0.099480  0.703876  1
  O  O338  1  -0.000000  0.900784  0.659330  1
  O  O339  1  0.682005  0.097088  0.652712  1
  O  O340  1  0.998987  0.099529  0.659162  1
  O  O341  1  0.992542  0.750390  0.681662  1
  O  O342  1  0.500551  0.400752  0.659323  1
  O  O343  1  0.998497  0.400729  0.703771  1
  O  O344  1  0.500079  0.599360  0.659204  1
  Si  Si345  1  -0.000000  0.499920  0.150487  1
  Si  Si346  1  0.000000  0.714207  0.137205  1
  Si  Si347  1  0.164769  0.812478  0.116897  1
  Si  Si348  1  0.333521  0.312297  0.118054  1
  Si  Si349  1  0.335814  0.687496  0.116662  1
  Si  Si350  1  0.162379  0.187451  0.116427  1
  Si  Si351  1  0.327349  0.998641  0.176235  1
  Si  Si352  1  0.327157  0.501785  0.144319  1
  Si  Si353  1  0.173690  0.499763  0.176870  1
  Si  Si354  1  0.173572  0.000000  0.143725  1
  Si  Si355  1  0.499973  0.785569  0.136940  1
  Si  Si356  1  -0.000000  0.000000  0.170137  1
  Si  Si357  1  -0.000000  0.785732  0.183671  1
  Si  Si358  1  0.499830  0.714275  0.183432  1
  Si  Si359  1  -0.000000  0.285882  0.137008  1
  Si  Si360  1  0.664383  0.311652  0.116830  1
  Si  Si361  1  0.834133  0.810870  0.117613  1
  Si  Si362  1  0.835167  0.186020  0.116982  1
  Si  Si363  1  0.663033  0.685744  0.116488  1
  Si  Si364  1  0.827016  0.501275  0.176497  1
  Si  Si365  1  0.826800  0.000000  0.144204  1
  Si  Si366  1  0.673825  0.001266  0.176918  1
  Si  Si367  1  0.674112  0.499191  0.143767  1
  Si  Si368  1  0.000000  0.214013  0.183416  1
  Si  Si369  1  0.501104  0.499929  0.170192  1
  Si  Si370  1  0.501303  -0.000000  0.150344  1
  Si  Si371  1  0.500256  0.214189  0.137207  1
  Si  Si372  1  0.500015  0.285792  0.183604  1
  Si  Si373  1  0.398469  0.114569  0.247078  1
  Si  Si374  1  0.394747  0.889803  0.246497  1
  Si  Si375  1  0.102076  0.613654  0.248210  1
  Si  Si376  1  0.103880  0.388900  0.246871  1
  Si  Si377  1  0.164407  0.311160  0.203447  1
  Si  Si378  1  0.163529  0.312144  0.290416  1
  Si  Si379  1  0.333876  0.811030  0.203164  1
  Si  Si380  1  0.337042  0.812922  0.290166  1
  Si  Si381  1  0.335096  0.187940  0.290625  1
  Si  Si382  1  0.335444  0.185981  0.203290  1
  Si  Si383  1  0.166426  0.687269  0.291783  1
  Si  Si384  1  0.163073  0.685793  0.204419  1
  Si  Si385  1  0.599715  0.885422  0.247065  1
  Si  Si386  1  0.664502  0.812599  0.203521  1
  Si  Si387  1  0.664218  0.813722  0.290713  1
  Si  Si388  1  0.833546  0.312374  0.203005  1
  Si  Si389  1  0.836383  0.314589  0.290220  1
  Si  Si390  1  0.835518  0.688910  0.290581  1
  Si  Si391  1  0.835927  0.687910  0.203739  1
  Si  Si392  1  0.665699  0.188839  0.291308  1
  Si  Si393  1  0.662525  0.187282  0.204460  1
  Si  Si394  1  0.603397  0.110200  0.248009  1
  Si  Si395  1  0.897128  0.611224  0.247245  1
  Si  Si396  1  0.898910  0.386408  0.246433  1
  Si  Si397  1  -0.000000  0.714352  0.357371  1
  Si  Si398  1  0.499340  0.285897  0.310921  1
  Si  Si399  1  0.498784  0.000000  0.343903  1
  Si  Si400  1  0.499345  0.214336  0.357402  1
  Si  Si401  1  0.164699  0.814447  0.377043  1
  Si  Si402  1  0.336898  0.313864  0.378144  1
  Si  Si403  1  0.335196  0.688417  0.377166  1
  Si  Si404  1  0.165458  0.189590  0.376903  1
  Si  Si405  1  0.327556  0.499829  0.350581  1
  Si  Si406  1  0.325912  0.000000  0.317461  1
  Si  Si407  1  0.172208  0.001873  0.349997  1
  Si  Si408  1  0.173921  0.497761  0.318063  1
  Si  Si409  1  0.103715  0.111523  0.420231  1
  Si  Si410  1  0.395205  0.610457  0.420606  1
  Si  Si411  1  0.102248  0.886701  0.420825  1
  Si  Si412  1  0.000000  0.785896  0.310956  1
  Si  Si413  1  -0.000000  0.500223  0.343952  1
  Si  Si414  1  0.898752  0.113317  0.420812  1
  Si  Si415  1  0.600169  0.614507  0.420166  1
  Si  Si416  1  0.663897  0.312628  0.377521  1
  Si  Si417  1  0.837327  0.812614  0.378194  1
  Si  Si418  1  0.834714  0.187014  0.377273  1
  Si  Si419  1  0.665961  0.688100  0.376734  1
  Si  Si420  1  0.825419  0.998512  0.350633  1
  Si  Si421  1  0.827079  0.501320  0.317498  1
  Si  Si422  1  0.674185  0.499211  0.350250  1
  Si  Si423  1  0.672499  0.000000  0.317917  1
  Si  Si424  1  0.998214  0.000000  0.324152  1
  Si  Si425  1  0.500442  0.500205  0.324189  1
  Si  Si426  1  -0.000000  0.214405  0.310703  1
  Si  Si427  1  -0.000000  0.285865  0.357189  1
  Si  Si428  1  0.500249  0.714243  0.310721  1
  Si  Si429  1  0.500105  0.785966  0.357128  1
  Si  Si430  1  0.398052  0.385723  0.421956  1
  Si  Si431  1  -0.000000  0.499920  0.497968  1
  Si  Si432  1  0.000000  0.714207  0.484685  1
  Si  Si433  1  0.164769  0.812478  0.464377  1
  Si  Si434  1  0.333521  0.312297  0.465534  1
  Si  Si435  1  0.335814  0.687496  0.464142  1
  Si  Si436  1  0.162379  0.187451  0.463907  1
  Si  Si437  1  0.327349  0.998641  0.523716  1
  Si  Si438  1  0.327157  0.501785  0.491799  1
  Si  Si439  1  0.173690  0.499763  0.524351  1
  Si  Si440  1  0.173572  0.000000  0.491206  1
  Si  Si441  1  0.499973  0.785569  0.484421  1
  Si  Si442  1  -0.000000  0.000000  0.517618  1
  Si  Si443  1  -0.000000  0.785732  0.531151  1
  Si  Si444  1  0.499830  0.714275  0.530912  1
  Si  Si445  1  0.602982  0.389707  0.421003  1
  Si  Si446  1  -0.000000  0.285882  0.484489  1
  Si  Si447  1  0.664383  0.311652  0.464310  1
  Si  Si448  1  0.834133  0.810870  0.465093  1
  Si  Si449  1  0.835167  0.186020  0.464462  1
  Si  Si450  1  0.663033  0.685744  0.463969  1
  Si  Si451  1  0.827016  0.501275  0.523978  1
  Si  Si452  1  0.826800  0.000000  0.491684  1
  Si  Si453  1  0.673825  0.001266  0.524399  1
  Si  Si454  1  0.674112  0.499191  0.491247  1
  Si  Si455  1  -0.000000  0.214013  0.530897  1
  Si  Si456  1  0.897307  0.888520  0.421770  1
  Si  Si457  1  0.501104  0.499929  0.517673  1
  Si  Si458  1  0.501303  0.000000  0.497824  1
  Si  Si459  1  0.500256  0.214189  0.484688  1
  Si  Si460  1  0.500015  0.285792  0.531085  1
  Si  Si461  1  0.398469  0.114569  0.594558  1
  Si  Si462  1  0.394747  0.889803  0.593978  1
  Si  Si463  1  0.102076  0.613654  0.595691  1
  Si  Si464  1  0.103880  0.388900  0.594351  1
  Si  Si465  1  0.164407  0.311160  0.550927  1
  Si  Si466  1  0.163529  0.312144  0.637897  1
  Si  Si467  1  0.333876  0.811030  0.550645  1
  Si  Si468  1  0.337042  0.812922  0.637647  1
  Si  Si469  1  0.335096  0.187940  0.638106  1
  Si  Si470  1  0.335444  0.185981  0.550771  1
  Si  Si471  1  0.166426  0.687269  0.639263  1
  Si  Si472  1  0.163073  0.685793  0.551899  1
  Si  Si473  1  0.599715  0.885422  0.594546  1
  Si  Si474  1  0.664502  0.812599  0.551001  1
  Si  Si475  1  0.664218  0.813722  0.638194  1
  Si  Si476  1  0.833546  0.312374  0.550485  1
  Si  Si477  1  0.836383  0.314589  0.637701  1
  Si  Si478  1  0.835518  0.688910  0.638061  1
  Si  Si479  1  0.835927  0.687910  0.551220  1
  Si  Si480  1  0.665699  0.188839  0.638789  1
  Si  Si481  1  0.662525  0.187282  0.551940  1
  Si  Si482  1  0.603397  0.110200  0.595490  1
  Si  Si483  1  0.897128  0.611224  0.594725  1
  Si  Si484  1  0.898910  0.386408  0.593914  1
  Si  Si485  1  -0.000000  0.714352  0.704852  1
  Si  Si486  1  0.499340  0.285897  0.658401  1
  Si  Si487  1  0.498784  0.000000  0.691383  1
  Si  Si488  1  0.499345  0.214336  0.704882  1
  Si  Si489  1  0.164699  0.814447  0.724524  1
  Si  Si490  1  0.336898  0.313864  0.725625  1
  Si  Si491  1  0.335196  0.688417  0.724647  1
  Si  Si492  1  0.165458  0.189590  0.724384  1
  Si  Si493  1  0.327556  0.499829  0.698061  1
  Si  Si494  1  0.325912  0.000000  0.664942  1
  Si  Si495  1  0.172208  0.001873  0.697477  1
  Si  Si496  1  0.173921  0.497761  0.665544  1
  Si  Si497  1  -0.000000  0.785896  0.658437  1
  Si  Si498  1  -0.000000  0.500223  0.691433  1
  Si  Si499  1  0.663897  0.312628  0.725002  1
  Si  Si500  1  0.837327  0.812614  0.725675  1
  Si  Si501  1  0.834714  0.187014  0.724753  1
  Si  Si502  1  0.665961  0.688100  0.724214  1
  Si  Si503  1  0.825419  0.998512  0.698113  1
  Si  Si504  1  0.827079  0.501320  0.664979  1
  Si  Si505  1  0.674185  0.499211  0.697730  1
  Si  Si506  1  0.672499  0.000000  0.665398  1
  Si  Si507  1  0.998214  0.000000  0.671632  1
  Si  Si508  1  0.500442  0.500205  0.671670  1
  Si  Si509  1  -0.000000  0.214405  0.658184  1
  Si  Si510  1  0.000000  0.285865  0.704670  1
  Si  Si511  1  0.500249  0.714243  0.658202  1
  Si  Si512  1  0.500105  0.785966  0.704609  1
  H  H513  1  0.144393  0.842889  0.079518  1
  H  H514  1  0.359037  0.341717  0.080942  1
  H  H515  1  0.355924  0.658022  0.079211  1
  H  H516  1  0.143520  0.158055  0.078903  1
  H  H517  1  0.646206  0.347588  0.079719  1
  H  H518  1  0.857623  0.844104  0.080624  1
  H  H519  1  0.861480  0.160594  0.079666  1
  H  H520  1  0.638295  0.661213  0.079011  1
  H  H521  1  0.139066  0.839910  0.761877  1
  H  H522  1  0.358667  0.338417  0.763291  1
  H  H523  1  0.352873  0.652518  0.761782  1
  H  H524  1  0.144913  0.155506  0.761488  1
  H  H525  1  0.640788  0.341608  0.762308  1
  H  H526  1  0.856462  0.842344  0.763172  1
  H  H527  1  0.857517  0.156968  0.762012  1
  H  H528  1  0.639862  0.659641  0.761356  1
