# generated using pymatgen
data_Si28H2O57
_symmetry_space_group_name_H-M   'P 1'
_cell_length_a   13.67170804
_cell_length_b   13.69327883
_cell_length_c   66.03355596
_cell_angle_alpha   90.00000000
_cell_angle_beta   90.00000000
_cell_angle_gamma   90.00000000
_symmetry_Int_Tables_number   1
_chemical_formula_structural   Si28H2O57
_chemical_formula_sum   'Si112 H8 O228'
_cell_volume   12362.1757064
_cell_formula_units_Z   4
loop_
 _symmetry_equiv_pos_site_id
 _symmetry_equiv_pos_as_xyz
  1  'x, y, z'
loop_
 _atom_site_type_symbol
 _atom_site_label
 _atom_site_symmetry_multiplicity
 _atom_site_fract_x
 _atom_site_fract_y
 _atom_site_fract_z
 _atom_site_occupancy
  O  O1  1  0.411243  0.001173  0.089463  1
  O  O2  1  0.000000  0.588650  0.089419  1
  O  O3  1  0.000000  0.411544  0.089349  1
  O  O4  1  -0.000000  0.499365  0.261237  1
  O  O5  1  0.499882  -0.000000  0.121064  1
  O  O6  1  0.369159  0.499967  0.191143  1
  O  O7  1  0.339904  0.660902  0.209555  1
  O  O8  1  0.340146  0.339157  0.209712  1
  O  O9  1  0.339783  0.339571  0.172550  1
  O  O10  1  0.338981  0.659525  0.172258  1
  O  O11  1  0.336000  0.091220  0.121284  1
  O  O12  1  0.088378  0.664127  0.121757  1
  O  O13  1  0.090436  0.336621  0.121286  1
  O  O14  1  0.335764  0.910907  0.121225  1
  O  O15  1  0.090968  0.663312  0.261079  1
  O  O16  1  0.336393  0.090004  0.261018  1
  O  O17  1  0.336025  0.909787  0.261076  1
  O  O18  1  0.089930  0.335442  0.261002  1
  O  O19  1  0.231453  -0.000000  0.143869  1
  O  O20  1  0.000000  0.768503  0.144230  1
  O  O21  1  0.000000  0.768305  0.238576  1
  O  O22  1  0.231548  -0.000000  0.238490  1
  O  O23  1  0.294545  0.830253  0.226032  1
  O  O24  1  0.170678  0.294573  0.226058  1
  O  O25  1  0.170572  0.705103  0.226167  1
  O  O26  1  0.294807  0.169675  0.226033  1
  O  O27  1  0.169668  0.294959  0.156266  1
  O  O28  1  0.293504  0.829613  0.156094  1
  O  O29  1  0.294369  0.170613  0.156185  1
  O  O30  1  0.168739  0.702264  0.156627  1
  O  O31  1  0.166240  0.167403  0.130900  1
  O  O32  1  0.167211  0.833161  0.131228  1
  O  O33  1  0.167286  0.832774  0.251512  1
  O  O34  1  0.166949  0.166606  0.251370  1
  O  O35  1  0.232307  0.766197  0.191105  1
  O  O36  1  0.232956  0.232927  0.191125  1
  O  O37  1  -0.000000  0.499828  0.120902  1
  O  O38  1  0.499842  0.630753  0.190802  1
  O  O39  1  0.499998  0.998993  0.261402  1
  O  O40  1  0.001684  0.500361  0.353836  1
  O  O41  1  0.130779  -0.000000  0.424081  1
  O  O42  1  0.160842  0.840094  0.405507  1
  O  O43  1  0.162497  0.162664  0.406028  1
  O  O44  1  0.409277  0.835650  0.354286  1
  O  O45  1  0.164234  0.409188  0.354572  1
  O  O46  1  0.165337  0.590332  0.354422  1
  O  O47  1  0.408409  0.163096  0.354216  1
  O  O48  1  0.089348  0.499236  0.322667  1
  O  O49  1  0.000000  0.588130  0.292841  1
  O  O50  1  0.411172  -0.000000  0.293053  1
  O  O51  1  0.499678  0.908827  0.322408  1
  O  O52  1  0.268578  0.500362  0.377167  1
  O  O53  1  0.498162  -0.000000  0.353494  1
  O  O54  1  0.206189  0.670623  0.389428  1
  O  O55  1  0.332056  0.202931  0.389412  1
  O  O56  1  0.330932  0.794855  0.389367  1
  O  O57  1  0.204408  0.331532  0.389611  1
  O  O58  1  0.334318  0.666860  0.364139  1
  O  O59  1  0.332708  0.331648  0.364510  1
  O  O60  1  0.269876  0.268142  0.423987  1
  O  O61  1  0.499827  0.090732  0.322358  1
  O  O62  1  0.588600  -0.000000  0.089506  1
  O  O63  1  0.000000  0.232835  0.238255  1
  O  O64  1  0.631254  0.499389  0.191079  1
  O  O65  1  0.661205  0.661888  0.209357  1
  O  O66  1  0.661451  0.340387  0.209899  1
  O  O67  1  0.661042  0.339315  0.172485  1
  O  O68  1  0.661364  0.660122  0.172590  1
  O  O69  1  0.911755  0.335760  0.121610  1
  O  O70  1  0.663683  0.908553  0.121341  1
  O  O71  1  0.664022  0.088905  0.121355  1
  O  O72  1  0.909696  0.662720  0.121442  1
  O  O73  1  0.662917  0.907713  0.261030  1
  O  O74  1  0.908619  0.336810  0.260895  1
  O  O75  1  0.910434  0.662943  0.260949  1
  O  O76  1  0.663775  0.088452  0.261065  1
  O  O77  1  -0.000000  0.231677  0.144193  1
  O  O78  1  0.768981  0.998587  0.143819  1
  O  O79  1  0.767169  0.998936  0.238331  1
  O  O80  1  0.830186  0.706824  0.226088  1
  O  O81  1  0.706820  0.171122  0.226176  1
  O  O82  1  0.701649  0.830945  0.225839  1
  O  O83  1  0.831497  0.299690  0.225870  1
  O  O84  1  0.707174  0.169447  0.156284  1
  O  O85  1  0.831028  0.705549  0.156549  1
  O  O86  1  0.831026  0.297723  0.156494  1
  O  O87  1  0.705855  0.829458  0.156310  1
  O  O88  1  0.832618  0.166751  0.131179  1
  O  O89  1  0.833416  0.831815  0.130900  1
  O  O90  1  0.832200  0.831620  0.251243  1
  O  O91  1  0.832365  0.167560  0.251101  1
  O  O92  1  0.767505  0.769333  0.191431  1
  O  O93  1  0.769385  0.235123  0.191255  1
  O  O94  1  0.500959  0.368455  0.191169  1
  O  O95  1  0.501218  0.268277  0.377234  1
  O  O96  1  0.731266  0.267426  0.424191  1
  O  O97  1  -0.000000  0.869239  0.423948  1
  O  O98  1  0.839011  0.840191  0.405557  1
  O  O99  1  0.838998  0.161521  0.406178  1
  O  O100  1  0.836548  0.588617  0.354452  1
  O  O101  1  0.588203  0.164606  0.354642  1
  O  O102  1  0.588617  0.835425  0.354863  1
  O  O103  1  0.836717  0.411582  0.354499  1
  O  O104  1  0.910177  0.499740  0.322278  1
  O  O105  1  0.588702  0.998784  0.293034  1
  O  O106  1  0.729492  0.499984  0.376944  1
  O  O107  1  0.501350  0.730812  0.377300  1
  O  O108  1  0.669380  0.796732  0.389917  1
  O  O109  1  0.792719  0.330315  0.389298  1
  O  O110  1  0.792431  0.670536  0.389309  1
  O  O111  1  0.670225  0.204071  0.389574  1
  O  O112  1  0.666846  0.666073  0.363861  1
  O  O113  1  0.666941  0.334225  0.363686  1
  O  O114  1  -0.000000  0.410643  0.292776  1
  O  O115  1  -0.000000  0.130914  0.424509  1
  O  O116  1  0.161540  0.160073  0.442923  1
  O  O117  1  0.161456  0.838767  0.442296  1
  O  O118  1  0.162179  0.408541  0.494281  1
  O  O119  1  0.410890  0.836190  0.493704  1
  O  O120  1  0.411620  0.163642  0.493570  1
  O  O121  1  0.163775  0.587375  0.493913  1
  O  O122  1  0.411243  0.001173  0.555623  1
  O  O123  1  -0.000000  0.588650  0.555579  1
  O  O124  1  0.090989  0.499480  0.526246  1
  O  O125  1  0.269201  0.500186  0.471620  1
  O  O126  1  0.498224  0.730339  0.471371  1
  O  O127  1  0.331145  0.202886  0.458674  1
  O  O128  1  0.207506  0.670155  0.459133  1
  O  O129  1  0.206256  0.330076  0.459165  1
  O  O130  1  0.330304  0.796207  0.458848  1
  O  O131  1  0.331353  0.332561  0.484281  1
  O  O132  1  0.332981  0.666153  0.484810  1
  O  O133  1  0.499294  0.911717  0.525950  1
  O  O134  1  0.498660  0.268701  0.471142  1
  O  O135  1  0.000000  0.411544  0.555508  1
  O  O136  1  0.269121  0.732763  0.424289  1
  O  O137  1  0.000000  0.499365  0.727397  1
  O  O138  1  0.499882  -0.000000  0.587224  1
  O  O139  1  0.369159  0.499967  0.657303  1
  O  O140  1  0.339904  0.660902  0.675715  1
  O  O141  1  0.340146  0.339157  0.675872  1
  O  O142  1  0.339783  0.339571  0.638710  1
  O  O143  1  0.338981  0.659525  0.638418  1
  O  O144  1  0.336000  0.091220  0.587444  1
  O  O145  1  0.088378  0.664127  0.587917  1
  O  O146  1  0.090436  0.336621  0.587446  1
  O  O147  1  0.335764  0.910907  0.587385  1
  O  O148  1  0.090968  0.663312  0.727239  1
  O  O149  1  0.336393  0.090004  0.727178  1
  O  O150  1  0.336025  0.909787  0.727236  1
  O  O151  1  0.089930  0.335442  0.727162  1
  O  O152  1  0.231453  -0.000000  0.610029  1
  O  O153  1  0.000000  0.768503  0.610390  1
  O  O154  1  -0.000000  0.768305  0.704736  1
  O  O155  1  0.231548  -0.000000  0.704650  1
  O  O156  1  0.294545  0.830253  0.692192  1
  O  O157  1  0.170678  0.294573  0.692218  1
  O  O158  1  0.170572  0.705103  0.692327  1
  O  O159  1  0.294807  0.169675  0.692193  1
  O  O160  1  0.169668  0.294959  0.622426  1
  O  O161  1  0.293504  0.829613  0.622254  1
  O  O162  1  0.294369  0.170613  0.622345  1
  O  O163  1  0.168739  0.702264  0.622787  1
  O  O164  1  0.166240  0.167403  0.597060  1
  O  O165  1  0.167211  0.833161  0.597388  1
  O  O166  1  0.167286  0.832774  0.717671  1
  O  O167  1  0.166949  0.166606  0.717530  1
  O  O168  1  0.232307  0.766197  0.657265  1
  O  O169  1  0.232956  0.232927  0.657285  1
  O  O170  1  -0.000000  0.499828  0.587062  1
  O  O171  1  0.499842  0.630753  0.656962  1
  O  O172  1  0.499998  0.998993  0.727562  1
  O  O173  1  0.000000  0.588130  0.759001  1
  O  O174  1  0.411172  -0.000000  0.759213  1
  O  O175  1  0.998352  0.498661  0.494651  1
  O  O176  1  0.839444  0.159897  0.442969  1
  O  O177  1  0.838642  0.837435  0.442485  1
  O  O178  1  0.590334  0.163833  0.494041  1
  O  O179  1  0.835792  0.590858  0.493941  1
  O  O180  1  0.834050  0.409768  0.494061  1
  O  O181  1  0.589549  0.836131  0.494202  1
  O  O182  1  0.588600  0.000000  0.555666  1
  O  O183  1  0.500575  0.088797  0.525880  1
  O  O184  1  0.911311  0.500276  0.525767  1
  O  O185  1  0.731427  0.499946  0.471279  1
  O  O186  1  0.793742  0.329392  0.459058  1
  O  O187  1  0.669315  0.793103  0.459319  1
  O  O188  1  0.669195  0.204997  0.459055  1
  O  O189  1  0.797075  0.668295  0.458903  1
  O  O190  1  0.665245  0.333192  0.484280  1
  O  O191  1  0.666558  0.667203  0.484274  1
  O  O192  1  0.869545  0.000000  0.424375  1
  O  O193  1  0.731827  0.731552  0.424562  1
  O  O194  1  0.501540  -0.000000  0.494430  1
  O  O195  1  -0.000000  0.232835  0.704415  1
  O  O196  1  0.631254  0.499389  0.657239  1
  O  O197  1  0.661205  0.661888  0.675517  1
  O  O198  1  0.661451  0.340387  0.676059  1
  O  O199  1  0.661042  0.339315  0.638645  1
  O  O200  1  0.661364  0.660122  0.638750  1
  O  O201  1  0.911755  0.335760  0.587770  1
  O  O202  1  0.663683  0.908553  0.587501  1
  O  O203  1  0.664022  0.088905  0.587515  1
  O  O204  1  0.909696  0.662720  0.587602  1
  O  O205  1  0.662917  0.907713  0.727190  1
  O  O206  1  0.908619  0.336810  0.727055  1
  O  O207  1  0.910434  0.662943  0.727109  1
  O  O208  1  0.663775  0.088452  0.727225  1
  O  O209  1  0.000000  0.231677  0.610353  1
  O  O210  1  0.768981  0.998587  0.609979  1
  O  O211  1  0.767169  0.998936  0.704491  1
  O  O212  1  0.830186  0.706824  0.692248  1
  O  O213  1  0.706820  0.171122  0.692336  1
  O  O214  1  0.701649  0.830945  0.691999  1
  O  O215  1  0.831497  0.299690  0.692029  1
  O  O216  1  0.707174  0.169447  0.622444  1
  O  O217  1  0.831028  0.705549  0.622709  1
  O  O218  1  0.831026  0.297723  0.622654  1
  O  O219  1  0.705855  0.829458  0.622470  1
  O  O220  1  0.832618  0.166751  0.597339  1
  O  O221  1  0.833416  0.831815  0.597060  1
  O  O222  1  0.832200  0.831620  0.717403  1
  O  O223  1  0.832365  0.167560  0.717261  1
  O  O224  1  0.767505  0.769333  0.657591  1
  O  O225  1  0.769385  0.235123  0.657415  1
  O  O226  1  0.500959  0.368455  0.657328  1
  O  O227  1  0.588702  0.998784  0.759194  1
  O  O228  1  -0.000000  0.410643  0.758935  1
  Si  Si229  1  0.391138  0.001118  0.112925  1
  Si  Si230  1  0.001369  0.392508  0.112723  1
  Si  Si231  1  0.389104  0.388336  0.191135  1
  Si  Si232  1  0.388036  0.611735  0.190881  1
  Si  Si233  1  0.258107  0.107885  0.137788  1
  Si  Si234  1  0.108932  0.741763  0.138621  1
  Si  Si235  1  0.106315  0.258846  0.137904  1
  Si  Si236  1  0.258352  0.894117  0.137816  1
  Si  Si237  1  0.107840  0.741118  0.244588  1
  Si  Si238  1  0.258645  0.106963  0.244461  1
  Si  Si239  1  0.258489  0.892853  0.244480  1
  Si  Si240  1  0.107599  0.258283  0.244397  1
  Si  Si241  1  0.261010  0.739207  0.213429  1
  Si  Si242  1  0.261325  0.260574  0.213355  1
  Si  Si243  1  0.260698  0.261240  0.168897  1
  Si  Si244  1  0.259188  0.737450  0.168625  1
  Si  Si245  1  0.394104  0.758454  0.371014  1
  Si  Si246  1  0.240713  0.392361  0.371423  1
  Si  Si247  1  0.242395  0.607741  0.371059  1
  Si  Si248  1  0.393202  0.239168  0.371231  1
  Si  Si249  1  0.499929  -0.000000  0.308478  1
  Si  Si250  1  0.110758  0.499824  0.346108  1
  Si  Si251  1  0.497777  0.108279  0.345446  1
  Si  Si252  1  0.391319  -0.000000  0.269479  1
  Si  Si253  1  0.110745  0.889557  0.423847  1
  Si  Si254  1  0.240073  0.761370  0.402121  1
  Si  Si255  1  0.242951  0.241851  0.401286  1
  Si  Si256  1  -0.000000  0.607929  0.269355  1
  Si  Si257  1  0.498255  0.891465  0.345510  1
  Si  Si258  1  0.998953  0.607309  0.112817  1
  Si  Si259  1  0.608727  0.998803  0.112982  1
  Si  Si260  1  0.612899  0.387601  0.191165  1
  Si  Si261  1  0.611042  0.610457  0.190897  1
  Si  Si262  1  0.891052  0.258255  0.138495  1
  Si  Si263  1  0.741775  0.891667  0.137800  1
  Si  Si264  1  0.741806  0.105500  0.137882  1
  Si  Si265  1  0.893710  0.740782  0.138008  1
  Si  Si266  1  0.739313  0.890645  0.244125  1
  Si  Si267  1  0.891173  0.260595  0.244007  1
  Si  Si268  1  0.893786  0.740836  0.244466  1
  Si  Si269  1  0.741090  0.106294  0.244451  1
  Si  Si270  1  0.739332  0.742506  0.213759  1
  Si  Si271  1  0.741853  0.263429  0.213807  1
  Si  Si272  1  0.741286  0.262009  0.168675  1
  Si  Si273  1  0.740046  0.739510  0.169219  1
  Si  Si274  1  -0.000000  0.390608  0.269258  1
  Si  Si275  1  0.758830  0.240002  0.401898  1
  Si  Si276  1  0.759158  0.761891  0.402158  1
  Si  Si277  1  0.756649  0.607219  0.370938  1
  Si  Si278  1  0.610674  0.243594  0.371425  1
  Si  Si279  1  0.610718  0.756548  0.371745  1
  Si  Si280  1  0.756650  0.392704  0.370952  1
  Si  Si281  1  0.894496  0.500118  0.345419  1
  Si  Si282  1  0.608690  0.998013  0.269452  1
  Si  Si283  1  0.888541  0.888559  0.423988  1
  Si  Si284  1  0.000000  0.499340  0.307884  1
  Si  Si285  1  0.111772  0.111476  0.424509  1
  Si  Si286  1  0.391138  0.001118  0.579084  1
  Si  Si287  1  0.240147  0.393754  0.477706  1
  Si  Si288  1  0.389257  0.756648  0.477044  1
  Si  Si289  1  0.390612  0.241748  0.476812  1
  Si  Si290  1  0.243553  0.607842  0.477447  1
  Si  Si291  1  0.001369  0.392508  0.578883  1
  Si  Si292  1  0.241723  0.760386  0.446579  1
  Si  Si293  1  0.001512  0.500192  0.540466  1
  Si  Si294  1  0.241334  0.238616  0.446457  1
  Si  Si295  1  0.106537  0.497619  0.503059  1
  Si  Si296  1  0.499965  -0.000000  0.540738  1
  Si  Si297  1  0.389104  0.388336  0.657295  1
  Si  Si298  1  0.388036  0.611735  0.657041  1
  Si  Si299  1  0.258107  0.107885  0.603948  1
  Si  Si300  1  0.108932  0.741763  0.604781  1
  Si  Si301  1  0.106315  0.258846  0.604064  1
  Si  Si302  1  0.258352  0.894117  0.603976  1
  Si  Si303  1  0.107840  0.741118  0.710748  1
  Si  Si304  1  0.258645  0.106963  0.710621  1
  Si  Si305  1  0.258489  0.892853  0.710640  1
  Si  Si306  1  0.107599  0.258283  0.710557  1
  Si  Si307  1  0.261010  0.739207  0.679589  1
  Si  Si308  1  0.261325  0.260574  0.679515  1
  Si  Si309  1  0.260698  0.261240  0.635057  1
  Si  Si310  1  0.259188  0.737450  0.634785  1
  Si  Si311  1  0.391319  -0.000000  0.735639  1
  Si  Si312  1  -0.000000  0.607929  0.735515  1
  Si  Si313  1  0.998953  0.607309  0.578977  1
  Si  Si314  1  0.889597  0.110546  0.424622  1
  Si  Si315  1  0.605804  0.241407  0.477379  1
  Si  Si316  1  0.759170  0.608136  0.477103  1
  Si  Si317  1  0.757116  0.392358  0.477374  1
  Si  Si318  1  0.605288  0.758362  0.477583  1
  Si  Si319  1  0.608727  0.998803  0.579142  1
  Si  Si320  1  0.501482  0.107501  0.502541  1
  Si  Si321  1  0.889042  0.500082  0.502376  1
  Si  Si322  1  0.760161  0.238566  0.446358  1
  Si  Si323  1  0.760055  0.757525  0.446992  1
  Si  Si324  1  0.500673  0.892850  0.502640  1
  Si  Si325  1  0.612899  0.387601  0.657325  1
  Si  Si326  1  0.611042  0.610457  0.657057  1
  Si  Si327  1  0.891052  0.258255  0.604655  1
  Si  Si328  1  0.741775  0.891667  0.603960  1
  Si  Si329  1  0.741806  0.105500  0.604042  1
  Si  Si330  1  0.893710  0.740782  0.604168  1
  Si  Si331  1  0.739313  0.890645  0.710285  1
  Si  Si332  1  0.891173  0.260595  0.710167  1
  Si  Si333  1  0.893786  0.740836  0.710626  1
  Si  Si334  1  0.741090  0.106294  0.710611  1
  Si  Si335  1  0.739332  0.742506  0.679919  1
  Si  Si336  1  0.741853  0.263429  0.679967  1
  Si  Si337  1  0.741286  0.262009  0.634835  1
  Si  Si338  1  0.740046  0.739510  0.635379  1
  Si  Si339  1  -0.000000  0.390608  0.735418  1
  Si  Si340  1  0.608690  0.998013  0.735612  1
  H  H341  1  0.411243  0.001173  0.075834  1
  H  H342  1  -0.000000  0.588650  0.075790  1
  H  H343  1  -0.000000  0.411544  0.075719  1
  H  H344  1  0.588600  -0.000000  0.075876  1
  H  H345  1  0.000000  0.588130  0.772631  1
  H  H346  1  0.411172  -0.000000  0.772843  1
  H  H347  1  0.588702  0.998784  0.772824  1
  H  H348  1  -0.000000  0.410643  0.772565  1
