# generated using pymatgen
data_Si18H2O37
_symmetry_space_group_name_H-M   'P 1'
_cell_length_a   7.64718820
_cell_length_b   22.22500582
_cell_length_c   89.75842561
_cell_angle_alpha   30.02314985
_cell_angle_beta   90.00000000
_cell_angle_gamma   90.00000000
_symmetry_Int_Tables_number   1
_chemical_formula_structural   Si18H2O37
_chemical_formula_sum   'Si72 H8 O148'
_cell_volume   7632.95458856
_cell_formula_units_Z   4
loop_
 _symmetry_equiv_pos_site_id
 _symmetry_equiv_pos_as_xyz
  1  'x, y, z'
loop_
 _atom_site_type_symbol
 _atom_site_label
 _atom_site_symmetry_multiplicity
 _atom_site_fract_x
 _atom_site_fract_y
 _atom_site_fract_z
 _atom_site_occupancy
  Si  Si1  1  0.501319  0.325256  0.178668  1
  Si  Si2  1  0.201733  0.232546  0.218304  1
  Si  Si3  1  0.801054  0.232735  0.218259  1
  Si  Si4  1  0.501525  0.085118  0.212981  1
  Si  Si5  1  0.501347  0.325097  0.252606  1
  Si  Si6  1  0.801084  0.232574  0.252675  1
  Si  Si7  1  0.201695  0.232495  0.252691  1
  Si  Si8  1  0.801170  0.993099  0.252502  1
  Si  Si9  1  0.201844  0.992973  0.252525  1
  Si  Si10  1  0.501319  0.325256  0.321526  1
  Si  Si11  1  0.201733  0.232546  0.361161  1
  Si  Si12  1  0.801054  0.232735  0.361116  1
  Si  Si13  1  0.501525  0.085118  0.355838  1
  Si  Si14  1  0.501388  0.084988  0.321209  1
  Si  Si15  1  0.501347  0.325097  0.395464  1
  Si  Si16  1  0.801084  0.232574  0.395533  1
  Si  Si17  1  0.201695  0.232495  0.395548  1
  Si  Si18  1  0.801170  0.993099  0.395360  1
  Si  Si19  1  0.201844  0.992973  0.395383  1
  Si  Si20  1  0.801440  0.752283  0.355509  1
  Si  Si21  1  0.202086  0.752265  0.355518  1
  Si  Si22  1  0.201816  0.992873  0.321139  1
  Si  Si23  1  0.501767  0.567701  0.360775  1
  Si  Si24  1  0.801097  0.992869  0.321144  1
  Si  Si25  1  0.501722  0.567660  0.395086  1
  Si  Si26  1  0.801345  0.752439  0.321247  1
  Si  Si27  1  0.202008  0.752300  0.321277  1
  O  O28  1  0.781524  0.098000  0.241771  1
  O  O29  1  0.221580  0.097819  0.241819  1
  O  O30  1  0.759253  0.238145  0.234292  1
  O  O31  1  0.243468  0.238091  0.234305  1
  O  O32  1  0.668715  0.023357  0.233098  1
  O  O33  1  0.334258  0.023374  0.233086  1
  O  O34  1  0.668669  0.308064  0.192397  1
  O  O35  1  0.334253  0.307860  0.192465  1
  O  O36  1  0.001428  0.264903  0.209133  1
  O  O37  1  0.501450  0.219803  0.189560  1
  O  O38  1  0.668499  0.307784  0.246272  1
  O  O39  1  0.334105  0.307774  0.246273  1
  O  O40  1  0.001394  0.264860  0.247984  1
  O  O41  1  0.501434  0.077904  0.197199  1
  O  O42  1  0.500929  0.450116  0.144009  1
  O  O43  1  0.502187  0.450013  0.233702  1
  O  O44  1  0.001457  0.992659  0.248030  1
  O  O45  1  0.781524  0.098000  0.384628  1
  O  O46  1  0.221580  0.097819  0.384676  1
  O  O47  1  0.759253  0.238145  0.377149  1
  O  O48  1  0.243468  0.238091  0.377162  1
  O  O49  1  0.668715  0.023357  0.375955  1
  O  O50  1  0.334258  0.023374  0.375943  1
  O  O51  1  0.668669  0.308064  0.335254  1
  O  O52  1  0.334253  0.307860  0.335323  1
  O  O53  1  0.001428  0.264903  0.351990  1
  O  O54  1  0.501450  0.219803  0.332417  1
  O  O55  1  0.781623  0.097832  0.286887  1
  O  O56  1  0.221786  0.097714  0.286912  1
  O  O57  1  0.668499  0.307784  0.389129  1
  O  O58  1  0.334105  0.307774  0.389130  1
  O  O59  1  0.668650  0.023266  0.327554  1
  O  O60  1  0.334130  0.023262  0.327557  1
  O  O61  1  0.001394  0.264860  0.390841  1
  O  O62  1  0.501438  0.219714  0.286905  1
  O  O63  1  0.501434  0.077904  0.340056  1
  O  O64  1  0.500929  0.450116  0.286866  1
  O  O65  1  0.502187  0.450013  0.376559  1
  O  O66  1  0.759545  0.870003  0.286876  1
  O  O67  1  0.243693  0.869870  0.286899  1
  O  O68  1  0.001457  0.992659  0.390887  1
  O  O69  1  0.781518  0.782386  0.331946  1
  O  O70  1  0.221653  0.782245  0.331979  1
  O  O71  1  0.759516  0.869724  0.339540  1
  O  O72  1  0.243610  0.869756  0.339537  1
  O  O73  1  0.669006  0.646608  0.381344  1
  O  O74  1  0.334532  0.646601  0.381348  1
  O  O75  1  0.668887  0.646851  0.340666  1
  O  O76  1  0.334459  0.646673  0.340696  1
  O  O77  1  0.001801  0.720506  0.364636  1
  O  O78  1  0.001571  0.992653  0.325749  1
  O  O79  1  0.501705  0.538261  0.384234  1
  O  O80  1  0.001661  0.720611  0.325737  1
  H  H81  1  0.501434  0.077904  0.187172  1
  H  H82  1  0.500929  0.450116  0.133982  1
  H  H83  1  0.502187  0.450013  0.223675  1
  H  H84  1  0.500929  0.450116  0.276839  1
  O  O85  1  0.781524  0.098000  0.527486  1
  O  O86  1  0.221580  0.097819  0.527533  1
  O  O87  1  0.759253  0.238145  0.520006  1
  O  O88  1  0.243468  0.238091  0.520019  1
  O  O89  1  0.668715  0.023357  0.518812  1
  O  O90  1  0.334258  0.023374  0.518800  1
  O  O91  1  0.668669  0.308064  0.478111  1
  O  O92  1  0.334253  0.307860  0.478180  1
  Si  Si93  1  0.501319  0.325256  0.464383  1
  O  O94  1  0.001428  0.264903  0.494848  1
  O  O95  1  0.501450  0.219803  0.475274  1
  Si  Si96  1  0.201733  0.232546  0.504018  1
  Si  Si97  1  0.801054  0.232735  0.503973  1
  Si  Si98  1  0.501525  0.085118  0.498695  1
  O  O99  1  0.781623  0.097832  0.429744  1
  O  O100  1  0.221786  0.097714  0.429769  1
  O  O101  1  0.668499  0.307784  0.531986  1
  O  O102  1  0.334105  0.307774  0.531988  1
  O  O103  1  0.668650  0.023266  0.470411  1
  O  O104  1  0.334130  0.023262  0.470414  1
  O  O105  1  0.001394  0.264860  0.533698  1
  O  O106  1  0.501438  0.219714  0.429763  1
  O  O107  1  0.501434  0.077904  0.482913  1
  O  O108  1  0.500929  0.450116  0.429723  1
  O  O109  1  0.502187  0.450013  0.519416  1
  Si  Si110  1  0.501388  0.084988  0.464066  1
  Si  Si111  1  0.501347  0.325097  0.538321  1
  Si  Si112  1  0.801084  0.232574  0.538390  1
  Si  Si113  1  0.201695  0.232495  0.538405  1
  O  O114  1  0.759545  0.870003  0.429734  1
  O  O115  1  0.243693  0.869870  0.429757  1
  O  O116  1  0.001457  0.992659  0.533744  1
  Si  Si117  1  0.801170  0.993099  0.538217  1
  Si  Si118  1  0.201844  0.992973  0.538240  1
  O  O119  1  0.781518  0.782386  0.474803  1
  O  O120  1  0.221653  0.782245  0.474836  1
  O  O121  1  0.759516  0.869724  0.482397  1
  O  O122  1  0.243610  0.869756  0.482394  1
  O  O123  1  0.669006  0.646608  0.524201  1
  O  O124  1  0.334532  0.646601  0.524206  1
  O  O125  1  0.668887  0.646851  0.483523  1
  O  O126  1  0.334459  0.646673  0.483553  1
  O  O127  1  0.001801  0.720506  0.507493  1
  O  O128  1  0.001571  0.992653  0.468606  1
  O  O129  1  0.501705  0.538261  0.527091  1
  Si  Si130  1  0.801440  0.752283  0.498366  1
  Si  Si131  1  0.202086  0.752265  0.498375  1
  Si  Si132  1  0.201816  0.992873  0.463996  1
  Si  Si133  1  0.501767  0.567701  0.503632  1
  Si  Si134  1  0.801097  0.992869  0.464001  1
  Si  Si135  1  0.501722  0.567660  0.537944  1
  Si  Si136  1  0.801345  0.752439  0.464104  1
  Si  Si137  1  0.202008  0.752300  0.464135  1
  O  O138  1  0.001661  0.720611  0.468594  1
  Si  Si139  1  0.501319  0.325256  0.607240  1
  Si  Si140  1  0.201733  0.232546  0.646875  1
  Si  Si141  1  0.801054  0.232735  0.646830  1
  Si  Si142  1  0.501525  0.085118  0.641552  1
  Si  Si143  1  0.501388  0.084988  0.606923  1
  Si  Si144  1  0.501347  0.325097  0.681178  1
  Si  Si145  1  0.801084  0.232574  0.681247  1
  Si  Si146  1  0.201695  0.232495  0.681262  1
  Si  Si147  1  0.801170  0.993099  0.681074  1
  Si  Si148  1  0.201844  0.992973  0.681097  1
  Si  Si149  1  0.801440  0.752283  0.641223  1
  Si  Si150  1  0.202086  0.752265  0.641232  1
  Si  Si151  1  0.201816  0.992873  0.606853  1
  Si  Si152  1  0.501767  0.567701  0.646489  1
  Si  Si153  1  0.801097  0.992869  0.606858  1
  Si  Si154  1  0.501722  0.567660  0.680801  1
  Si  Si155  1  0.801345  0.752439  0.606961  1
  Si  Si156  1  0.202008  0.752300  0.606992  1
  Si  Si157  1  0.501388  0.084988  0.749780  1
  Si  Si158  1  0.801440  0.752283  0.784080  1
  Si  Si159  1  0.202086  0.752265  0.784090  1
  Si  Si160  1  0.201816  0.992873  0.749710  1
  Si  Si161  1  0.501767  0.567701  0.789346  1
  Si  Si162  1  0.801097  0.992869  0.749715  1
  Si  Si163  1  0.501722  0.567660  0.823658  1
  Si  Si164  1  0.801345  0.752439  0.749818  1
  Si  Si165  1  0.202008  0.752300  0.749849  1
  O  O166  1  0.781524  0.098000  0.670343  1
  O  O167  1  0.221580  0.097819  0.670390  1
  O  O168  1  0.759253  0.238145  0.662863  1
  O  O169  1  0.243468  0.238091  0.662876  1
  O  O170  1  0.668715  0.023357  0.661669  1
  O  O171  1  0.334258  0.023374  0.661657  1
  O  O172  1  0.668669  0.308064  0.620968  1
  O  O173  1  0.334253  0.307860  0.621037  1
  O  O174  1  0.001428  0.264903  0.637705  1
  O  O175  1  0.501450  0.219803  0.618131  1
  O  O176  1  0.781623  0.097832  0.572601  1
  O  O177  1  0.221786  0.097714  0.572626  1
  O  O178  1  0.668499  0.307784  0.674843  1
  O  O179  1  0.334105  0.307774  0.674845  1
  O  O180  1  0.668650  0.023266  0.613268  1
  O  O181  1  0.334130  0.023262  0.613271  1
  O  O182  1  0.001394  0.264860  0.676555  1
  O  O183  1  0.501438  0.219714  0.572620  1
  O  O184  1  0.501434  0.077904  0.625770  1
  O  O185  1  0.500929  0.450116  0.572580  1
  O  O186  1  0.502187  0.450013  0.662273  1
  O  O187  1  0.759545  0.870003  0.572591  1
  O  O188  1  0.243693  0.869870  0.572614  1
  O  O189  1  0.001457  0.992659  0.676602  1
  O  O190  1  0.781518  0.782386  0.617660  1
  O  O191  1  0.221653  0.782245  0.617693  1
  O  O192  1  0.759516  0.869724  0.625254  1
  O  O193  1  0.243610  0.869756  0.625251  1
  O  O194  1  0.669006  0.646608  0.667058  1
  O  O195  1  0.334532  0.646601  0.667063  1
  O  O196  1  0.668887  0.646851  0.626380  1
  O  O197  1  0.334459  0.646673  0.626410  1
  O  O198  1  0.001801  0.720506  0.650350  1
  O  O199  1  0.001571  0.992653  0.611463  1
  O  O200  1  0.501705  0.538261  0.669948  1
  O  O201  1  0.001661  0.720611  0.611451  1
  O  O202  1  0.781623  0.097832  0.715458  1
  O  O203  1  0.221786  0.097714  0.715483  1
  O  O204  1  0.668650  0.023266  0.756125  1
  O  O205  1  0.334130  0.023262  0.756128  1
  O  O206  1  0.501438  0.219714  0.715477  1
  O  O207  1  0.501434  0.077904  0.768628  1
  O  O208  1  0.500929  0.450116  0.715437  1
  O  O209  1  0.502187  0.450013  0.805131  1
  O  O210  1  0.759545  0.870003  0.715448  1
  O  O211  1  0.243693  0.869870  0.715471  1
  O  O212  1  0.781518  0.782386  0.760517  1
  O  O213  1  0.221653  0.782245  0.760550  1
  O  O214  1  0.759516  0.869724  0.768111  1
  O  O215  1  0.243610  0.869756  0.768108  1
  O  O216  1  0.669006  0.646608  0.809915  1
  O  O217  1  0.334532  0.646601  0.809920  1
  O  O218  1  0.668887  0.646851  0.769237  1
  O  O219  1  0.334459  0.646673  0.769267  1
  O  O220  1  0.001801  0.720506  0.793207  1
  O  O221  1  0.001571  0.992653  0.754320  1
  O  O222  1  0.501705  0.538261  0.812806  1
  O  O223  1  0.001661  0.720611  0.754309  1
  O  O224  1  0.500929  0.450116  0.858294  1
  H  H225  1  0.501434  0.077904  0.778654  1
  H  H226  1  0.500929  0.450116  0.725464  1
  H  H227  1  0.502187  0.450013  0.815158  1
  H  H228  1  0.500929  0.450116  0.868321  1
