# generated using pymatgen
data_Si18H2O37
_symmetry_space_group_name_H-M   'P 1'
_cell_length_a   13.85795342
_cell_length_b   12.35340462
_cell_length_c   50.17298155
_cell_angle_alpha   109.12820000
_cell_angle_beta   90.00000000
_cell_angle_gamma   90.00000000
_symmetry_Int_Tables_number   1
_chemical_formula_structural   Si18H2O37
_chemical_formula_sum   'Si72 H8 O148'
_cell_volume   8115.02618744
_cell_formula_units_Z   4
loop_
 _symmetry_equiv_pos_site_id
 _symmetry_equiv_pos_as_xyz
  1  'x, y, z'
loop_
 _atom_site_type_symbol
 _atom_site_label
 _atom_site_symmetry_multiplicity
 _atom_site_fract_x
 _atom_site_fract_y
 _atom_site_fract_z
 _atom_site_occupancy
  O  O1  1  0.263631  0.795805  0.225009  1
  O  O2  1  0.259121  0.395384  0.220328  1
  O  O3  1  0.240259  0.002813  0.228197  1
  O  O4  1  0.250482  0.192595  0.220138  1
  O  O5  1  0.407575  0.287244  0.223964  1
  O  O6  1  0.337670  0.213470  0.176548  1
  O  O7  1  0.337473  0.787205  0.131448  1
  O  O8  1  0.334370  0.124549  0.123547  1
  O  O9  1  0.334718  0.875394  0.184423  1
  O  O10  1  0.375538  0.000000  0.154057  1
  O  O11  1  0.406078  0.929686  0.231954  1
  O  O12  1  0.735242  0.795799  0.225422  1
  O  O13  1  0.741164  0.395055  0.220255  1
  O  O14  1  0.758211  0.003264  0.228831  1
  O  O15  1  0.746793  0.192600  0.220593  1
  O  O16  1  0.590569  0.288822  0.223378  1
  O  O17  1  0.663567  0.212849  0.176449  1
  O  O18  1  0.663610  0.787034  0.131528  1
  O  O19  1  0.666363  0.124404  0.123417  1
  O  O20  1  0.666130  0.875622  0.184588  1
  O  O21  1  0.625519  -0.000000  0.153971  1
  O  O22  1  0.500518  0.140862  0.149734  1
  O  O23  1  0.592398  0.928968  0.231807  1
  O  O24  1  0.500543  0.859231  0.158172  1
  O  O25  1  0.163652  0.787264  0.372005  1
  O  O26  1  0.499729  0.445591  0.260734  1
  O  O27  1  0.499630  0.056834  0.273387  1
  O  O28  1  -0.000000  0.760271  0.286866  1
  O  O29  1  0.098445  0.769912  0.246273  1
  O  O30  1  0.400127  0.230742  0.301815  1
  O  O31  1  0.235242  0.204322  0.323036  1
  O  O32  1  0.225029  0.615356  0.240938  1
  O  O33  1  0.272888  0.384266  0.306683  1
  O  O34  1  0.246678  0.813109  0.277175  1
  O  O35  1  0.252091  0.186254  0.270794  1
  O  O36  1  0.097665  0.466778  0.244845  1
  O  O37  1  0.402416  0.532651  0.303693  1
  O  O38  1  0.250270  0.503142  0.274343  1
  O  O39  1  0.241213  0.604993  0.328207  1
  O  O40  1  0.258359  0.997008  0.319743  1
  O  O41  1  0.096433  0.149044  0.242101  1
  O  O42  1  0.401600  0.850462  0.306215  1
  O  O43  1  0.247010  0.807511  0.327909  1
  O  O44  1  0.166025  0.124867  0.363923  1
  O  O45  1  0.092572  0.071014  0.316642  1
  O  O46  1  0.090718  0.711357  0.325051  1
  O  O47  1  0.499360  0.840623  0.263945  1
  O  O48  1  0.499653  0.667488  0.283721  1
  O  O49  1  0.000000  0.141003  0.390359  1
  O  O50  1  0.125601  -0.000000  0.394480  1
  O  O51  1  0.834623  0.124745  0.364129  1
  O  O52  1  0.837509  0.786912  0.371917  1
  O  O53  1  -0.000000  0.554603  0.287734  1
  O  O54  1  0.900162  0.769304  0.246628  1
  O  O55  1  0.598345  0.230497  0.302244  1
  O  O56  1  0.763907  0.204516  0.323530  1
  O  O57  1  0.772845  0.615808  0.241778  1
  O  O58  1  0.725087  0.384874  0.307582  1
  O  O59  1  0.752155  0.813934  0.277647  1
  O  O60  1  0.746579  0.187194  0.271367  1
  O  O61  1  0.902367  0.467451  0.244773  1
  O  O62  1  0.597696  0.533344  0.303631  1
  O  O63  1  0.750252  0.496926  0.274123  1
  O  O64  1  0.759135  0.604861  0.328134  1
  O  O65  1  0.740439  0.997458  0.320260  1
  O  O66  1  0.901442  0.149814  0.242310  1
  O  O67  1  0.596590  0.851215  0.306378  1
  O  O68  1  0.750661  0.807627  0.328289  1
  O  O69  1  0.500850  0.239903  0.261600  1
  O  O70  1  0.906319  0.070633  0.316634  1
  O  O71  1  0.907711  0.712916  0.324544  1
  O  O72  1  -0.000000  0.159576  0.284564  1
  O  O73  1  -0.000000  0.332722  0.264782  1
  O  O74  1  -0.000000  0.943371  0.275107  1
  O  O75  1  0.165988  0.875576  0.425040  1
  O  O76  1  -0.000000  0.445346  0.501343  1
  O  O77  1  -0.000000  0.667179  0.524288  1
  O  O78  1  0.000000  0.239582  0.502150  1
  O  O79  1  0.163598  0.213128  0.417017  1
  O  O80  1  0.099286  0.230672  0.542652  1
  O  O81  1  0.400987  0.769683  0.487018  1
  O  O82  1  0.235897  0.795686  0.465755  1
  O  O83  1  0.226717  0.384330  0.547515  1
  O  O84  1  0.274530  0.615230  0.481693  1
  O  O85  1  0.247303  0.186352  0.511671  1
  O  O86  1  0.252803  0.813028  0.517944  1
  O  O87  1  0.097707  0.532679  0.544309  1
  O  O88  1  0.402397  0.466745  0.485451  1
  O  O89  1  0.249902  0.502440  0.514990  1
  O  O90  1  0.241049  0.395104  0.460961  1
  O  O91  1  0.258977  0.002861  0.469085  1
  O  O92  1  0.097497  0.850692  0.546812  1
  O  O93  1  0.402436  0.149359  0.482768  1
  O  O94  1  0.247910  0.192554  0.461004  1
  O  O95  1  -0.000000  0.859229  0.398615  1
  O  O96  1  0.093131  0.929087  0.472400  1
  O  O97  1  0.091276  0.288055  0.464094  1
  O  O98  1  -0.000000  0.056664  0.513977  1
  O  O99  1  0.499974  0.159385  0.525124  1
  O  O100  1  0.499987  0.943295  0.515713  1
  O  O101  1  -0.000000  0.840346  0.504461  1
  O  O102  1  0.837589  0.213230  0.417121  1
  O  O103  1  0.500534  0.759990  0.527385  1
  O  O104  1  0.900913  0.230739  0.542493  1
  O  O105  1  0.599154  0.769958  0.486921  1
  O  O106  1  0.764352  0.795624  0.465628  1
  O  O107  1  0.773348  0.384109  0.547298  1
  O  O108  1  0.725427  0.615205  0.481537  1
  O  O109  1  0.752908  0.185973  0.511456  1
  O  O110  1  0.747390  0.812812  0.517808  1
  O  O111  1  0.902512  0.532623  0.544262  1
  O  O112  1  0.597771  0.466740  0.485414  1
  O  O113  1  0.750392  0.502795  0.514906  1
  O  O114  1  0.759203  0.395170  0.460903  1
  O  O115  1  0.741055  0.002577  0.468816  1
  O  O116  1  0.902467  0.850306  0.546778  1
  O  O117  1  0.597356  0.148909  0.482716  1
  O  O118  1  0.751411  0.192476  0.460826  1
  O  O119  1  0.834957  0.875063  0.424940  1
  O  O120  1  0.906884  0.929390  0.472440  1
  O  O121  1  0.908241  0.287628  0.464414  1
  O  O122  1  0.500146  0.554447  0.528341  1
  O  O123  1  0.500167  0.332488  0.505383  1
  O  O124  1  0.875468  -0.000000  0.394551  1
  O  O125  1  0.264328  0.204354  0.563879  1
  O  O126  1  0.259026  0.604921  0.568837  1
  O  O127  1  0.241113  0.996998  0.560505  1
  O  O128  1  0.251680  0.807558  0.568694  1
  O  O129  1  0.408411  0.712267  0.565259  1
  O  O130  1  0.337670  0.213470  0.657586  1
  O  O131  1  0.337473  0.787205  0.612486  1
  O  O132  1  0.334370  0.124549  0.604584  1
  O  O133  1  0.334718  0.875394  0.665461  1
  O  O134  1  0.375538  -0.000000  0.635095  1
  O  O135  1  0.406929  0.070801  0.557237  1
  O  O136  1  0.735971  0.204158  0.563677  1
  O  O137  1  0.741246  0.604779  0.568769  1
  O  O138  1  0.759093  0.996752  0.560332  1
  O  O139  1  0.747977  0.807378  0.568571  1
  O  O140  1  0.591362  0.711892  0.565486  1
  O  O141  1  0.663567  0.212849  0.657487  1
  O  O142  1  0.663610  0.787034  0.612565  1
  O  O143  1  0.666363  0.124404  0.604455  1
  O  O144  1  0.666130  0.875622  0.665625  1
  O  O145  1  0.625519  -0.000000  0.635009  1
  O  O146  1  0.500518  0.140862  0.630772  1
  O  O147  1  0.593287  0.070796  0.557175  1
  O  O148  1  0.500543  0.859231  0.639209  1
  Si  Si149  1  0.308232  0.896299  0.216046  1
  Si  Si150  1  0.309559  0.274470  0.208321  1
  Si  Si151  1  0.388142  0.121309  0.150803  1
  Si  Si152  1  0.388205  0.879086  0.157181  1
  Si  Si153  1  0.691037  0.896220  0.216324  1
  Si  Si154  1  0.689840  0.274571  0.208331  1
  Si  Si155  1  0.612883  0.120944  0.150698  1
  Si  Si156  1  0.612918  0.879031  0.157260  1
  Si  Si157  1  0.210513  0.746820  0.246481  1
  Si  Si158  1  0.288039  0.253109  0.301464  1
  Si  Si159  1  0.208804  0.495185  0.244645  1
  Si  Si160  1  0.290927  0.505338  0.303706  1
  Si  Si161  1  0.209180  0.131566  0.240412  1
  Si  Si162  1  0.288885  0.868033  0.307632  1
  Si  Si163  1  0.191088  0.104008  0.332183  1
  Si  Si164  1  0.189939  0.725499  0.340129  1
  Si  Si165  1  0.112912  0.121266  0.391250  1
  Si  Si166  1  0.499933  0.548934  0.289146  1
  Si  Si167  1  0.499378  0.936713  0.249684  1
  Si  Si168  1  0.499295  0.801409  0.290886  1
  Si  Si169  1  0.499717  0.316163  0.242202  1
  Si  Si170  1  0.499538  0.190551  0.286672  1
  Si  Si171  1  0.788062  0.746951  0.246981  1
  Si  Si172  1  0.710499  0.253433  0.302071  1
  Si  Si173  1  0.790870  0.494728  0.244756  1
  Si  Si174  1  0.708842  0.504981  0.303834  1
  Si  Si175  1  0.788720  0.132254  0.240904  1
  Si  Si176  1  0.709335  0.868711  0.308036  1
  Si  Si177  1  0.808382  0.103961  0.332491  1
  Si  Si178  1  0.809592  0.725755  0.340137  1
  Si  Si179  1  0.888186  0.121222  0.391377  1
  Si  Si180  1  -0.000000  0.063467  0.298821  1
  Si  Si181  1  0.000000  0.198807  0.257624  1
  Si  Si182  1  -0.000000  0.684023  0.306267  1
  Si  Si183  1  -0.000000  0.809658  0.261800  1
  Si  Si184  1  -0.000000  0.451223  0.259330  1
  Si  Si185  1  0.211418  0.253243  0.542344  1
  Si  Si186  1  0.288951  0.746736  0.487250  1
  Si  Si187  1  0.209126  0.505208  0.544383  1
  Si  Si188  1  0.291178  0.494935  0.485301  1
  Si  Si189  1  0.210239  0.868144  0.548358  1
  Si  Si190  1  0.289719  0.131732  0.481236  1
  Si  Si191  1  0.191425  0.896093  0.456726  1
  Si  Si192  1  0.190220  0.274484  0.448898  1
  Si  Si193  1  0.112889  0.879214  0.397729  1
  Si  Si194  1  -0.000000  0.315960  0.482782  1
  Si  Si195  1  -0.000000  0.548691  0.529755  1
  Si  Si196  1  -0.000000  0.190418  0.527256  1
  Si  Si197  1  0.000000  0.936590  0.490242  1
  Si  Si198  1  0.499988  0.198549  0.498178  1
  Si  Si199  1  -0.000000  0.801075  0.531397  1
  Si  Si200  1  0.788778  0.253028  0.542123  1
  Si  Si201  1  0.711171  0.746731  0.487110  1
  Si  Si202  1  0.791074  0.505164  0.544279  1
  Si  Si203  1  0.708956  0.495021  0.485216  1
  Si  Si204  1  0.789735  0.867810  0.548249  1
  Si  Si205  1  0.710081  0.131353  0.481065  1
  Si  Si206  1  0.808912  0.895990  0.456602  1
  Si  Si207  1  0.809914  0.274439  0.448913  1
  Si  Si208  1  0.888183  0.878845  0.397660  1
  Si  Si209  1  0.500034  0.063393  0.539412  1
  Si  Si210  1  0.500122  0.451012  0.499949  1
  Si  Si211  1  0.500119  0.809632  0.502362  1
  Si  Si212  1  0.500137  0.683923  0.546830  1
  Si  Si213  1  0.308630  0.103800  0.572902  1
  Si  Si214  1  0.309948  0.725696  0.580700  1
  Si  Si215  1  0.388142  0.121309  0.631840  1
  Si  Si216  1  0.388205  0.879086  0.638219  1
  Si  Si217  1  0.691751  0.103694  0.572751  1
  Si  Si218  1  0.690285  0.725496  0.580701  1
  Si  Si219  1  0.612883  0.120944  0.631735  1
  Si  Si220  1  0.612918  0.879031  0.638298  1
  H  H221  1  0.337473  0.787205  0.113510  1
  H  H222  1  0.334370  0.124549  0.105609  1
  H  H223  1  0.663610  0.787034  0.113590  1
  H  H224  1  0.666363  0.124404  0.105479  1
  H  H225  1  0.337670  0.213470  0.675524  1
  H  H226  1  0.334718  0.875394  0.683399  1
  H  H227  1  0.663567  0.212849  0.675424  1
  H  H228  1  0.666130  0.875622  0.683563  1
