# generated using pymatgen
data_Si17(HO9)4
_symmetry_space_group_name_H-M   'P 1'
_cell_length_a   10.15581638
_cell_length_b   7.43612829
_cell_length_c   43.32640763
_cell_angle_alpha   90.00000000
_cell_angle_beta   120.00000000
_cell_angle_gamma   90.00000000
_symmetry_Int_Tables_number   1
_chemical_formula_structural   Si17(HO9)4
_chemical_formula_sum   'Si17 H4 O36'
_cell_volume   2833.64229952
_cell_formula_units_Z   1
loop_
 _symmetry_equiv_pos_site_id
 _symmetry_equiv_pos_as_xyz
  1  'x, y, z'
loop_
 _atom_site_type_symbol
 _atom_site_label
 _atom_site_symmetry_multiplicity
 _atom_site_fract_x
 _atom_site_fract_y
 _atom_site_fract_z
 _atom_site_occupancy
  O  O1  1  0.668532  0.831461  0.205444  1
  O  O2  1  0.648660  0.499563  0.205401  1
  O  O3  1  0.660633  0.163562  0.210375  1
  O  O4  1  0.335117  0.834661  0.292275  1
  O  O5  1  0.330284  0.165588  0.284960  1
  O  O6  1  0.350611  0.498953  0.289951  1
  O  O7  1  0.371521  0.714695  0.244225  1
  O  O8  1  0.109797  0.382714  0.273173  1
  O  O9  1  0.528238  0.045975  0.340908  1
  O  O10  1  0.468386  0.954899  0.214544  1
  O  O11  1  0.631080  0.288665  0.154867  1
  O  O12  1  0.890977  0.615669  0.246488  1
  O  O13  1  0.635320  0.710580  0.251850  1
  O  O14  1  0.884234  0.361170  0.212017  1
  O  O15  1  0.473784  0.042143  0.154029  1
  O  O16  1  0.525234  0.958247  0.279278  1
  O  O17  1  0.365204  0.290565  0.339518  1
  O  O18  1  0.117300  0.638540  0.239839  1
  O  O19  1  0.668532  0.831461  0.443996  1
  O  O20  1  0.648660  0.499563  0.443952  1
  O  O21  1  0.660633  0.163562  0.448926  1
  O  O22  1  0.335117  0.834661  0.530826  1
  O  O23  1  0.330284  0.165588  0.523512  1
  O  O24  1  0.350611  0.498953  0.528503  1
  O  O25  1  0.371521  0.714695  0.482776  1
  O  O26  1  0.109797  0.382714  0.511724  1
  O  O27  1  0.528238  0.045975  0.579460  1
  O  O28  1  0.468386  0.954899  0.453095  1
  O  O29  1  0.631080  0.288665  0.393418  1
  O  O30  1  0.890977  0.615669  0.485040  1
  O  O31  1  0.635320  0.710580  0.490401  1
  O  O32  1  0.884234  0.361170  0.450569  1
  O  O33  1  0.473784  0.042143  0.392580  1
  O  O34  1  0.525234  0.958247  0.517830  1
  O  O35  1  0.365204  0.290565  0.578070  1
  O  O36  1  0.117300  0.638540  0.478391  1
  Si  Si37  1  0.556546  0.994590  0.194639  1
  Si  Si38  1  0.718954  0.664889  0.230632  1
  Si  Si39  1  0.709601  0.326406  0.195224  1
  Si  Si40  1  0.288968  0.674303  0.266071  1
  Si  Si41  1  0.439376  -0.000000  0.300054  1
  Si  Si42  1  0.280664  0.332165  0.298475  1
  Si  Si43  1  0.502922  0.837029  0.247377  1
  Si  Si44  1  0.003522  0.498725  0.240091  1
  Si  Si45  1  0.556546  0.994590  0.433191  1
  Si  Si46  1  0.718954  0.664889  0.469183  1
  Si  Si47  1  0.709601  0.326406  0.433775  1
  Si  Si48  1  0.288968  0.674303  0.504623  1
  Si  Si49  1  0.439376  -0.000000  0.538606  1
  Si  Si50  1  0.280664  0.332165  0.537026  1
  Si  Si51  1  0.500350  0.167274  0.366995  1
  Si  Si52  1  0.502922  0.837029  0.485929  1
  Si  Si53  1  0.003522  0.498725  0.478643  1
  H  H54  1  0.631080  0.288665  0.134094  1
  H  H55  1  0.473784  0.042143  0.133256  1
  H  H56  1  0.528238  0.045975  0.600232  1
  H  H57  1  0.365204  0.290565  0.598843  1
