# generated using pymatgen
data_Si4H2O9
_symmetry_space_group_name_H-M   'P 1'
_cell_length_a   10.15581638
_cell_length_b   7.43612829
_cell_length_c   32.99082417
_cell_angle_alpha   90.00000000
_cell_angle_beta   120.00000000
_cell_angle_gamma   90.00000000
_symmetry_Int_Tables_number   1
_chemical_formula_structural   Si4H2O9
_chemical_formula_sum   'Si8 H4 O18'
_cell_volume   2157.67242138
_cell_formula_units_Z   2
loop_
 _symmetry_equiv_pos_site_id
 _symmetry_equiv_pos_as_xyz
  1  'x, y, z'
loop_
 _atom_site_type_symbol
 _atom_site_label
 _atom_site_symmetry_multiplicity
 _atom_site_fract_x
 _atom_site_fract_y
 _atom_site_fract_z
 _atom_site_occupancy
  O  O1  1  0.668532  0.831461  0.269807  1
  O  O2  1  0.648660  0.499563  0.269750  1
  O  O3  1  0.660633  0.163562  0.276282  1
  O  O4  1  0.335117  0.834661  0.383840  1
  O  O5  1  0.330284  0.165588  0.374234  1
  O  O6  1  0.350611  0.498953  0.380789  1
  O  O7  1  0.371521  0.714695  0.320737  1
  O  O8  1  0.109797  0.382714  0.358754  1
  O  O9  1  0.528238  0.045975  0.447710  1
  O  O10  1  0.468386  0.954899  0.281758  1
  O  O11  1  0.631080  0.288665  0.203384  1
  O  O12  1  0.890977  0.615669  0.323710  1
  O  O13  1  0.635320  0.710580  0.330751  1
  O  O14  1  0.884234  0.361170  0.278440  1
  O  O15  1  0.473784  0.042143  0.202284  1
  O  O16  1  0.525234  0.958247  0.366773  1
  O  O17  1  0.365204  0.290565  0.445885  1
  O  O18  1  0.117300  0.638540  0.314978  1
  Si  Si19  1  0.556546  0.994590  0.255617  1
  Si  Si20  1  0.718954  0.664889  0.302886  1
  Si  Si21  1  0.709601  0.326406  0.256384  1
  Si  Si22  1  0.288968  0.674303  0.349428  1
  Si  Si23  1  0.439376  -0.000000  0.394057  1
  Si  Si24  1  0.280664  0.332165  0.391983  1
  Si  Si25  1  0.502922  0.837029  0.324877  1
  Si  Si26  1  0.003522  0.498725  0.315309  1
  H  H27  1  0.528238  0.045975  0.474990  1
  H  H28  1  0.631080  0.288665  0.176104  1
  H  H29  1  0.473784  0.042143  0.175003  1
  H  H30  1  0.365204  0.290565  0.473165  1
