# generated using pymatgen
data_Si48H2O97
_symmetry_space_group_name_H-M   'P 1'
_cell_length_a   13.67170804
_cell_length_b   13.69327883
_cell_length_c   100.73515823
_cell_angle_alpha   90.00000000
_cell_angle_beta   90.00000000
_cell_angle_gamma   90.00000000
_symmetry_Int_Tables_number   1
_chemical_formula_structural   Si48H2O97
_chemical_formula_sum   'Si192 H8 O388'
_cell_volume   18858.6803749
_cell_formula_units_Z   4
loop_
 _symmetry_equiv_pos_site_id
 _symmetry_equiv_pos_as_xyz
  1  'x, y, z'
loop_
 _atom_site_type_symbol
 _atom_site_label
 _atom_site_symmetry_multiplicity
 _atom_site_fract_x
 _atom_site_fract_y
 _atom_site_fract_z
 _atom_site_occupancy
  O  O1  1  0.411243  0.001173  0.078140  1
  O  O2  1  0.000000  0.588650  0.078112  1
  O  O3  1  0.090989  0.499480  0.058883  1
  O  O4  1  0.499294  0.911717  0.058689  1
  O  O5  1  -0.000000  0.411544  0.078065  1
  O  O6  1  -0.000000  0.499365  0.190741  1
  O  O7  1  0.499882  -0.000000  0.098855  1
  O  O8  1  0.369159  0.499967  0.144793  1
  O  O9  1  0.339904  0.660902  0.156862  1
  O  O10  1  0.340146  0.339157  0.156966  1
  O  O11  1  0.339783  0.339571  0.132605  1
  O  O12  1  0.338981  0.659525  0.132414  1
  O  O13  1  0.336000  0.091220  0.099000  1
  O  O14  1  0.088378  0.664127  0.099309  1
  O  O15  1  0.090436  0.336621  0.099000  1
  O  O16  1  0.335764  0.910907  0.098961  1
  O  O17  1  0.090968  0.663312  0.190637  1
  O  O18  1  0.336393  0.090004  0.190598  1
  O  O19  1  0.336025  0.909787  0.190635  1
  O  O20  1  0.089930  0.335442  0.190587  1
  O  O21  1  0.231453  -0.000000  0.113804  1
  O  O22  1  -0.000000  0.768503  0.114041  1
  O  O23  1  -0.000000  0.768305  0.175886  1
  O  O24  1  0.231548  -0.000000  0.175830  1
  O  O25  1  0.294545  0.830253  0.167663  1
  O  O26  1  0.170678  0.294573  0.167680  1
  O  O27  1  0.170572  0.705103  0.167752  1
  O  O28  1  0.294807  0.169675  0.167664  1
  O  O29  1  0.169668  0.294959  0.121931  1
  O  O30  1  0.293504  0.829613  0.121818  1
  O  O31  1  0.294369  0.170613  0.121878  1
  O  O32  1  0.168739  0.702264  0.122167  1
  O  O33  1  0.166240  0.167403  0.105303  1
  O  O34  1  0.167211  0.833161  0.105518  1
  O  O35  1  0.167286  0.832774  0.184366  1
  O  O36  1  0.166949  0.166606  0.184273  1
  O  O37  1  0.232307  0.766197  0.144768  1
  O  O38  1  0.232956  0.232927  0.144781  1
  O  O39  1  -0.000000  0.499828  0.098749  1
  O  O40  1  0.499842  0.630753  0.144569  1
  O  O41  1  0.499998  0.998993  0.190849  1
  O  O42  1  0.001684  0.500361  0.251441  1
  O  O43  1  0.130779  -0.000000  0.297488  1
  O  O44  1  0.160842  0.840094  0.285312  1
  O  O45  1  0.162497  0.162664  0.285654  1
  O  O46  1  0.409277  0.835650  0.251736  1
  O  O47  1  0.164234  0.409188  0.251923  1
  O  O48  1  0.165337  0.590332  0.251825  1
  O  O49  1  0.408409  0.163096  0.251690  1
  O  O50  1  0.089348  0.499236  0.231009  1
  O  O51  1  -0.000000  0.588130  0.211458  1
  O  O52  1  0.411172  0.000000  0.211597  1
  O  O53  1  0.499678  0.908827  0.230839  1
  O  O54  1  0.268578  0.500362  0.266735  1
  O  O55  1  0.498162  -0.000000  0.251217  1
  O  O56  1  0.206189  0.670623  0.274772  1
  O  O57  1  0.332056  0.202931  0.274762  1
  O  O58  1  0.330932  0.794855  0.274732  1
  O  O59  1  0.204408  0.331532  0.274892  1
  O  O60  1  0.334318  0.666860  0.258195  1
  O  O61  1  0.332708  0.331648  0.258438  1
  O  O62  1  0.269876  0.268142  0.297426  1
  O  O63  1  0.499827  0.090732  0.230806  1
  O  O64  1  0.588600  -0.000000  0.078168  1
  O  O65  1  0.500575  0.088797  0.058643  1
  O  O66  1  0.911311  0.500276  0.058569  1
  O  O67  1  -0.000000  0.232835  0.175676  1
  O  O68  1  0.631254  0.499389  0.144751  1
  O  O69  1  0.661205  0.661888  0.156732  1
  O  O70  1  0.661451  0.340387  0.157088  1
  O  O71  1  0.661042  0.339315  0.132563  1
  O  O72  1  0.661364  0.660122  0.132631  1
  O  O73  1  0.911755  0.335760  0.099213  1
  O  O74  1  0.663683  0.908553  0.099037  1
  O  O75  1  0.664022  0.088905  0.099046  1
  O  O76  1  0.909696  0.662720  0.099103  1
  O  O77  1  0.662917  0.907713  0.190605  1
  O  O78  1  0.908619  0.336810  0.190517  1
  O  O79  1  0.910434  0.662943  0.190552  1
  O  O80  1  0.663775  0.088452  0.190628  1
  O  O81  1  -0.000000  0.231677  0.114017  1
  O  O82  1  0.768981  0.998587  0.113772  1
  O  O83  1  0.767169  0.998936  0.175726  1
  O  O84  1  0.830186  0.706824  0.167700  1
  O  O85  1  0.706820  0.171122  0.167758  1
  O  O86  1  0.701649  0.830945  0.167537  1
  O  O87  1  0.831497  0.299690  0.167557  1
  O  O88  1  0.707174  0.169447  0.121942  1
  O  O89  1  0.831028  0.705549  0.122116  1
  O  O90  1  0.831026  0.297723  0.122080  1
  O  O91  1  0.705855  0.829458  0.121959  1
  O  O92  1  0.832618  0.166751  0.105486  1
  O  O93  1  0.833416  0.831815  0.105303  1
  O  O94  1  0.832200  0.831620  0.184189  1
  O  O95  1  0.832365  0.167560  0.184097  1
  O  O96  1  0.767505  0.769333  0.144982  1
  O  O97  1  0.769385  0.235123  0.144866  1
  O  O98  1  0.500959  0.368455  0.144810  1
  O  O99  1  0.501218  0.268277  0.266779  1
  O  O100  1  0.731266  0.267426  0.297560  1
  O  O101  1  -0.000000  0.869239  0.297401  1
  O  O102  1  0.839011  0.840191  0.285345  1
  O  O103  1  0.838998  0.161521  0.285752  1
  O  O104  1  0.836548  0.588617  0.251845  1
  O  O105  1  0.588203  0.164606  0.251970  1
  O  O106  1  0.588617  0.835425  0.252115  1
  O  O107  1  0.836717  0.411582  0.251876  1
  O  O108  1  0.910177  0.499740  0.230754  1
  O  O109  1  0.588702  0.998784  0.211585  1
  O  O110  1  0.729492  0.499984  0.266589  1
  O  O111  1  0.501350  0.730812  0.266822  1
  O  O112  1  0.669380  0.796732  0.275093  1
  O  O113  1  0.792719  0.330315  0.274687  1
  O  O114  1  0.792431  0.670536  0.274694  1
  O  O115  1  0.670225  0.204071  0.274868  1
  O  O116  1  0.666846  0.666073  0.258013  1
  O  O117  1  0.666941  0.334225  0.257898  1
  O  O118  1  -0.000000  0.410643  0.211415  1
  O  O119  1  -0.000000  0.130914  0.297768  1
  O  O120  1  0.161540  0.160073  0.309839  1
  O  O121  1  0.161456  0.838767  0.309428  1
  O  O122  1  0.162179  0.408541  0.343505  1
  O  O123  1  0.410890  0.836190  0.343127  1
  O  O124  1  0.411620  0.163642  0.343039  1
  O  O125  1  0.163775  0.587375  0.343264  1
  O  O126  1  0.411243  0.001173  0.383716  1
  O  O127  1  -0.000000  0.588650  0.383687  1
  O  O128  1  0.090989  0.499480  0.364459  1
  O  O129  1  0.269201  0.500186  0.328650  1
  O  O130  1  0.498224  0.730339  0.328487  1
  O  O131  1  0.331145  0.202886  0.320164  1
  O  O132  1  0.207506  0.670155  0.320465  1
  O  O133  1  0.206256  0.330076  0.320486  1
  O  O134  1  0.330304  0.796207  0.320278  1
  O  O135  1  0.331353  0.332561  0.336950  1
  O  O136  1  0.332981  0.666153  0.337297  1
  O  O137  1  0.499294  0.911717  0.364265  1
  O  O138  1  0.498660  0.268701  0.328337  1
  O  O139  1  -0.000000  0.411544  0.383641  1
  O  O140  1  0.269121  0.732763  0.297624  1
  O  O141  1  -0.000000  0.499365  0.496316  1
  O  O142  1  0.499882  -0.000000  0.404431  1
  O  O143  1  0.369159  0.499967  0.450369  1
  O  O144  1  0.339904  0.660902  0.462438  1
  O  O145  1  0.340146  0.339157  0.462541  1
  O  O146  1  0.339783  0.339571  0.438180  1
  O  O147  1  0.338981  0.659525  0.437989  1
  O  O148  1  0.336000  0.091220  0.404575  1
  O  O149  1  0.088378  0.664127  0.404885  1
  O  O150  1  0.090436  0.336621  0.404576  1
  O  O151  1  0.335764  0.910907  0.404536  1
  O  O152  1  0.090968  0.663312  0.496213  1
  O  O153  1  0.336393  0.090004  0.496173  1
  O  O154  1  0.336025  0.909787  0.496211  1
  O  O155  1  0.089930  0.335442  0.496162  1
  O  O156  1  0.231453  0.000000  0.419380  1
  O  O157  1  -0.000000  0.768503  0.419616  1
  O  O158  1  -0.000000  0.768305  0.481461  1
  O  O159  1  0.231548  -0.000000  0.481405  1
  O  O160  1  0.294545  0.830253  0.473239  1
  O  O161  1  0.170678  0.294573  0.473256  1
  O  O162  1  0.170572  0.705103  0.473327  1
  O  O163  1  0.294807  0.169675  0.473239  1
  O  O164  1  0.169668  0.294959  0.427506  1
  O  O165  1  0.293504  0.829613  0.427394  1
  O  O166  1  0.294369  0.170613  0.427453  1
  O  O167  1  0.168739  0.702264  0.427743  1
  O  O168  1  0.166240  0.167403  0.410878  1
  O  O169  1  0.167211  0.833161  0.411093  1
  O  O170  1  0.167286  0.832774  0.489941  1
  O  O171  1  0.166949  0.166606  0.489849  1
  O  O172  1  0.232307  0.766197  0.450344  1
  O  O173  1  0.232956  0.232927  0.450357  1
  O  O174  1  -0.000000  0.499828  0.404324  1
  O  O175  1  0.499842  0.630753  0.450145  1
  O  O176  1  0.499998  0.998993  0.496425  1
  O  O177  1  0.001684  0.500361  0.557016  1
  O  O178  1  0.130779  0.000000  0.603063  1
  O  O179  1  0.160842  0.840094  0.590888  1
  O  O180  1  0.162497  0.162664  0.591229  1
  O  O181  1  0.409277  0.835650  0.557311  1
  O  O182  1  0.164234  0.409188  0.557499  1
  O  O183  1  0.165337  0.590332  0.557401  1
  O  O184  1  0.408409  0.163096  0.557266  1
  O  O185  1  0.089348  0.499236  0.536585  1
  O  O186  1  -0.000000  0.588130  0.517034  1
  O  O187  1  0.411172  0.000000  0.517173  1
  O  O188  1  0.499678  0.908827  0.536415  1
  O  O189  1  0.268578  0.500362  0.572311  1
  O  O190  1  0.498162  0.000000  0.556792  1
  O  O191  1  0.206189  0.670623  0.580348  1
  O  O192  1  0.332056  0.202931  0.580337  1
  O  O193  1  0.330932  0.794855  0.580308  1
  O  O194  1  0.204408  0.331532  0.580467  1
  O  O195  1  0.334318  0.666860  0.563770  1
  O  O196  1  0.332708  0.331648  0.564014  1
  O  O197  1  0.269876  0.268142  0.603002  1
  O  O198  1  0.499827  0.090732  0.536382  1
  O  O199  1  0.998352  0.498661  0.343748  1
  O  O200  1  0.839444  0.159897  0.309869  1
  O  O201  1  0.838642  0.837435  0.309552  1
  O  O202  1  0.590334  0.163833  0.343347  1
  O  O203  1  0.835792  0.590858  0.343282  1
  O  O204  1  0.834050  0.409768  0.343361  1
  O  O205  1  0.589549  0.836131  0.343453  1
  O  O206  1  0.588600  -0.000000  0.383744  1
  O  O207  1  0.500575  0.088797  0.364219  1
  O  O208  1  0.911311  0.500276  0.364145  1
  O  O209  1  0.731427  0.499946  0.328427  1
  O  O210  1  0.793742  0.329392  0.320416  1
  O  O211  1  0.669315  0.793103  0.320587  1
  O  O212  1  0.669195  0.204997  0.320414  1
  O  O213  1  0.797075  0.668295  0.320314  1
  O  O214  1  0.665245  0.333192  0.336949  1
  O  O215  1  0.666558  0.667203  0.336945  1
  O  O216  1  0.869545  0.000000  0.297681  1
  O  O217  1  0.731827  0.731552  0.297803  1
  O  O218  1  0.501540  -0.000000  0.343603  1
  O  O219  1  -0.000000  0.232835  0.481252  1
  O  O220  1  0.631254  0.499389  0.450327  1
  O  O221  1  0.661205  0.661888  0.462308  1
  O  O222  1  0.661451  0.340387  0.462664  1
  O  O223  1  0.661042  0.339315  0.438138  1
  O  O224  1  0.661364  0.660122  0.438207  1
  O  O225  1  0.911755  0.335760  0.404789  1
  O  O226  1  0.663683  0.908553  0.404612  1
  O  O227  1  0.664022  0.088905  0.404621  1
  O  O228  1  0.909696  0.662720  0.404679  1
  O  O229  1  0.662917  0.907713  0.496180  1
  O  O230  1  0.908619  0.336810  0.496092  1
  O  O231  1  0.910434  0.662943  0.496128  1
  O  O232  1  0.663775  0.088452  0.496204  1
  O  O233  1  -0.000000  0.231677  0.419592  1
  O  O234  1  0.768981  0.998587  0.419347  1
  O  O235  1  0.767169  0.998936  0.481301  1
  O  O236  1  0.830186  0.706824  0.473275  1
  O  O237  1  0.706820  0.171122  0.473333  1
  O  O238  1  0.701649  0.830945  0.473113  1
  O  O239  1  0.831497  0.299690  0.473132  1
  O  O240  1  0.707174  0.169447  0.427518  1
  O  O241  1  0.831028  0.705549  0.427691  1
  O  O242  1  0.831026  0.297723  0.427656  1
  O  O243  1  0.705855  0.829458  0.427535  1
  O  O244  1  0.832618  0.166751  0.411061  1
  O  O245  1  0.833416  0.831815  0.410878  1
  O  O246  1  0.832200  0.831620  0.489765  1
  O  O247  1  0.832365  0.167560  0.489672  1
  O  O248  1  0.767505  0.769333  0.450557  1
  O  O249  1  0.769385  0.235123  0.450442  1
  O  O250  1  0.500959  0.368455  0.450385  1
  O  O251  1  0.501218  0.268277  0.572354  1
  O  O252  1  0.731266  0.267426  0.603135  1
  O  O253  1  -0.000000  0.869239  0.602976  1
  O  O254  1  0.839011  0.840191  0.590920  1
  O  O255  1  0.838998  0.161521  0.591327  1
  O  O256  1  0.836548  0.588617  0.557421  1
  O  O257  1  0.588203  0.164606  0.557545  1
  O  O258  1  0.588617  0.835425  0.557690  1
  O  O259  1  0.836717  0.411582  0.557451  1
  O  O260  1  0.910177  0.499740  0.536330  1
  O  O261  1  0.588702  0.998784  0.517160  1
  O  O262  1  0.729492  0.499984  0.572165  1
  O  O263  1  0.501350  0.730812  0.572397  1
  O  O264  1  0.669380  0.796732  0.580668  1
  O  O265  1  0.792719  0.330315  0.580262  1
  O  O266  1  0.792431  0.670536  0.580270  1
  O  O267  1  0.670225  0.204071  0.580444  1
  O  O268  1  0.666846  0.666073  0.563588  1
  O  O269  1  0.666941  0.334225  0.563474  1
  O  O270  1  -0.000000  0.410643  0.516990  1
  O  O271  1  -0.000000  0.130914  0.603344  1
  O  O272  1  0.161540  0.160073  0.615414  1
  O  O273  1  0.161456  0.838767  0.615003  1
  O  O274  1  0.162179  0.408541  0.649080  1
  O  O275  1  0.410890  0.836190  0.648702  1
  O  O276  1  0.411620  0.163642  0.648615  1
  O  O277  1  0.163775  0.587375  0.648839  1
  O  O278  1  0.411243  0.001173  0.689291  1
  O  O279  1  -0.000000  0.588650  0.689263  1
  O  O280  1  0.090989  0.499480  0.670034  1
  O  O281  1  0.269201  0.500186  0.634226  1
  O  O282  1  0.498224  0.730339  0.634063  1
  O  O283  1  0.331145  0.202886  0.625739  1
  O  O284  1  0.207506  0.670155  0.626040  1
  O  O285  1  0.206256  0.330076  0.626061  1
  O  O286  1  0.330304  0.796207  0.625854  1
  O  O287  1  0.331353  0.332561  0.642525  1
  O  O288  1  0.332981  0.666153  0.642872  1
  O  O289  1  0.499294  0.911717  0.669840  1
  O  O290  1  0.498660  0.268701  0.633912  1
  O  O291  1  -0.000000  0.411544  0.689216  1
  O  O292  1  0.269121  0.732763  0.603200  1
  O  O293  1  -0.000000  0.499365  0.801892  1
  O  O294  1  0.499882  -0.000000  0.710006  1
  O  O295  1  0.369159  0.499967  0.755944  1
  O  O296  1  0.339904  0.660902  0.768013  1
  O  O297  1  0.340146  0.339157  0.768117  1
  O  O298  1  0.339783  0.339571  0.743756  1
  O  O299  1  0.338981  0.659525  0.743565  1
  O  O300  1  0.336000  0.091220  0.710151  1
  O  O301  1  0.088378  0.664127  0.710460  1
  O  O302  1  0.090436  0.336621  0.710151  1
  O  O303  1  0.335764  0.910907  0.710112  1
  O  O304  1  0.090968  0.663312  0.801788  1
  O  O305  1  0.336393  0.090004  0.801749  1
  O  O306  1  0.336025  0.909787  0.801787  1
  O  O307  1  0.089930  0.335442  0.801738  1
  O  O308  1  0.231453  -0.000000  0.724955  1
  O  O309  1  -0.000000  0.768503  0.725192  1
  O  O310  1  -0.000000  0.768305  0.787037  1
  O  O311  1  0.231548  0.000000  0.786981  1
  O  O312  1  0.294545  0.830253  0.778814  1
  O  O313  1  0.170678  0.294573  0.778831  1
  O  O314  1  0.170572  0.705103  0.778903  1
  O  O315  1  0.294807  0.169675  0.778815  1
  O  O316  1  0.169668  0.294959  0.733082  1
  O  O317  1  0.293504  0.829613  0.732969  1
  O  O318  1  0.294369  0.170613  0.733029  1
  O  O319  1  0.168739  0.702264  0.733318  1
  O  O320  1  0.166240  0.167403  0.716454  1
  O  O321  1  0.167211  0.833161  0.716669  1
  O  O322  1  0.167286  0.832774  0.795517  1
  O  O323  1  0.166949  0.166606  0.795424  1
  O  O324  1  0.232307  0.766197  0.755919  1
  O  O325  1  0.232956  0.232927  0.755932  1
  O  O326  1  -0.000000  0.499828  0.709900  1
  O  O327  1  0.499842  0.630753  0.755720  1
  O  O328  1  0.499998  0.998993  0.802000  1
  O  O329  1  0.089348  0.499236  0.842160  1
  O  O330  1  -0.000000  0.588130  0.822609  1
  O  O331  1  0.411172  -0.000000  0.822748  1
  O  O332  1  0.499678  0.908827  0.841990  1
  O  O333  1  0.499827  0.090732  0.841957  1
  O  O334  1  0.998352  0.498661  0.649323  1
  O  O335  1  0.839444  0.159897  0.615444  1
  O  O336  1  0.838642  0.837435  0.615128  1
  O  O337  1  0.590334  0.163833  0.648923  1
  O  O338  1  0.835792  0.590858  0.648858  1
  O  O339  1  0.834050  0.409768  0.648936  1
  O  O340  1  0.589549  0.836131  0.649029  1
  O  O341  1  0.588600  0.000000  0.689319  1
  O  O342  1  0.500575  0.088797  0.669794  1
  O  O343  1  0.911311  0.500276  0.669720  1
  O  O344  1  0.731427  0.499946  0.634003  1
  O  O345  1  0.793742  0.329392  0.625991  1
  O  O346  1  0.669315  0.793103  0.626162  1
  O  O347  1  0.669195  0.204997  0.625990  1
  O  O348  1  0.797075  0.668295  0.625890  1
  O  O349  1  0.665245  0.333192  0.642525  1
  O  O350  1  0.666558  0.667203  0.642521  1
  O  O351  1  0.869545  -0.000000  0.603256  1
  O  O352  1  0.731827  0.731552  0.603378  1
  O  O353  1  0.501540  0.000000  0.649178  1
  O  O354  1  -0.000000  0.232835  0.786827  1
  O  O355  1  0.631254  0.499389  0.755902  1
  O  O356  1  0.661205  0.661888  0.767884  1
  O  O357  1  0.661451  0.340387  0.768239  1
  O  O358  1  0.661042  0.339315  0.743714  1
  O  O359  1  0.661364  0.660122  0.743782  1
  O  O360  1  0.911755  0.335760  0.710364  1
  O  O361  1  0.663683  0.908553  0.710188  1
  O  O362  1  0.664022  0.088905  0.710197  1
  O  O363  1  0.909696  0.662720  0.710254  1
  O  O364  1  0.662917  0.907713  0.801756  1
  O  O365  1  0.908619  0.336810  0.801668  1
  O  O366  1  0.910434  0.662943  0.801703  1
  O  O367  1  0.663775  0.088452  0.801779  1
  O  O368  1  -0.000000  0.231677  0.725168  1
  O  O369  1  0.768981  0.998587  0.724923  1
  O  O370  1  0.767169  0.998936  0.786877  1
  O  O371  1  0.830186  0.706824  0.778851  1
  O  O372  1  0.706820  0.171122  0.778909  1
  O  O373  1  0.701649  0.830945  0.778688  1
  O  O374  1  0.831497  0.299690  0.778708  1
  O  O375  1  0.707174  0.169447  0.733093  1
  O  O376  1  0.831028  0.705549  0.733267  1
  O  O377  1  0.831026  0.297723  0.733231  1
  O  O378  1  0.705855  0.829458  0.733110  1
  O  O379  1  0.832618  0.166751  0.716637  1
  O  O380  1  0.833416  0.831815  0.716454  1
  O  O381  1  0.832200  0.831620  0.795340  1
  O  O382  1  0.832365  0.167560  0.795248  1
  O  O383  1  0.767505  0.769333  0.756133  1
  O  O384  1  0.769385  0.235123  0.756017  1
  O  O385  1  0.500959  0.368455  0.755961  1
  O  O386  1  0.910177  0.499740  0.841906  1
  O  O387  1  0.588702  0.998784  0.822736  1
  O  O388  1  -0.000000  0.410643  0.822566  1
  Si  Si389  1  0.391138  0.001118  0.093520  1
  Si  Si390  1  0.001369  0.392508  0.093388  1
  Si  Si391  1  0.001512  0.500192  0.068205  1
  Si  Si392  1  0.499965  0.000000  0.068383  1
  Si  Si393  1  0.389104  0.388336  0.144788  1
  Si  Si394  1  0.388036  0.611735  0.144621  1
  Si  Si395  1  0.258107  0.107885  0.109818  1
  Si  Si396  1  0.108932  0.741763  0.110364  1
  Si  Si397  1  0.106315  0.258846  0.109894  1
  Si  Si398  1  0.258352  0.894117  0.109836  1
  Si  Si399  1  0.107840  0.741118  0.179827  1
  Si  Si400  1  0.258645  0.106963  0.179744  1
  Si  Si401  1  0.258489  0.892853  0.179756  1
  Si  Si402  1  0.107599  0.258283  0.179702  1
  Si  Si403  1  0.261010  0.739207  0.159402  1
  Si  Si404  1  0.261325  0.260574  0.159353  1
  Si  Si405  1  0.260698  0.261240  0.130210  1
  Si  Si406  1  0.259188  0.737450  0.130032  1
  Si  Si407  1  0.394104  0.758454  0.262701  1
  Si  Si408  1  0.240713  0.392361  0.262969  1
  Si  Si409  1  0.242395  0.607741  0.262731  1
  Si  Si410  1  0.393202  0.239168  0.262844  1
  Si  Si411  1  0.499929  0.000000  0.221708  1
  Si  Si412  1  0.110758  0.499824  0.246375  1
  Si  Si413  1  0.497777  0.108279  0.245941  1
  Si  Si414  1  0.391319  -0.000000  0.196144  1
  Si  Si415  1  0.110745  0.889557  0.297335  1
  Si  Si416  1  0.240073  0.761370  0.283093  1
  Si  Si417  1  0.242951  0.241851  0.282545  1
  Si  Si418  1  -0.000000  0.607929  0.196063  1
  Si  Si419  1  0.498255  0.891465  0.245983  1
  Si  Si420  1  0.998953  0.607309  0.093449  1
  Si  Si421  1  0.608727  0.998803  0.093558  1
  Si  Si422  1  0.612899  0.387601  0.144807  1
  Si  Si423  1  0.611042  0.610457  0.144632  1
  Si  Si424  1  0.891052  0.258255  0.110281  1
  Si  Si425  1  0.741775  0.891667  0.109826  1
  Si  Si426  1  0.741806  0.105500  0.109880  1
  Si  Si427  1  0.893710  0.740782  0.109962  1
  Si  Si428  1  0.739313  0.890645  0.179524  1
  Si  Si429  1  0.891173  0.260595  0.179447  1
  Si  Si430  1  0.893786  0.740836  0.179748  1
  Si  Si431  1  0.741090  0.106294  0.179737  1
  Si  Si432  1  0.739332  0.742506  0.159618  1
  Si  Si433  1  0.741853  0.263429  0.159650  1
  Si  Si434  1  0.741286  0.262009  0.130065  1
  Si  Si435  1  0.740046  0.739510  0.130422  1
  Si  Si436  1  -0.000000  0.390608  0.195999  1
  Si  Si437  1  0.758830  0.240002  0.282946  1
  Si  Si438  1  0.759158  0.761891  0.283117  1
  Si  Si439  1  0.756649  0.607219  0.262652  1
  Si  Si440  1  0.610674  0.243594  0.262971  1
  Si  Si441  1  0.610718  0.756548  0.263181  1
  Si  Si442  1  0.756650  0.392704  0.262661  1
  Si  Si443  1  0.894496  0.500118  0.245923  1
  Si  Si444  1  0.608690  0.998013  0.196126  1
  Si  Si445  1  0.888541  0.888559  0.297427  1
  Si  Si446  1  -0.000000  0.499340  0.221319  1
  Si  Si447  1  0.111772  0.111476  0.297768  1
  Si  Si448  1  0.391138  0.001118  0.399095  1
  Si  Si449  1  0.240147  0.393754  0.332640  1
  Si  Si450  1  0.389257  0.756648  0.332206  1
  Si  Si451  1  0.390612  0.241748  0.332054  1
  Si  Si452  1  0.243553  0.607842  0.332470  1
  Si  Si453  1  0.001369  0.392508  0.398963  1
  Si  Si454  1  0.241723  0.760386  0.312236  1
  Si  Si455  1  0.001512  0.500192  0.373780  1
  Si  Si456  1  0.241334  0.238616  0.312156  1
  Si  Si457  1  0.106537  0.497619  0.349259  1
  Si  Si458  1  0.499965  -0.000000  0.373958  1
  Si  Si459  1  0.389104  0.388336  0.450364  1
  Si  Si460  1  0.388036  0.611735  0.450197  1
  Si  Si461  1  0.258107  0.107885  0.415394  1
  Si  Si462  1  0.108932  0.741763  0.415940  1
  Si  Si463  1  0.106315  0.258846  0.415469  1
  Si  Si464  1  0.258352  0.894117  0.415412  1
  Si  Si465  1  0.107840  0.741118  0.485403  1
  Si  Si466  1  0.258645  0.106963  0.485319  1
  Si  Si467  1  0.258489  0.892853  0.485332  1
  Si  Si468  1  0.107599  0.258283  0.485278  1
  Si  Si469  1  0.261010  0.739207  0.464977  1
  Si  Si470  1  0.261325  0.260574  0.464929  1
  Si  Si471  1  0.260698  0.261240  0.435786  1
  Si  Si472  1  0.259188  0.737450  0.435608  1
  Si  Si473  1  0.394104  0.758454  0.568277  1
  Si  Si474  1  0.240713  0.392361  0.568545  1
  Si  Si475  1  0.242395  0.607741  0.568307  1
  Si  Si476  1  0.393202  0.239168  0.568419  1
  Si  Si477  1  0.499929  -0.000000  0.527283  1
  Si  Si478  1  0.110758  0.499824  0.551950  1
  Si  Si479  1  0.497777  0.108279  0.551517  1
  Si  Si480  1  0.391319  0.000000  0.501719  1
  Si  Si481  1  0.110745  0.889557  0.602910  1
  Si  Si482  1  0.240073  0.761370  0.588668  1
  Si  Si483  1  0.242951  0.241851  0.588121  1
  Si  Si484  1  -0.000000  0.607929  0.501638  1
  Si  Si485  1  0.498255  0.891465  0.551559  1
  Si  Si486  1  0.998953  0.607309  0.399025  1
  Si  Si487  1  0.889597  0.110546  0.297842  1
  Si  Si488  1  0.605804  0.241407  0.332426  1
  Si  Si489  1  0.759170  0.608136  0.332245  1
  Si  Si490  1  0.757116  0.392358  0.332422  1
  Si  Si491  1  0.605288  0.758362  0.332559  1
  Si  Si492  1  0.608727  0.998803  0.399133  1
  Si  Si493  1  0.501482  0.107501  0.348919  1
  Si  Si494  1  0.889042  0.500082  0.348811  1
  Si  Si495  1  0.760161  0.238566  0.312090  1
  Si  Si496  1  0.760055  0.757525  0.312506  1
  Si  Si497  1  0.500673  0.892850  0.348984  1
  Si  Si498  1  0.612899  0.387601  0.450383  1
  Si  Si499  1  0.611042  0.610457  0.450208  1
  Si  Si500  1  0.891052  0.258255  0.415857  1
  Si  Si501  1  0.741775  0.891667  0.415401  1
  Si  Si502  1  0.741806  0.105500  0.415455  1
  Si  Si503  1  0.893710  0.740782  0.415538  1
  Si  Si504  1  0.739313  0.890645  0.485099  1
  Si  Si505  1  0.891173  0.260595  0.485022  1
  Si  Si506  1  0.893786  0.740836  0.485323  1
  Si  Si507  1  0.741090  0.106294  0.485313  1
  Si  Si508  1  0.739332  0.742506  0.465194  1
  Si  Si509  1  0.741853  0.263429  0.465225  1
  Si  Si510  1  0.741286  0.262009  0.435641  1
  Si  Si511  1  0.740046  0.739510  0.435997  1
  Si  Si512  1  -0.000000  0.390608  0.501574  1
  Si  Si513  1  0.758830  0.240002  0.588522  1
  Si  Si514  1  0.759158  0.761891  0.588693  1
  Si  Si515  1  0.756649  0.607219  0.568227  1
  Si  Si516  1  0.610674  0.243594  0.568547  1
  Si  Si517  1  0.610718  0.756548  0.568756  1
  Si  Si518  1  0.756650  0.392704  0.568236  1
  Si  Si519  1  0.894496  0.500118  0.551499  1
  Si  Si520  1  0.608690  0.998013  0.501701  1
  Si  Si521  1  0.888541  0.888559  0.603003  1
  Si  Si522  1  -0.000000  0.499340  0.526894  1
  Si  Si523  1  0.111772  0.111476  0.603344  1
  Si  Si524  1  0.391138  0.001118  0.704671  1
  Si  Si525  1  0.240147  0.393754  0.638215  1
  Si  Si526  1  0.389257  0.756648  0.637782  1
  Si  Si527  1  0.390612  0.241748  0.637629  1
  Si  Si528  1  0.243553  0.607842  0.638046  1
  Si  Si529  1  0.001369  0.392508  0.704539  1
  Si  Si530  1  0.241723  0.760386  0.617811  1
  Si  Si531  1  0.001512  0.500192  0.679356  1
  Si  Si532  1  0.241334  0.238616  0.617731  1
  Si  Si533  1  0.106537  0.497619  0.654835  1
  Si  Si534  1  0.499965  0.000000  0.679534  1
  Si  Si535  1  0.389104  0.388336  0.755939  1
  Si  Si536  1  0.388036  0.611735  0.755772  1
  Si  Si537  1  0.258107  0.107885  0.720969  1
  Si  Si538  1  0.108932  0.741763  0.721515  1
  Si  Si539  1  0.106315  0.258846  0.721045  1
  Si  Si540  1  0.258352  0.894117  0.720987  1
  Si  Si541  1  0.107840  0.741118  0.790978  1
  Si  Si542  1  0.258645  0.106963  0.790895  1
  Si  Si543  1  0.258489  0.892853  0.790907  1
  Si  Si544  1  0.107599  0.258283  0.790853  1
  Si  Si545  1  0.261010  0.739207  0.770553  1
  Si  Si546  1  0.261325  0.260574  0.770504  1
  Si  Si547  1  0.260698  0.261240  0.741361  1
  Si  Si548  1  0.259188  0.737450  0.741183  1
  Si  Si549  1  0.499929  -0.000000  0.832859  1
  Si  Si550  1  0.391319  0.000000  0.807295  1
  Si  Si551  1  -0.000000  0.607929  0.807214  1
  Si  Si552  1  0.998953  0.607309  0.704600  1
  Si  Si553  1  0.889597  0.110546  0.603418  1
  Si  Si554  1  0.605804  0.241407  0.638001  1
  Si  Si555  1  0.759170  0.608136  0.637820  1
  Si  Si556  1  0.757116  0.392358  0.637997  1
  Si  Si557  1  0.605288  0.758362  0.638135  1
  Si  Si558  1  0.608727  0.998803  0.704709  1
  Si  Si559  1  0.501482  0.107501  0.654495  1
  Si  Si560  1  0.889042  0.500082  0.654387  1
  Si  Si561  1  0.760161  0.238566  0.617666  1
  Si  Si562  1  0.760055  0.757525  0.618082  1
  Si  Si563  1  0.500673  0.892850  0.654560  1
  Si  Si564  1  0.612899  0.387601  0.755958  1
  Si  Si565  1  0.611042  0.610457  0.755783  1
  Si  Si566  1  0.891052  0.258255  0.721432  1
  Si  Si567  1  0.741775  0.891667  0.720977  1
  Si  Si568  1  0.741806  0.105500  0.721031  1
  Si  Si569  1  0.893710  0.740782  0.721113  1
  Si  Si570  1  0.739313  0.890645  0.790675  1
  Si  Si571  1  0.891173  0.260595  0.790598  1
  Si  Si572  1  0.893786  0.740836  0.790899  1
  Si  Si573  1  0.741090  0.106294  0.790888  1
  Si  Si574  1  0.739332  0.742506  0.770769  1
  Si  Si575  1  0.741853  0.263429  0.770801  1
  Si  Si576  1  0.741286  0.262009  0.741216  1
  Si  Si577  1  0.740046  0.739510  0.741573  1
  Si  Si578  1  -0.000000  0.390608  0.807150  1
  Si  Si579  1  0.608690  0.998013  0.807277  1
  Si  Si580  1  -0.000000  0.499340  0.832470  1
  H  H581  1  0.090989  0.499480  0.049949  1
  H  H582  1  0.499294  0.911717  0.049755  1
  H  H583  1  0.500575  0.088797  0.049709  1
  H  H584  1  0.911311  0.500276  0.049635  1
  H  H585  1  0.089348  0.499236  0.851095  1
  H  H586  1  0.499678  0.908827  0.850925  1
  H  H587  1  0.499827  0.090732  0.850892  1
  H  H588  1  0.910177  0.499740  0.850840  1
