# generated using pymatgen
data_Si29H2O59
_symmetry_space_group_name_H-M   'P 1'
_cell_length_a   13.67170804
_cell_length_b   13.69327883
_cell_length_c   69.95296081
_cell_angle_alpha   90.00000000
_cell_angle_beta   90.00000000
_cell_angle_gamma   90.00000000
_symmetry_Int_Tables_number   1
_chemical_formula_structural   Si29H2O59
_chemical_formula_sum   'Si116 H8 O236'
_cell_volume   13095.9294885
_cell_formula_units_Z   4
loop_
 _symmetry_equiv_pos_site_id
 _symmetry_equiv_pos_as_xyz
  1  'x, y, z'
loop_
 _atom_site_type_symbol
 _atom_site_label
 _atom_site_symmetry_multiplicity
 _atom_site_fract_x
 _atom_site_fract_y
 _atom_site_fract_z
 _atom_site_occupancy
  O  O1  1  0.411243  0.001173  0.112525  1
  O  O2  1  0.000000  0.588650  0.112484  1
  O  O3  1  0.090989  0.499480  0.084794  1
  O  O4  1  0.499294  0.911717  0.084515  1
  O  O5  1  -0.000000  0.411544  0.112417  1
  O  O6  1  0.000000  0.499365  0.274674  1
  O  O7  1  0.499882  0.000000  0.142356  1
  O  O8  1  0.369159  0.499967  0.208508  1
  O  O9  1  0.339904  0.660902  0.225888  1
  O  O10  1  0.340146  0.339157  0.226037  1
  O  O11  1  0.339783  0.339571  0.190956  1
  O  O12  1  0.338981  0.659525  0.190681  1
  O  O13  1  0.336000  0.091220  0.142563  1
  O  O14  1  0.088378  0.664127  0.143010  1
  O  O15  1  0.090436  0.336621  0.142565  1
  O  O16  1  0.335764  0.910907  0.142508  1
  O  O17  1  0.090968  0.663312  0.274526  1
  O  O18  1  0.336393  0.090004  0.274468  1
  O  O19  1  0.336025  0.909787  0.274523  1
  O  O20  1  0.089930  0.335442  0.274453  1
  O  O21  1  0.231453  0.000000  0.163883  1
  O  O22  1  0.000000  0.768503  0.164224  1
  O  O23  1  -0.000000  0.768305  0.253283  1
  O  O24  1  0.231548  0.000000  0.253202  1
  O  O25  1  0.294545  0.830253  0.241442  1
  O  O26  1  0.170678  0.294573  0.241467  1
  O  O27  1  0.170572  0.705103  0.241570  1
  O  O28  1  0.294807  0.169675  0.241443  1
  O  O29  1  0.169668  0.294959  0.175585  1
  O  O30  1  0.293504  0.829613  0.175423  1
  O  O31  1  0.294369  0.170613  0.175509  1
  O  O32  1  0.168739  0.702264  0.175926  1
  O  O33  1  0.166240  0.167403  0.151640  1
  O  O34  1  0.167211  0.833161  0.151950  1
  O  O35  1  0.167286  0.832774  0.265494  1
  O  O36  1  0.166949  0.166606  0.265361  1
  O  O37  1  0.232307  0.766197  0.208472  1
  O  O38  1  0.232956  0.232927  0.208491  1
  O  O39  1  -0.000000  0.499828  0.142203  1
  O  O40  1  0.499842  0.630753  0.208186  1
  O  O41  1  0.499998  0.998993  0.274831  1
  O  O42  1  0.001684  0.500361  0.362085  1
  O  O43  1  0.130779  -0.000000  0.428395  1
  O  O44  1  0.160842  0.840094  0.410861  1
  O  O45  1  0.162497  0.162664  0.411353  1
  O  O46  1  0.409277  0.835650  0.362510  1
  O  O47  1  0.164234  0.409188  0.362780  1
  O  O48  1  0.165337  0.590332  0.362639  1
  O  O49  1  0.408409  0.163096  0.362445  1
  O  O50  1  0.089348  0.499236  0.332663  1
  O  O51  1  0.000000  0.588130  0.304508  1
  O  O52  1  0.411172  0.000000  0.304709  1
  O  O53  1  0.499678  0.908827  0.332418  1
  O  O54  1  0.268578  0.500362  0.384110  1
  O  O55  1  0.498162  -0.000000  0.361763  1
  O  O56  1  0.206189  0.670623  0.395683  1
  O  O57  1  0.332056  0.202931  0.395668  1
  O  O58  1  0.330932  0.794855  0.395626  1
  O  O59  1  0.204408  0.331532  0.395856  1
  O  O60  1  0.334318  0.666860  0.371811  1
  O  O61  1  0.332708  0.331648  0.372162  1
  O  O62  1  0.269876  0.268142  0.428306  1
  O  O63  1  0.499827  0.090732  0.332371  1
  O  O64  1  0.588600  0.000000  0.112565  1
  O  O65  1  0.500575  0.088797  0.084448  1
  O  O66  1  0.911311  0.500276  0.084342  1
  O  O67  1  0.000000  0.232835  0.252981  1
  O  O68  1  0.631254  0.499389  0.208448  1
  O  O69  1  0.661205  0.661888  0.225701  1
  O  O70  1  0.661451  0.340387  0.226213  1
  O  O71  1  0.661042  0.339315  0.190896  1
  O  O72  1  0.661364  0.660122  0.190995  1
  O  O73  1  0.911755  0.335760  0.142871  1
  O  O74  1  0.663683  0.908553  0.142617  1
  O  O75  1  0.664022  0.088905  0.142630  1
  O  O76  1  0.909696  0.662720  0.142713  1
  O  O77  1  0.662917  0.907713  0.274479  1
  O  O78  1  0.908619  0.336810  0.274352  1
  O  O79  1  0.910434  0.662943  0.274403  1
  O  O80  1  0.663775  0.088452  0.274512  1
  O  O81  1  0.000000  0.231677  0.164189  1
  O  O82  1  0.768981  0.998587  0.163836  1
  O  O83  1  0.767169  0.998936  0.253052  1
  O  O84  1  0.830186  0.706824  0.241495  1
  O  O85  1  0.706820  0.171122  0.241578  1
  O  O86  1  0.701649  0.830945  0.241260  1
  O  O87  1  0.831497  0.299690  0.241289  1
  O  O88  1  0.707174  0.169447  0.175602  1
  O  O89  1  0.831028  0.705549  0.175852  1
  O  O90  1  0.831026  0.297723  0.175801  1
  O  O91  1  0.705855  0.829458  0.175626  1
  O  O92  1  0.832618  0.166751  0.151904  1
  O  O93  1  0.833416  0.831815  0.151640  1
  O  O94  1  0.832200  0.831620  0.265240  1
  O  O95  1  0.832365  0.167560  0.265107  1
  O  O96  1  0.767505  0.769333  0.208780  1
  O  O97  1  0.769385  0.235123  0.208614  1
  O  O98  1  0.500959  0.368455  0.208532  1
  O  O99  1  0.501218  0.268277  0.384173  1
  O  O100  1  0.731266  0.267426  0.428498  1
  O  O101  1  -0.000000  0.869239  0.428269  1
  O  O102  1  0.839011  0.840191  0.410909  1
  O  O103  1  0.838998  0.161521  0.411495  1
  O  O104  1  0.836548  0.588617  0.362667  1
  O  O105  1  0.588203  0.164606  0.362847  1
  O  O106  1  0.588617  0.835425  0.363055  1
  O  O107  1  0.836717  0.411582  0.362712  1
  O  O108  1  0.910177  0.499740  0.332296  1
  O  O109  1  0.588702  0.998784  0.304690  1
  O  O110  1  0.729492  0.499984  0.383899  1
  O  O111  1  0.501350  0.730812  0.384235  1
  O  O112  1  0.669380  0.796732  0.396145  1
  O  O113  1  0.792719  0.330315  0.395560  1
  O  O114  1  0.792431  0.670536  0.395571  1
  O  O115  1  0.670225  0.204071  0.395821  1
  O  O116  1  0.666846  0.666073  0.371549  1
  O  O117  1  0.666941  0.334225  0.371384  1
  O  O118  1  -0.000000  0.410643  0.304446  1
  O  O119  1  -0.000000  0.130914  0.428798  1
  O  O120  1  0.161540  0.160073  0.446181  1
  O  O121  1  0.161456  0.838767  0.445589  1
  O  O122  1  0.162179  0.408541  0.494661  1
  O  O123  1  0.410890  0.836190  0.494117  1
  O  O124  1  0.411620  0.163642  0.493991  1
  O  O125  1  0.163775  0.587375  0.494314  1
  O  O126  1  0.411243  0.001173  0.552567  1
  O  O127  1  -0.000000  0.588650  0.552525  1
  O  O128  1  0.090989  0.499480  0.524836  1
  O  O129  1  0.269201  0.500186  0.473270  1
  O  O130  1  0.498224  0.730339  0.473035  1
  O  O131  1  0.331145  0.202886  0.461049  1
  O  O132  1  0.207506  0.670155  0.461482  1
  O  O133  1  0.206256  0.330076  0.461513  1
  O  O134  1  0.330304  0.796207  0.461214  1
  O  O135  1  0.331353  0.332561  0.485222  1
  O  O136  1  0.332981  0.666153  0.485721  1
  O  O137  1  0.499294  0.911717  0.524556  1
  O  O138  1  0.498660  0.268701  0.472819  1
  O  O139  1  0.000000  0.411544  0.552458  1
  O  O140  1  0.269121  0.732763  0.428591  1
  O  O141  1  -0.000000  0.499365  0.714716  1
  O  O142  1  0.499882  -0.000000  0.582397  1
  O  O143  1  0.369159  0.499967  0.648549  1
  O  O144  1  0.339904  0.660902  0.665930  1
  O  O145  1  0.340146  0.339157  0.666078  1
  O  O146  1  0.339783  0.339571  0.630998  1
  O  O147  1  0.338981  0.659525  0.630723  1
  O  O148  1  0.336000  0.091220  0.582605  1
  O  O149  1  0.088378  0.664127  0.583051  1
  O  O150  1  0.090436  0.336621  0.582606  1
  O  O151  1  0.335764  0.910907  0.582549  1
  O  O152  1  0.090968  0.663312  0.714567  1
  O  O153  1  0.336393  0.090004  0.714510  1
  O  O154  1  0.336025  0.909787  0.714564  1
  O  O155  1  0.089930  0.335442  0.714494  1
  O  O156  1  0.231453  0.000000  0.603924  1
  O  O157  1  0.000000  0.768503  0.604265  1
  O  O158  1  -0.000000  0.768305  0.693324  1
  O  O159  1  0.231548  0.000000  0.693243  1
  O  O160  1  0.294545  0.830253  0.681483  1
  O  O161  1  0.170678  0.294573  0.681508  1
  O  O162  1  0.170572  0.705103  0.681611  1
  O  O163  1  0.294807  0.169675  0.681484  1
  O  O164  1  0.169668  0.294959  0.615627  1
  O  O165  1  0.293504  0.829613  0.615464  1
  O  O166  1  0.294369  0.170613  0.615550  1
  O  O167  1  0.168739  0.702264  0.615967  1
  O  O168  1  0.166240  0.167403  0.591682  1
  O  O169  1  0.167211  0.833161  0.591991  1
  O  O170  1  0.167286  0.832774  0.705536  1
  O  O171  1  0.166949  0.166606  0.705402  1
  O  O172  1  0.232307  0.766197  0.648513  1
  O  O173  1  0.232956  0.232927  0.648533  1
  O  O174  1  -0.000000  0.499828  0.582244  1
  O  O175  1  0.499842  0.630753  0.648227  1
  O  O176  1  0.499998  0.998993  0.714872  1
  O  O177  1  0.089348  0.499236  0.772704  1
  O  O178  1  -0.000000  0.588130  0.744550  1
  O  O179  1  0.411172  0.000000  0.744750  1
  O  O180  1  0.499678  0.908827  0.772460  1
  O  O181  1  0.499827  0.090732  0.772412  1
  O  O182  1  0.998352  0.498661  0.495011  1
  O  O183  1  0.839444  0.159897  0.446224  1
  O  O184  1  0.838642  0.837435  0.445768  1
  O  O185  1  0.590334  0.163833  0.494435  1
  O  O186  1  0.835792  0.590858  0.494340  1
  O  O187  1  0.834050  0.409768  0.494453  1
  O  O188  1  0.589549  0.836131  0.494587  1
  O  O189  1  0.588600  0.000000  0.552607  1
  O  O190  1  0.500575  0.088797  0.524490  1
  O  O191  1  0.911311  0.500276  0.524384  1
  O  O192  1  0.731427  0.499946  0.472949  1
  O  O193  1  0.793742  0.329392  0.461412  1
  O  O194  1  0.669315  0.793103  0.461659  1
  O  O195  1  0.669195  0.204997  0.461409  1
  O  O196  1  0.797075  0.668295  0.461266  1
  O  O197  1  0.665245  0.333192  0.485221  1
  O  O198  1  0.666558  0.667203  0.485215  1
  O  O199  1  0.869545  0.000000  0.428673  1
  O  O200  1  0.731827  0.731552  0.428849  1
  O  O201  1  0.501540  -0.000000  0.494802  1
  O  O202  1  -0.000000  0.232835  0.693022  1
  O  O203  1  0.631254  0.499389  0.648489  1
  O  O204  1  0.661205  0.661888  0.665743  1
  O  O205  1  0.661451  0.340387  0.666255  1
  O  O206  1  0.661042  0.339315  0.630937  1
  O  O207  1  0.661364  0.660122  0.631036  1
  O  O208  1  0.911755  0.335760  0.582912  1
  O  O209  1  0.663683  0.908553  0.582658  1
  O  O210  1  0.664022  0.088905  0.582671  1
  O  O211  1  0.909696  0.662720  0.582754  1
  O  O212  1  0.662917  0.907713  0.714520  1
  O  O213  1  0.908619  0.336810  0.714393  1
  O  O214  1  0.910434  0.662943  0.714444  1
  O  O215  1  0.663775  0.088452  0.714554  1
  O  O216  1  -0.000000  0.231677  0.604230  1
  O  O217  1  0.768981  0.998587  0.603877  1
  O  O218  1  0.767169  0.998936  0.693093  1
  O  O219  1  0.830186  0.706824  0.681536  1
  O  O220  1  0.706820  0.171122  0.681619  1
  O  O221  1  0.701649  0.830945  0.681302  1
  O  O222  1  0.831497  0.299690  0.681330  1
  O  O223  1  0.707174  0.169447  0.615644  1
  O  O224  1  0.831028  0.705549  0.615893  1
  O  O225  1  0.831026  0.297723  0.615842  1
  O  O226  1  0.705855  0.829458  0.615668  1
  O  O227  1  0.832618  0.166751  0.591945  1
  O  O228  1  0.833416  0.831815  0.591682  1
  O  O229  1  0.832200  0.831620  0.705282  1
  O  O230  1  0.832365  0.167560  0.705148  1
  O  O231  1  0.767505  0.769333  0.648821  1
  O  O232  1  0.769385  0.235123  0.648655  1
  O  O233  1  0.500959  0.368455  0.648574  1
  O  O234  1  0.910177  0.499740  0.772337  1
  O  O235  1  0.588702  0.998784  0.744732  1
  O  O236  1  -0.000000  0.410643  0.744488  1
  Si  Si237  1  0.391138  0.001118  0.134672  1
  Si  Si238  1  0.001369  0.392508  0.134482  1
  Si  Si239  1  0.001512  0.500192  0.098218  1
  Si  Si240  1  0.499965  -0.000000  0.098474  1
  Si  Si241  1  0.389104  0.388336  0.208501  1
  Si  Si242  1  0.388036  0.611735  0.208261  1
  Si  Si243  1  0.258107  0.107885  0.158143  1
  Si  Si244  1  0.108932  0.741763  0.158929  1
  Si  Si245  1  0.106315  0.258846  0.158252  1
  Si  Si246  1  0.258352  0.894117  0.158169  1
  Si  Si247  1  0.107840  0.741118  0.258959  1
  Si  Si248  1  0.258645  0.106963  0.258839  1
  Si  Si249  1  0.258489  0.892853  0.258857  1
  Si  Si250  1  0.107599  0.258283  0.258778  1
  Si  Si251  1  0.261010  0.739207  0.229545  1
  Si  Si252  1  0.261325  0.260574  0.229476  1
  Si  Si253  1  0.260698  0.261240  0.187508  1
  Si  Si254  1  0.259188  0.737450  0.187252  1
  Si  Si255  1  0.394104  0.758454  0.378301  1
  Si  Si256  1  0.240713  0.392361  0.378687  1
  Si  Si257  1  0.242395  0.607741  0.378344  1
  Si  Si258  1  0.393202  0.239168  0.378506  1
  Si  Si259  1  0.499929  0.000000  0.319269  1
  Si  Si260  1  0.110758  0.499824  0.354790  1
  Si  Si261  1  0.497777  0.108279  0.354165  1
  Si  Si262  1  0.391319  0.000000  0.282455  1
  Si  Si263  1  0.110745  0.889557  0.428174  1
  Si  Si264  1  0.240073  0.761370  0.407665  1
  Si  Si265  1  0.242951  0.241851  0.406877  1
  Si  Si266  1  0.000000  0.607929  0.282338  1
  Si  Si267  1  0.498255  0.891465  0.354226  1
  Si  Si268  1  0.998953  0.607309  0.134570  1
  Si  Si269  1  0.608727  0.998803  0.134727  1
  Si  Si270  1  0.612899  0.387601  0.208529  1
  Si  Si271  1  0.611042  0.610457  0.208276  1
  Si  Si272  1  0.891052  0.258255  0.158810  1
  Si  Si273  1  0.741775  0.891667  0.158154  1
  Si  Si274  1  0.741806  0.105500  0.158231  1
  Si  Si275  1  0.893710  0.740782  0.158350  1
  Si  Si276  1  0.739313  0.890645  0.258522  1
  Si  Si277  1  0.891173  0.260595  0.258410  1
  Si  Si278  1  0.893786  0.740836  0.258844  1
  Si  Si279  1  0.741090  0.106294  0.258829  1
  Si  Si280  1  0.739332  0.742506  0.229857  1
  Si  Si281  1  0.741853  0.263429  0.229902  1
  Si  Si282  1  0.741286  0.262009  0.187299  1
  Si  Si283  1  0.740046  0.739510  0.187812  1
  Si  Si284  1  -0.000000  0.390608  0.282246  1
  Si  Si285  1  0.758830  0.240002  0.407454  1
  Si  Si286  1  0.759158  0.761891  0.407700  1
  Si  Si287  1  0.756649  0.607219  0.378229  1
  Si  Si288  1  0.610674  0.243594  0.378689  1
  Si  Si289  1  0.610718  0.756548  0.378991  1
  Si  Si290  1  0.756650  0.392704  0.378243  1
  Si  Si291  1  0.894496  0.500118  0.354140  1
  Si  Si292  1  0.608690  0.998013  0.282429  1
  Si  Si293  1  0.888541  0.888559  0.428307  1
  Si  Si294  1  0.000000  0.499340  0.318708  1
  Si  Si295  1  0.111772  0.111476  0.428799  1
  Si  Si296  1  0.391138  0.001118  0.574714  1
  Si  Si297  1  0.240147  0.393754  0.479015  1
  Si  Si298  1  0.389257  0.756648  0.478391  1
  Si  Si299  1  0.390612  0.241748  0.478171  1
  Si  Si300  1  0.243553  0.607842  0.478771  1
  Si  Si301  1  0.001369  0.392508  0.574523  1
  Si  Si302  1  0.241723  0.760386  0.449632  1
  Si  Si303  1  0.001512  0.500192  0.538259  1
  Si  Si304  1  0.241334  0.238616  0.449517  1
  Si  Si305  1  0.106537  0.497619  0.502948  1
  Si  Si306  1  0.499965  0.000000  0.538516  1
  Si  Si307  1  0.389104  0.388336  0.648542  1
  Si  Si308  1  0.388036  0.611735  0.648302  1
  Si  Si309  1  0.258107  0.107885  0.598184  1
  Si  Si310  1  0.108932  0.741763  0.598970  1
  Si  Si311  1  0.106315  0.258846  0.598293  1
  Si  Si312  1  0.258352  0.894117  0.598210  1
  Si  Si313  1  0.107840  0.741118  0.699000  1
  Si  Si314  1  0.258645  0.106963  0.698880  1
  Si  Si315  1  0.258489  0.892853  0.698898  1
  Si  Si316  1  0.107599  0.258283  0.698820  1
  Si  Si317  1  0.261010  0.739207  0.669586  1
  Si  Si318  1  0.261325  0.260574  0.669517  1
  Si  Si319  1  0.260698  0.261240  0.627550  1
  Si  Si320  1  0.259188  0.737450  0.627293  1
  Si  Si321  1  0.499929  -0.000000  0.759310  1
  Si  Si322  1  0.391319  -0.000000  0.722497  1
  Si  Si323  1  -0.000000  0.607929  0.722380  1
  Si  Si324  1  0.998953  0.607309  0.574612  1
  Si  Si325  1  0.889597  0.110546  0.428905  1
  Si  Si326  1  0.605804  0.241407  0.478707  1
  Si  Si327  1  0.759170  0.608136  0.478446  1
  Si  Si328  1  0.757116  0.392358  0.478701  1
  Si  Si329  1  0.605288  0.758362  0.478899  1
  Si  Si330  1  0.608727  0.998803  0.574768  1
  Si  Si331  1  0.501482  0.107501  0.502458  1
  Si  Si332  1  0.889042  0.500082  0.502302  1
  Si  Si333  1  0.760161  0.238566  0.449423  1
  Si  Si334  1  0.760055  0.757525  0.450022  1
  Si  Si335  1  0.500673  0.892850  0.502552  1
  Si  Si336  1  0.612899  0.387601  0.648570  1
  Si  Si337  1  0.611042  0.610457  0.648317  1
  Si  Si338  1  0.891052  0.258255  0.598851  1
  Si  Si339  1  0.741775  0.891667  0.598195  1
  Si  Si340  1  0.741806  0.105500  0.598273  1
  Si  Si341  1  0.893710  0.740782  0.598391  1
  Si  Si342  1  0.739313  0.890645  0.698563  1
  Si  Si343  1  0.891173  0.260595  0.698452  1
  Si  Si344  1  0.893786  0.740836  0.698885  1
  Si  Si345  1  0.741090  0.106294  0.698871  1
  Si  Si346  1  0.739332  0.742506  0.669898  1
  Si  Si347  1  0.741853  0.263429  0.669943  1
  Si  Si348  1  0.741286  0.262009  0.627341  1
  Si  Si349  1  0.740046  0.739510  0.627854  1
  Si  Si350  1  -0.000000  0.390608  0.722288  1
  Si  Si351  1  0.608690  0.998013  0.722471  1
  Si  Si352  1  -0.000000  0.499340  0.758749  1
  H  H353  1  0.090989  0.499480  0.071929  1
  H  H354  1  0.499294  0.911717  0.071649  1
  H  H355  1  0.500575  0.088797  0.071583  1
  H  H356  1  0.911311  0.500276  0.071477  1
  H  H357  1  0.089348  0.499236  0.785570  1
  H  H358  1  0.499678  0.908827  0.785326  1
  H  H359  1  0.499827  0.090732  0.785278  1
  H  H360  1  0.910177  0.499740  0.785203  1
