# generated using pymatgen
data_Si9H2O19
_symmetry_space_group_name_H-M   'P 1'
_cell_length_a   7.64718820
_cell_length_b   22.22500582
_cell_length_c   80.23992674
_cell_angle_alpha   30.02314985
_cell_angle_beta   90.00000000
_cell_angle_gamma   90.00000000
_symmetry_Int_Tables_number   1
_chemical_formula_structural   Si9H2O19
_chemical_formula_sum   'Si36 H8 O76'
_cell_volume   6823.51225282
_cell_formula_units_Z   4
loop_
 _symmetry_equiv_pos_site_id
 _symmetry_equiv_pos_as_xyz
  1  'x, y, z'
loop_
 _atom_site_type_symbol
 _atom_site_label
 _atom_site_symmetry_multiplicity
 _atom_site_fract_x
 _atom_site_fract_y
 _atom_site_fract_z
 _atom_site_occupancy
  O  O1  1  0.781524  0.098000  0.245115  1
  O  O2  1  0.221580  0.097819  0.245169  1
  O  O3  1  0.759253  0.238145  0.236749  1
  O  O4  1  0.243468  0.238091  0.236763  1
  O  O5  1  0.668715  0.023357  0.235413  1
  O  O6  1  0.334258  0.023374  0.235400  1
  O  O7  1  0.668669  0.308064  0.189884  1
  O  O8  1  0.334253  0.307860  0.189961  1
  O  O9  1  0.001428  0.264903  0.208606  1
  O  O10  1  0.501450  0.219803  0.186710  1
  O  O11  1  0.668499  0.307784  0.250150  1
  O  O12  1  0.334105  0.307774  0.250152  1
  O  O13  1  0.001394  0.264860  0.252065  1
  O  O14  1  0.501434  0.077904  0.195256  1
  O  O15  1  0.500929  0.450116  0.135755  1
  O  O16  1  0.502187  0.450013  0.236089  1
  O  O17  1  0.001457  0.992659  0.252117  1
  O  O18  1  0.781524  0.098000  0.404919  1
  O  O19  1  0.221580  0.097819  0.404972  1
  O  O20  1  0.759253  0.238145  0.396553  1
  O  O21  1  0.243468  0.238091  0.396567  1
  O  O22  1  0.668715  0.023357  0.395217  1
  O  O23  1  0.334258  0.023374  0.395203  1
  O  O24  1  0.668669  0.308064  0.349687  1
  O  O25  1  0.334253  0.307860  0.349764  1
  O  O26  1  0.001428  0.264903  0.368410  1
  O  O27  1  0.501450  0.219803  0.346514  1
  O  O28  1  0.781623  0.097832  0.295583  1
  O  O29  1  0.221786  0.097714  0.295611  1
  O  O30  1  0.668499  0.307784  0.409953  1
  O  O31  1  0.334105  0.307774  0.409955  1
  O  O32  1  0.668650  0.023266  0.341074  1
  O  O33  1  0.334130  0.023262  0.341077  1
  O  O34  1  0.001394  0.264860  0.411868  1
  O  O35  1  0.501438  0.219714  0.295604  1
  O  O36  1  0.501434  0.077904  0.355059  1
  O  O37  1  0.500929  0.450116  0.295559  1
  O  O38  1  0.502187  0.450013  0.395893  1
  O  O39  1  0.759545  0.870003  0.295571  1
  O  O40  1  0.243693  0.869870  0.295597  1
  O  O41  1  0.001457  0.992659  0.411920  1
  O  O42  1  0.781518  0.782386  0.345987  1
  O  O43  1  0.221653  0.782245  0.346024  1
  O  O44  1  0.759516  0.869724  0.354482  1
  O  O45  1  0.243610  0.869756  0.354478  1
  O  O46  1  0.669006  0.646608  0.401245  1
  O  O47  1  0.334532  0.646601  0.401250  1
  O  O48  1  0.668887  0.646851  0.355742  1
  O  O49  1  0.334459  0.646673  0.355775  1
  O  O50  1  0.001801  0.720506  0.382555  1
  O  O51  1  0.001571  0.992653  0.339055  1
  O  O52  1  0.501705  0.538261  0.404478  1
  O  O53  1  0.001661  0.720611  0.339042  1
  O  O54  1  0.781623  0.097832  0.455387  1
  O  O55  1  0.221786  0.097714  0.455415  1
  O  O56  1  0.668650  0.023266  0.500878  1
  O  O57  1  0.334130  0.023262  0.500881  1
  O  O58  1  0.501438  0.219714  0.455407  1
  O  O59  1  0.501434  0.077904  0.514863  1
  O  O60  1  0.500929  0.450116  0.455363  1
  O  O61  1  0.502187  0.450013  0.555696  1
  O  O62  1  0.759545  0.870003  0.455375  1
  O  O63  1  0.243693  0.869870  0.455401  1
  O  O64  1  0.781518  0.782386  0.505791  1
  O  O65  1  0.221653  0.782245  0.505827  1
  O  O66  1  0.759516  0.869724  0.514286  1
  O  O67  1  0.243610  0.869756  0.514282  1
  O  O68  1  0.669006  0.646608  0.561049  1
  O  O69  1  0.334532  0.646601  0.561054  1
  O  O70  1  0.668887  0.646851  0.515545  1
  O  O71  1  0.334459  0.646673  0.515578  1
  O  O72  1  0.001801  0.720506  0.542359  1
  O  O73  1  0.001571  0.992653  0.498858  1
  O  O74  1  0.501705  0.538261  0.564282  1
  O  O75  1  0.001661  0.720611  0.498845  1
  O  O76  1  0.500929  0.450116  0.615166  1
  Si  Si77  1  0.501319  0.325256  0.174527  1
  Si  Si78  1  0.201733  0.232546  0.218864  1
  Si  Si79  1  0.801054  0.232735  0.218814  1
  Si  Si80  1  0.501525  0.085118  0.212910  1
  Si  Si81  1  0.501347  0.325097  0.257236  1
  Si  Si82  1  0.801084  0.232574  0.257313  1
  Si  Si83  1  0.201695  0.232495  0.257331  1
  Si  Si84  1  0.801170  0.993099  0.257120  1
  Si  Si85  1  0.201844  0.992973  0.257145  1
  Si  Si86  1  0.501319  0.325256  0.334331  1
  Si  Si87  1  0.201733  0.232546  0.378668  1
  Si  Si88  1  0.801054  0.232735  0.378617  1
  Si  Si89  1  0.501525  0.085118  0.372714  1
  Si  Si90  1  0.501388  0.084988  0.333976  1
  Si  Si91  1  0.501347  0.325097  0.417040  1
  Si  Si92  1  0.801084  0.232574  0.417117  1
  Si  Si93  1  0.201695  0.232495  0.417134  1
  Si  Si94  1  0.801170  0.993099  0.416923  1
  Si  Si95  1  0.201844  0.992973  0.416949  1
  Si  Si96  1  0.801440  0.752283  0.372345  1
  Si  Si97  1  0.202086  0.752265  0.372355  1
  Si  Si98  1  0.201816  0.992873  0.333898  1
  Si  Si99  1  0.501767  0.567701  0.378236  1
  Si  Si100  1  0.801097  0.992869  0.333903  1
  Si  Si101  1  0.501722  0.567660  0.416618  1
  Si  Si102  1  0.801345  0.752439  0.334019  1
  Si  Si103  1  0.202008  0.752300  0.334053  1
  Si  Si104  1  0.501388  0.084988  0.493780  1
  Si  Si105  1  0.801440  0.752283  0.532149  1
  Si  Si106  1  0.202086  0.752265  0.532159  1
  Si  Si107  1  0.201816  0.992873  0.493702  1
  Si  Si108  1  0.501767  0.567701  0.538040  1
  Si  Si109  1  0.801097  0.992869  0.493707  1
  Si  Si110  1  0.501722  0.567660  0.576421  1
  Si  Si111  1  0.801345  0.752439  0.493823  1
  Si  Si112  1  0.202008  0.752300  0.493857  1
  H  H113  1  0.501434  0.077904  0.184039  1
  H  H114  1  0.500929  0.450116  0.124539  1
  H  H115  1  0.502187  0.450013  0.224873  1
  H  H116  1  0.500929  0.450116  0.284343  1
  H  H117  1  0.501434  0.077904  0.526079  1
  H  H118  1  0.500929  0.450116  0.466579  1
  H  H119  1  0.502187  0.450013  0.566913  1
  H  H120  1  0.500929  0.450116  0.626383  1
