# generated using pymatgen
data_Si5H2O11
_symmetry_space_group_name_H-M   'P 1'
_cell_length_a   10.15581638
_cell_length_b   7.43612829
_cell_length_c   37.56488830
_cell_angle_alpha   90.00000000
_cell_angle_beta   120.00000000
_cell_angle_gamma   90.00000000
_symmetry_Int_Tables_number   1
_chemical_formula_structural   Si5H2O11
_chemical_formula_sum   'Si10 H4 O22'
_cell_volume   2456.8262708
_cell_formula_units_Z   2
loop_
 _symmetry_equiv_pos_site_id
 _symmetry_equiv_pos_as_xyz
  1  'x, y, z'
loop_
 _atom_site_type_symbol
 _atom_site_label
 _atom_site_symmetry_multiplicity
 _atom_site_fract_x
 _atom_site_fract_y
 _atom_site_fract_z
 _atom_site_occupancy
  O  O1  1  0.528238  0.045975  0.179255  1
  O  O2  1  0.365204  0.290565  0.177653  1
  O  O3  1  0.668532  0.831461  0.298154  1
  O  O4  1  0.648660  0.499563  0.298104  1
  O  O5  1  0.660633  0.163562  0.303841  1
  O  O6  1  0.335117  0.834661  0.398302  1
  O  O7  1  0.330284  0.165588  0.389866  1
  O  O8  1  0.350611  0.498953  0.395623  1
  O  O9  1  0.371521  0.714695  0.342883  1
  O  O10  1  0.109797  0.382714  0.376271  1
  O  O11  1  0.528238  0.045975  0.454395  1
  O  O12  1  0.468386  0.954899  0.308650  1
  O  O13  1  0.631080  0.288665  0.239820  1
  O  O14  1  0.890977  0.615669  0.345494  1
  O  O15  1  0.635320  0.710580  0.351677  1
  O  O16  1  0.884234  0.361170  0.305736  1
  O  O17  1  0.473784  0.042143  0.238853  1
  O  O18  1  0.525234  0.958247  0.383313  1
  O  O19  1  0.365204  0.290565  0.452792  1
  O  O20  1  0.117300  0.638540  0.337825  1
  O  O21  1  0.631080  0.288665  0.514959  1
  O  O22  1  0.473784  0.042143  0.513992  1
  Si  Si23  1  0.556546  0.994590  0.285692  1
  Si  Si24  1  0.718954  0.664889  0.327205  1
  Si  Si25  1  0.709601  0.326406  0.286366  1
  Si  Si26  1  0.288968  0.674303  0.368080  1
  Si  Si27  1  0.439376  -0.000000  0.407275  1
  Si  Si28  1  0.280664  0.332165  0.405454  1
  Si  Si29  1  0.500350  0.167274  0.209343  1
  Si  Si30  1  0.502922  0.837029  0.346519  1
  Si  Si31  1  0.003522  0.498725  0.338115  1
  Si  Si32  1  0.500350  0.167274  0.484482  1
  H  H33  1  0.528238  0.045975  0.155297  1
  H  H34  1  0.365204  0.290565  0.153694  1
  H  H35  1  0.631080  0.288665  0.538918  1
  H  H36  1  0.473784  0.042143  0.537951  1
