# generated using pymatgen
data_Si9H2O19
_symmetry_space_group_name_H-M   'P 1'
_cell_length_a   13.67170804
_cell_length_b   13.69327883
_cell_length_c   35.25135854
_cell_angle_alpha   90.00000000
_cell_angle_beta   90.00000000
_cell_angle_gamma   90.00000000
_symmetry_Int_Tables_number   1
_chemical_formula_structural   Si9H2O19
_chemical_formula_sum   'Si36 H8 O76'
_cell_volume   6599.42482005
_cell_formula_units_Z   4
loop_
 _symmetry_equiv_pos_site_id
 _symmetry_equiv_pos_as_xyz
  1  'x, y, z'
loop_
 _atom_site_type_symbol
 _atom_site_label
 _atom_site_symmetry_multiplicity
 _atom_site_fract_x
 _atom_site_fract_y
 _atom_site_fract_z
 _atom_site_occupancy
  O  O1  1  0.411243  0.001173  0.167584  1
  O  O2  1  -0.000000  0.588650  0.167502  1
  O  O3  1  -0.000000  0.411544  0.167369  1
  O  O4  1  0.000000  0.499365  0.489354  1
  O  O5  1  0.499882  -0.000000  0.226780  1
  O  O6  1  0.369159  0.499967  0.358053  1
  O  O7  1  0.339904  0.660902  0.392542  1
  O  O8  1  0.340146  0.339157  0.392838  1
  O  O9  1  0.339783  0.339571  0.323224  1
  O  O10  1  0.338981  0.659525  0.322678  1
  O  O11  1  0.336000  0.091220  0.227192  1
  O  O12  1  0.088378  0.664127  0.228077  1
  O  O13  1  0.090436  0.336621  0.227195  1
  O  O14  1  0.335764  0.910907  0.227081  1
  O  O15  1  0.090968  0.663312  0.489059  1
  O  O16  1  0.336393  0.090004  0.488945  1
  O  O17  1  0.336025  0.909787  0.489053  1
  O  O18  1  0.089930  0.335442  0.488914  1
  O  O19  1  0.231453  -0.000000  0.269499  1
  O  O20  1  0.000000  0.768503  0.270175  1
  O  O21  1  -0.000000  0.768305  0.446905  1
  O  O22  1  0.231548  -0.000000  0.446744  1
  O  O23  1  0.294545  0.830253  0.423407  1
  O  O24  1  0.170678  0.294573  0.423456  1
  O  O25  1  0.170572  0.705103  0.423660  1
  O  O26  1  0.294807  0.169675  0.423409  1
  O  O27  1  0.169668  0.294959  0.292721  1
  O  O28  1  0.293504  0.829613  0.292399  1
  O  O29  1  0.294369  0.170613  0.292569  1
  O  O30  1  0.168739  0.702264  0.293396  1
  O  O31  1  0.166240  0.167403  0.245204  1
  O  O32  1  0.167211  0.833161  0.245819  1
  O  O33  1  0.167286  0.832774  0.471137  1
  O  O34  1  0.166949  0.166606  0.470872  1
  O  O35  1  0.232307  0.766197  0.357981  1
  O  O36  1  0.232956  0.232927  0.358020  1
  O  O37  1  -0.000000  0.499828  0.226476  1
  O  O38  1  0.499842  0.630753  0.357414  1
  O  O39  1  0.499998  0.998993  0.489664  1
  O  O40  1  -0.000000  0.588130  0.548556  1
  O  O41  1  0.411172  -0.000000  0.548954  1
  O  O42  1  0.588600  -0.000000  0.167664  1
  O  O43  1  -0.000000  0.232835  0.446305  1
  O  O44  1  0.631254  0.499389  0.357933  1
  O  O45  1  0.661205  0.661888  0.392171  1
  O  O46  1  0.661451  0.340387  0.393188  1
  O  O47  1  0.661042  0.339315  0.323103  1
  O  O48  1  0.661364  0.660122  0.323299  1
  O  O49  1  0.911755  0.335760  0.227802  1
  O  O50  1  0.663683  0.908553  0.227299  1
  O  O51  1  0.664022  0.088905  0.227324  1
  O  O52  1  0.909696  0.662720  0.227488  1
  O  O53  1  0.662917  0.907713  0.488966  1
  O  O54  1  0.908619  0.336810  0.488714  1
  O  O55  1  0.910434  0.662943  0.488815  1
  O  O56  1  0.663775  0.088452  0.489032  1
  O  O57  1  0.000000  0.231677  0.270106  1
  O  O58  1  0.768981  0.998587  0.269405  1
  O  O59  1  0.767169  0.998936  0.446446  1
  O  O60  1  0.830186  0.706824  0.423512  1
  O  O61  1  0.706820  0.171122  0.423677  1
  O  O62  1  0.701649  0.830945  0.423047  1
  O  O63  1  0.831497  0.299690  0.423103  1
  O  O64  1  0.707174  0.169447  0.292754  1
  O  O65  1  0.831028  0.705549  0.293250  1
  O  O66  1  0.831026  0.297723  0.293148  1
  O  O67  1  0.705855  0.829458  0.292802  1
  O  O68  1  0.832618  0.166751  0.245727  1
  O  O69  1  0.833416  0.831815  0.245204  1
  O  O70  1  0.832200  0.831620  0.470633  1
  O  O71  1  0.832365  0.167560  0.470368  1
  O  O72  1  0.767505  0.769333  0.358592  1
  O  O73  1  0.769385  0.235123  0.358262  1
  O  O74  1  0.500959  0.368455  0.358101  1
  O  O75  1  0.588702  0.998784  0.548918  1
  O  O76  1  -0.000000  0.410643  0.548433  1
  Si  Si77  1  0.391138  0.001118  0.211533  1
  Si  Si78  1  0.001369  0.392508  0.211155  1
  Si  Si79  1  0.389104  0.388336  0.358039  1
  Si  Si80  1  0.388036  0.611735  0.357562  1
  Si  Si81  1  0.258107  0.107885  0.258107  1
  Si  Si82  1  0.108932  0.741763  0.259668  1
  Si  Si83  1  0.106315  0.258846  0.258324  1
  Si  Si84  1  0.258352  0.894117  0.258159  1
  Si  Si85  1  0.107840  0.741118  0.458167  1
  Si  Si86  1  0.258645  0.106963  0.457929  1
  Si  Si87  1  0.258489  0.892853  0.457965  1
  Si  Si88  1  0.107599  0.258283  0.457809  1
  Si  Si89  1  0.261010  0.739207  0.399799  1
  Si  Si90  1  0.261325  0.260574  0.399661  1
  Si  Si91  1  0.260698  0.261240  0.316381  1
  Si  Si92  1  0.259188  0.737450  0.315872  1
  Si  Si93  1  0.391319  0.000000  0.504794  1
  Si  Si94  1  -0.000000  0.607929  0.504562  1
  Si  Si95  1  0.998953  0.607309  0.211331  1
  Si  Si96  1  0.608727  0.998803  0.211641  1
  Si  Si97  1  0.612899  0.387601  0.358094  1
  Si  Si98  1  0.611042  0.610457  0.357593  1
  Si  Si99  1  0.891052  0.258255  0.259431  1
  Si  Si100  1  0.741775  0.891667  0.258129  1
  Si  Si101  1  0.741806  0.105500  0.258284  1
  Si  Si102  1  0.893710  0.740782  0.258519  1
  Si  Si103  1  0.739313  0.890645  0.457300  1
  Si  Si104  1  0.891173  0.260595  0.457079  1
  Si  Si105  1  0.893786  0.740836  0.457940  1
  Si  Si106  1  0.741090  0.106294  0.457911  1
  Si  Si107  1  0.739332  0.742506  0.400417  1
  Si  Si108  1  0.741853  0.263429  0.400507  1
  Si  Si109  1  0.741286  0.262009  0.315966  1
  Si  Si110  1  0.740046  0.739510  0.316984  1
  Si  Si111  1  0.000000  0.390608  0.504379  1
  Si  Si112  1  0.608690  0.998013  0.504742  1
  H  H113  1  0.411243  0.001173  0.142053  1
  H  H114  1  -0.000000  0.588650  0.141971  1
  H  H115  1  -0.000000  0.411544  0.141839  1
  H  H116  1  0.000000  0.588130  0.574087  1
  H  H117  1  0.411172  0.000000  0.574484  1
  H  H118  1  0.588600  0.000000  0.142133  1
  H  H119  1  0.588702  0.998784  0.574449  1
  H  H120  1  -0.000000  0.410643  0.573964  1
