# generated using pymatgen
data_Si8H2O17
_symmetry_space_group_name_H-M   'P 1'
_cell_length_a   14.42862184
_cell_length_b   7.12517291
_cell_length_c   30.64066881
_cell_angle_alpha   90.00000000
_cell_angle_beta   90.00000000
_cell_angle_gamma   90.00000000
_symmetry_Int_Tables_number   1
_chemical_formula_structural   Si8H2O17
_chemical_formula_sum   'Si16 H4 O34'
_cell_volume   3150.0576337
_cell_formula_units_Z   2
loop_
 _symmetry_equiv_pos_site_id
 _symmetry_equiv_pos_as_xyz
  1  'x, y, z'
loop_
 _atom_site_type_symbol
 _atom_site_label
 _atom_site_symmetry_multiplicity
 _atom_site_fract_x
 _atom_site_fract_y
 _atom_site_fract_z
 _atom_site_occupancy
  O  O1  1  0.000000  0.504611  0.192623  1
  O  O2  1  0.499141  0.495566  0.192555  1
  O  O3  1  0.080943  0.325231  0.257318  1
  O  O4  1  0.419750  0.324383  0.257892  1
  O  O5  1  0.080272  0.675231  0.257883  1
  O  O6  1  0.419123  0.674388  0.257407  1
  O  O7  1  0.919657  0.675217  0.415852  1
  O  O8  1  0.581032  0.674388  0.416425  1
  O  O9  1  0.918996  0.325233  0.416416  1
  O  O10  1  0.580416  0.324394  0.415947  1
  O  O11  1  0.119582  -0.000000  0.295430  1
  O  O12  1  0.380384  0.000000  0.295439  1
  O  O13  1  0.880406  0.000000  0.378295  1
  O  O14  1  0.619565  0.000000  0.378305  1
  O  O15  1  0.129973  0.324194  0.336096  1
  O  O16  1  0.369970  0.323296  0.336415  1
  O  O17  1  0.129982  0.676284  0.336440  1
  O  O18  1  0.369949  0.675421  0.336127  1
  O  O19  1  0.870029  0.676278  0.337279  1
  O  O20  1  0.629911  0.675399  0.337596  1
  O  O21  1  0.870041  0.324186  0.337622  1
  O  O22  1  0.629892  0.323338  0.337314  1
  O  O23  1  0.250192  0.235540  0.280530  1
  O  O24  1  0.249776  0.764052  0.280552  1
  O  O25  1  0.750193  0.764075  0.393140  1
  O  O26  1  0.749785  0.235515  0.393165  1
  O  O27  1  0.071635  0.498706  0.405313  1
  O  O28  1  0.428508  0.500731  0.405221  1
  O  O29  1  0.928281  0.498702  0.268373  1
  O  O30  1  0.571850  0.500700  0.268287  1
  O  O31  1  0.249993  0.499708  0.380825  1
  O  O32  1  0.749991  0.499699  0.292932  1
  O  O33  1  -0.000000  0.504611  0.481082  1
  O  O34  1  0.499141  0.495566  0.481014  1
  Si  Si35  1  0.143418  0.216214  0.291420  1
  Si  Si36  1  0.356819  0.215381  0.291703  1
  Si  Si37  1  0.143145  0.784221  0.291724  1
  Si  Si38  1  0.356548  0.783394  0.291452  1
  Si  Si39  1  0.856824  0.784214  0.381991  1
  Si  Si40  1  0.643416  0.783393  0.382273  1
  Si  Si41  1  0.856557  0.216208  0.382295  1
  Si  Si42  1  0.643150  0.215395  0.382028  1
  Si  Si43  1  0.143829  0.499637  0.367149  1
  Si  Si44  1  0.356150  0.499860  0.367145  1
  Si  Si45  1  0.856149  0.499630  0.306574  1
  Si  Si46  1  0.643826  0.499858  0.306572  1
  Si  Si47  1  0.021674  0.500285  0.242320  1
  Si  Si48  1  0.478322  0.499375  0.242330  1
  Si  Si49  1  0.978283  0.500282  0.431392  1
  Si  Si50  1  0.521718  0.499383  0.431401  1
  H  H51  1  0.000000  0.504611  0.163250  1
  H  H52  1  0.499141  0.495566  0.163182  1
  H  H53  1  -0.000000  0.504611  0.510455  1
  H  H54  1  0.499141  0.495566  0.510386  1
