# generated using pymatgen
data_Si10H2O21
_symmetry_space_group_name_H-M   'P 1'
_cell_length_a   5.10321483
_cell_length_b   25.89467084
_cell_length_c   54.57691799
_cell_angle_alpha   45.00281648
_cell_angle_beta   90.00000000
_cell_angle_gamma   90.00000000
_symmetry_Int_Tables_number   1
_chemical_formula_structural   Si10H2O21
_chemical_formula_sum   'Si40 H8 O84'
_cell_volume   5099.99326611
_cell_formula_units_Z   4
loop_
 _symmetry_equiv_pos_site_id
 _symmetry_equiv_pos_as_xyz
  1  'x, y, z'
loop_
 _atom_site_type_symbol
 _atom_site_label
 _atom_site_symmetry_multiplicity
 _atom_site_fract_x
 _atom_site_fract_y
 _atom_site_fract_z
 _atom_site_occupancy
  O  O1  1  0.504962  0.202847  0.234393  1
  O  O2  1  0.002846  0.702838  0.234407  1
  O  O3  1  0.004242  0.297295  0.370424  1
  O  O4  1  0.501862  0.797318  0.171027  1
  O  O5  1  0.004522  0.297238  0.171019  1
  O  O6  1  0.260001  0.320137  0.202104  1
  O  O7  1  0.751602  0.819103  0.202844  1
  O  O8  1  0.244867  0.820279  0.324074  1
  O  O9  1  0.752467  0.319316  0.323994  1
  O  O10  1  0.251303  0.680973  0.202587  1
  O  O11  1  0.751978  0.181152  0.202474  1
  O  O12  1  0.251991  0.180394  0.202985  1
  O  O13  1  0.751293  0.680751  0.202826  1
  O  O14  1  0.252480  0.319173  0.323977  1
  O  O15  1  0.744860  0.818202  0.324060  1
  O  O16  1  0.251591  0.819508  0.202599  1
  O  O17  1  0.760005  0.318461  0.203262  1
  O  O18  1  0.502825  0.258455  0.259307  1
  O  O19  1  0.003683  0.758397  0.259354  1
  O  O20  1  0.502138  0.927167  0.308261  1
  O  O21  1  0.002202  0.427187  0.308172  1
  O  O22  1  0.503313  0.741751  0.146083  1
  O  O23  1  0.003598  0.241552  0.146121  1
  O  O24  1  0.504854  0.072903  0.259365  1
  O  O25  1  0.002062  0.572923  0.259313  1
  O  O26  1  0.501743  0.258388  0.308201  1
  O  O27  1  0.002646  0.758491  0.308224  1
  O  O28  1  0.502974  0.927217  0.146086  1
  O  O29  1  0.003162  0.427173  0.146046  1
  O  O30  1  0.697650  0.155482  0.318381  1
  O  O31  1  0.199792  0.655669  0.318398  1
  O  O32  1  0.698653  -0.000000  0.318483  1
  O  O33  1  0.198530  0.499998  0.318231  1
  O  O34  1  0.200634  0.176193  0.311218  1
  O  O35  1  0.702834  0.676019  0.311356  1
  O  O36  1  0.201683  0.000000  0.311173  1
  O  O37  1  0.701652  0.499995  0.311427  1
  O  O38  1  -0.000000  0.068729  0.324394  1
  O  O39  1  0.499416  0.569130  0.324129  1
  O  O40  1  0.504962  0.202847  0.569872  1
  O  O41  1  0.002846  0.702838  0.569885  1
  O  O42  1  0.501666  0.797210  0.370507  1
  O  O43  1  0.501862  0.797318  0.506505  1
  O  O44  1  0.004522  0.297238  0.506498  1
  O  O45  1  0.503751  0.202800  0.370444  1
  O  O46  1  0.001758  0.702830  0.370482  1
  O  O47  1  0.260001  0.320137  0.537583  1
  O  O48  1  0.751602  0.819103  0.538323  1
  O  O49  1  0.251303  0.680973  0.538066  1
  O  O50  1  0.751978  0.181152  0.537953  1
  O  O51  1  0.257222  0.181218  0.416904  1
  O  O52  1  0.755797  0.681297  0.416917  1
  O  O53  1  0.255788  0.680246  0.416959  1
  O  O54  1  0.757243  0.180483  0.416857  1
  O  O55  1  0.251991  0.180394  0.538464  1
  O  O56  1  0.751293  0.680751  0.538305  1
  O  O57  1  0.251591  0.819508  0.538078  1
  O  O58  1  0.760005  0.318461  0.538741  1
  O  O59  1  0.502825  0.258455  0.594786  1
  O  O60  1  0.003683  0.758397  0.594833  1
  O  O61  1  0.503313  0.741751  0.481562  1
  O  O62  1  0.003598  0.241552  0.481600  1
  O  O63  1  0.505061  0.072912  0.432686  1
  O  O64  1  0.002373  0.572878  0.432674  1
  O  O65  1  0.503880  0.741674  0.432718  1
  O  O66  1  0.003881  0.241740  0.432651  1
  O  O67  1  0.504854  0.072903  0.594844  1
  O  O68  1  0.002062  0.572923  0.594792  1
  O  O69  1  0.502974  0.927217  0.481564  1
  O  O70  1  0.003162  0.427173  0.481524  1
  O  O71  1  0.806042  0.823881  0.429673  1
  O  O72  1  0.199711  0.344456  0.422771  1
  O  O73  1  0.805705  0.000000  0.429728  1
  O  O74  1  0.305423  0.500174  0.429537  1
  O  O75  1  0.309101  0.844705  0.422507  1
  O  O76  1  0.702786  0.324037  0.429467  1
  O  O77  1  0.308690  0.000000  0.422458  1
  O  O78  1  0.808332  0.500006  0.422525  1
  O  O79  1  0.004219  0.930385  0.370459  1
  O  O80  1  0.499636  0.430966  0.370499  1
  O  O81  1  0.007586  0.931385  0.416533  1
  O  O82  1  0.503147  0.430784  0.416979  1
  O  O83  1  0.002879  0.069744  0.370460  1
  O  O84  1  0.503558  0.569290  0.370491  1
  Si  Si85  1  0.506990  0.275853  0.225263  1
  Si  Si86  1  0.002249  0.775821  0.225298  1
  Si  Si87  1  0.498486  0.843072  0.330646  1
  Si  Si88  1  0.002819  0.343084  0.330568  1
  Si  Si89  1  0.501923  0.724342  0.180131  1
  Si  Si90  1  0.003287  0.224228  0.180152  1
  Si  Si91  1  0.503359  0.156983  0.225301  1
  Si  Si92  1  0.001909  0.657028  0.225285  1
  Si  Si93  1  0.502762  0.275765  0.330582  1
  Si  Si94  1  0.998516  0.775819  0.330629  1
  Si  Si95  1  0.502200  0.843136  0.180143  1
  Si  Si96  1  0.007022  0.343100  0.180111  1
  Si  Si97  1  0.974318  0.118856  0.330682  1
  Si  Si98  1  0.476064  0.618854  0.330672  1
  Si  Si99  1  0.975340  0.000000  0.330688  1
  Si  Si100  1  0.474730  0.500023  0.330585  1
  Si  Si101  1  0.474822  0.214026  0.298635  1
  Si  Si102  1  0.976574  0.714069  0.298678  1
  Si  Si103  1  0.475912  -0.000000  0.298678  1
  Si  Si104  1  0.975330  0.500025  0.298638  1
  Si  Si105  1  0.506990  0.275853  0.560741  1
  Si  Si106  1  0.002249  0.775821  0.560777  1
  Si  Si107  1  0.501923  0.724342  0.515610  1
  Si  Si108  1  0.003287  0.224228  0.515631  1
  Si  Si109  1  0.505845  0.157009  0.410299  1
  Si  Si110  1  0.004051  0.656948  0.410345  1
  Si  Si111  1  0.504092  0.724226  0.410362  1
  Si  Si112  1  0.005793  0.224329  0.410285  1
  Si  Si113  1  0.503359  0.156983  0.560780  1
  Si  Si114  1  0.001909  0.657028  0.560763  1
  Si  Si115  1  0.502200  0.843136  0.515622  1
  Si  Si116  1  0.007022  0.343100  0.515590  1
  Si  Si117  1  0.032319  0.881257  0.410242  1
  Si  Si118  1  0.476049  0.381229  0.410403  1
  Si  Si119  1  0.031973  0.000000  0.410230  1
  Si  Si120  1  0.531279  0.500056  0.410287  1
  Si  Si121  1  0.531697  0.786097  0.442248  1
  Si  Si122  1  0.976622  0.286023  0.442253  1
  Si  Si123  1  0.531471  -0.000000  0.442245  1
  Si  Si124  1  0.030798  0.500064  0.442199  1
  H  H125  1  0.503313  0.741751  0.129592  1
  H  H126  1  0.003598  0.241552  0.129631  1
  H  H127  1  0.502974  0.927217  0.129595  1
  H  H128  1  0.003162  0.427173  0.129555  1
  H  H129  1  0.502825  0.258455  0.611276  1
  H  H130  1  0.003683  0.758397  0.611324  1
  H  H131  1  0.504854  0.072903  0.611335  1
  H  H132  1  0.002062  0.572923  0.611282  1
