# generated using pymatgen
data_Si47H2O95
_symmetry_space_group_name_H-M   'P 1'
_cell_length_a   13.67170804
_cell_length_b   13.69327883
_cell_length_c   96.81575338
_cell_angle_alpha   90.00000000
_cell_angle_beta   90.00000000
_cell_angle_gamma   90.00000000
_symmetry_Int_Tables_number   1
_chemical_formula_structural   Si47H2O95
_chemical_formula_sum   'Si188 H8 O380'
_cell_volume   18124.9265928
_cell_formula_units_Z   4
loop_
 _symmetry_equiv_pos_site_id
 _symmetry_equiv_pos_as_xyz
  1  'x, y, z'
loop_
 _atom_site_type_symbol
 _atom_site_label
 _atom_site_symmetry_multiplicity
 _atom_site_fract_x
 _atom_site_fract_y
 _atom_site_fract_z
 _atom_site_occupancy
  O  O1  1  0.411243  0.001173  0.061019  1
  O  O2  1  0.000000  0.588650  0.060989  1
  O  O3  1  0.000000  0.411544  0.060940  1
  O  O4  1  0.000000  0.499365  0.178177  1
  O  O5  1  0.499882  -0.000000  0.082572  1
  O  O6  1  0.369159  0.499967  0.130370  1
  O  O7  1  0.339904  0.660902  0.142928  1
  O  O8  1  0.340146  0.339157  0.143035  1
  O  O9  1  0.339783  0.339571  0.117688  1
  O  O10  1  0.338981  0.659525  0.117489  1
  O  O11  1  0.336000  0.091220  0.082722  1
  O  O12  1  0.088378  0.664127  0.083045  1
  O  O13  1  0.090436  0.336621  0.082723  1
  O  O14  1  0.335764  0.910907  0.082682  1
  O  O15  1  0.090968  0.663312  0.178070  1
  O  O16  1  0.336393  0.090004  0.178029  1
  O  O17  1  0.336025  0.909787  0.178068  1
  O  O18  1  0.089930  0.335442  0.178017  1
  O  O19  1  0.231453  -0.000000  0.098127  1
  O  O20  1  0.000000  0.768503  0.098373  1
  O  O21  1  0.000000  0.768305  0.162721  1
  O  O22  1  0.231548  0.000000  0.162663  1
  O  O23  1  0.294545  0.830253  0.154166  1
  O  O24  1  0.170678  0.294573  0.154184  1
  O  O25  1  0.170572  0.705103  0.154258  1
  O  O26  1  0.294807  0.169675  0.154166  1
  O  O27  1  0.169668  0.294959  0.106582  1
  O  O28  1  0.293504  0.829613  0.106465  1
  O  O29  1  0.294369  0.170613  0.106527  1
  O  O30  1  0.168739  0.702264  0.106828  1
  O  O31  1  0.166240  0.167403  0.089281  1
  O  O32  1  0.167211  0.833161  0.089504  1
  O  O33  1  0.167286  0.832774  0.171544  1
  O  O34  1  0.166949  0.166606  0.171448  1
  O  O35  1  0.232307  0.766197  0.130344  1
  O  O36  1  0.232956  0.232927  0.130358  1
  O  O37  1  -0.000000  0.499828  0.082462  1
  O  O38  1  0.499842  0.630753  0.130137  1
  O  O39  1  0.499998  0.998993  0.178290  1
  O  O40  1  0.001684  0.500361  0.241335  1
  O  O41  1  0.130779  0.000000  0.289246  1
  O  O42  1  0.160842  0.840094  0.276578  1
  O  O43  1  0.162497  0.162664  0.276933  1
  O  O44  1  0.409277  0.835650  0.241642  1
  O  O45  1  0.164234  0.409188  0.241837  1
  O  O46  1  0.165337  0.590332  0.241735  1
  O  O47  1  0.408409  0.163096  0.241595  1
  O  O48  1  0.089348  0.499236  0.220076  1
  O  O49  1  0.000000  0.588130  0.199734  1
  O  O50  1  0.411172  -0.000000  0.199878  1
  O  O51  1  0.499678  0.908827  0.219900  1
  O  O52  1  0.268578  0.500362  0.257248  1
  O  O53  1  0.498162  0.000000  0.241102  1
  O  O54  1  0.206189  0.670623  0.265611  1
  O  O55  1  0.332056  0.202931  0.265600  1
  O  O56  1  0.330932  0.794855  0.265569  1
  O  O57  1  0.204408  0.331532  0.265735  1
  O  O58  1  0.334318  0.666860  0.248362  1
  O  O59  1  0.332708  0.331648  0.248616  1
  O  O60  1  0.269876  0.268142  0.289182  1
  O  O61  1  0.499827  0.090732  0.219865  1
  O  O62  1  0.588600  0.000000  0.061048  1
  O  O63  1  0.000000  0.232835  0.162503  1
  O  O64  1  0.631254  0.499389  0.130326  1
  O  O65  1  0.661205  0.661888  0.142793  1
  O  O66  1  0.661451  0.340387  0.143163  1
  O  O67  1  0.661042  0.339315  0.117644  1
  O  O68  1  0.661364  0.660122  0.117716  1
  O  O69  1  0.911755  0.335760  0.082945  1
  O  O70  1  0.663683  0.908553  0.082761  1
  O  O71  1  0.664022  0.088905  0.082770  1
  O  O72  1  0.909696  0.662720  0.082830  1
  O  O73  1  0.662917  0.907713  0.178036  1
  O  O74  1  0.908619  0.336810  0.177944  1
  O  O75  1  0.910434  0.662943  0.177981  1
  O  O76  1  0.663775  0.088452  0.178060  1
  O  O77  1  0.000000  0.231677  0.098347  1
  O  O78  1  0.768981  0.998587  0.098093  1
  O  O79  1  0.767169  0.998936  0.162555  1
  O  O80  1  0.830186  0.706824  0.154204  1
  O  O81  1  0.706820  0.171122  0.154264  1
  O  O82  1  0.701649  0.830945  0.154034  1
  O  O83  1  0.831497  0.299690  0.154055  1
  O  O84  1  0.707174  0.169447  0.106594  1
  O  O85  1  0.831028  0.705549  0.106775  1
  O  O86  1  0.831026  0.297723  0.106737  1
  O  O87  1  0.705855  0.829458  0.106612  1
  O  O88  1  0.832618  0.166751  0.089471  1
  O  O89  1  0.833416  0.831815  0.089281  1
  O  O90  1  0.832200  0.831620  0.171361  1
  O  O91  1  0.832365  0.167560  0.171265  1
  O  O92  1  0.767505  0.769333  0.130566  1
  O  O93  1  0.769385  0.235123  0.130446  1
  O  O94  1  0.500959  0.368455  0.130387  1
  O  O95  1  0.501218  0.268277  0.257294  1
  O  O96  1  0.731266  0.267426  0.289321  1
  O  O97  1  -0.000000  0.869239  0.289155  1
  O  O98  1  0.839011  0.840191  0.276612  1
  O  O99  1  0.838998  0.161521  0.277035  1
  O  O100  1  0.836548  0.588617  0.241756  1
  O  O101  1  0.588203  0.164606  0.241885  1
  O  O102  1  0.588617  0.835425  0.242036  1
  O  O103  1  0.836717  0.411582  0.241788  1
  O  O104  1  0.910177  0.499740  0.219811  1
  O  O105  1  0.588702  0.998784  0.199865  1
  O  O106  1  0.729492  0.499984  0.257096  1
  O  O107  1  0.501350  0.730812  0.257339  1
  O  O108  1  0.669380  0.796732  0.265944  1
  O  O109  1  0.792719  0.330315  0.265522  1
  O  O110  1  0.792431  0.670536  0.265530  1
  O  O111  1  0.670225  0.204071  0.265711  1
  O  O112  1  0.666846  0.666073  0.248173  1
  O  O113  1  0.666941  0.334225  0.248054  1
  O  O114  1  -0.000000  0.410643  0.199689  1
  O  O115  1  -0.000000  0.130914  0.289538  1
  O  O116  1  0.161540  0.160073  0.302097  1
  O  O117  1  0.161456  0.838767  0.301670  1
  O  O118  1  0.162179  0.408541  0.337126  1
  O  O119  1  0.410890  0.836190  0.336733  1
  O  O120  1  0.411620  0.163642  0.336641  1
  O  O121  1  0.163775  0.587375  0.336875  1
  O  O122  1  0.411243  0.001173  0.378965  1
  O  O123  1  -0.000000  0.588650  0.378935  1
  O  O124  1  0.090989  0.499480  0.358928  1
  O  O125  1  0.269201  0.500186  0.321670  1
  O  O126  1  0.498224  0.730339  0.321501  1
  O  O127  1  0.331145  0.202886  0.312840  1
  O  O128  1  0.207506  0.670155  0.313153  1
  O  O129  1  0.206256  0.330076  0.313175  1
  O  O130  1  0.330304  0.796207  0.312959  1
  O  O131  1  0.331353  0.332561  0.330306  1
  O  O132  1  0.332981  0.666153  0.330667  1
  O  O133  1  0.499294  0.911717  0.358726  1
  O  O134  1  0.498660  0.268701  0.321344  1
  O  O135  1  0.000000  0.411544  0.378887  1
  O  O136  1  0.269121  0.732763  0.289388  1
  O  O137  1  0.000000  0.499365  0.496124  1
  O  O138  1  0.499882  -0.000000  0.400518  1
  O  O139  1  0.369159  0.499967  0.448316  1
  O  O140  1  0.339904  0.660902  0.460874  1
  O  O141  1  0.340146  0.339157  0.460981  1
  O  O142  1  0.339783  0.339571  0.435634  1
  O  O143  1  0.338981  0.659525  0.435436  1
  O  O144  1  0.336000  0.091220  0.400669  1
  O  O145  1  0.088378  0.664127  0.400991  1
  O  O146  1  0.090436  0.336621  0.400669  1
  O  O147  1  0.335764  0.910907  0.400628  1
  O  O148  1  0.090968  0.663312  0.496016  1
  O  O149  1  0.336393  0.090004  0.495975  1
  O  O150  1  0.336025  0.909787  0.496014  1
  O  O151  1  0.089930  0.335442  0.495963  1
  O  O152  1  0.231453  0.000000  0.416073  1
  O  O153  1  0.000000  0.768503  0.416319  1
  O  O154  1  -0.000000  0.768305  0.480668  1
  O  O155  1  0.231548  -0.000000  0.480609  1
  O  O156  1  0.294545  0.830253  0.472112  1
  O  O157  1  0.170678  0.294573  0.472130  1
  O  O158  1  0.170572  0.705103  0.472204  1
  O  O159  1  0.294807  0.169675  0.472113  1
  O  O160  1  0.169668  0.294959  0.424528  1
  O  O161  1  0.293504  0.829613  0.424411  1
  O  O162  1  0.294369  0.170613  0.424473  1
  O  O163  1  0.168739  0.702264  0.424774  1
  O  O164  1  0.166240  0.167403  0.407227  1
  O  O165  1  0.167211  0.833161  0.407451  1
  O  O166  1  0.167286  0.832774  0.489491  1
  O  O167  1  0.166949  0.166606  0.489394  1
  O  O168  1  0.232307  0.766197  0.448290  1
  O  O169  1  0.232956  0.232927  0.448304  1
  O  O170  1  0.000000  0.499828  0.400408  1
  O  O171  1  0.499842  0.630753  0.448083  1
  O  O172  1  0.499998  0.998993  0.496236  1
  O  O173  1  0.001684  0.500361  0.559281  1
  O  O174  1  0.130779  0.000000  0.607192  1
  O  O175  1  0.160842  0.840094  0.594524  1
  O  O176  1  0.162497  0.162664  0.594879  1
  O  O177  1  0.409277  0.835650  0.559588  1
  O  O178  1  0.164234  0.409188  0.559783  1
  O  O179  1  0.165337  0.590332  0.559681  1
  O  O180  1  0.408409  0.163096  0.559541  1
  O  O181  1  0.089348  0.499236  0.538023  1
  O  O182  1  0.000000  0.588130  0.517680  1
  O  O183  1  0.411172  -0.000000  0.517824  1
  O  O184  1  0.499678  0.908827  0.537846  1
  O  O185  1  0.268578  0.500362  0.575195  1
  O  O186  1  0.498162  0.000000  0.559048  1
  O  O187  1  0.206189  0.670623  0.583557  1
  O  O188  1  0.332056  0.202931  0.583546  1
  O  O189  1  0.330932  0.794855  0.583516  1
  O  O190  1  0.204408  0.331532  0.583682  1
  O  O191  1  0.334318  0.666860  0.566309  1
  O  O192  1  0.332708  0.331648  0.566562  1
  O  O193  1  0.269876  0.268142  0.607128  1
  O  O194  1  0.499827  0.090732  0.537811  1
  O  O195  1  0.998352  0.498661  0.337379  1
  O  O196  1  0.839444  0.159897  0.302128  1
  O  O197  1  0.838642  0.837435  0.301799  1
  O  O198  1  0.590334  0.163833  0.336962  1
  O  O199  1  0.835792  0.590858  0.336894  1
  O  O200  1  0.834050  0.409768  0.336976  1
  O  O201  1  0.589549  0.836131  0.337073  1
  O  O202  1  0.588600  -0.000000  0.378994  1
  O  O203  1  0.500575  0.088797  0.358678  1
  O  O204  1  0.911311  0.500276  0.358602  1
  O  O205  1  0.731427  0.499946  0.321438  1
  O  O206  1  0.793742  0.329392  0.313102  1
  O  O207  1  0.669315  0.793103  0.313280  1
  O  O208  1  0.669195  0.204997  0.313100  1
  O  O209  1  0.797075  0.668295  0.312996  1
  O  O210  1  0.665245  0.333192  0.330305  1
  O  O211  1  0.666558  0.667203  0.330301  1
  O  O212  1  0.869545  -0.000000  0.289447  1
  O  O213  1  0.731827  0.731552  0.289574  1
  O  O214  1  0.501540  -0.000000  0.337228  1
  O  O215  1  -0.000000  0.232835  0.480449  1
  O  O216  1  0.631254  0.499389  0.448272  1
  O  O217  1  0.661205  0.661888  0.460739  1
  O  O218  1  0.661451  0.340387  0.461109  1
  O  O219  1  0.661042  0.339315  0.435590  1
  O  O220  1  0.661364  0.660122  0.435662  1
  O  O221  1  0.911755  0.335760  0.400891  1
  O  O222  1  0.663683  0.908553  0.400707  1
  O  O223  1  0.664022  0.088905  0.400717  1
  O  O224  1  0.909696  0.662720  0.400776  1
  O  O225  1  0.662917  0.907713  0.495982  1
  O  O226  1  0.908619  0.336810  0.495891  1
  O  O227  1  0.910434  0.662943  0.495927  1
  O  O228  1  0.663775  0.088452  0.496007  1
  O  O229  1  0.000000  0.231677  0.416294  1
  O  O230  1  0.768981  0.998587  0.416039  1
  O  O231  1  0.767169  0.998936  0.480501  1
  O  O232  1  0.830186  0.706824  0.472150  1
  O  O233  1  0.706820  0.171122  0.472210  1
  O  O234  1  0.701649  0.830945  0.471981  1
  O  O235  1  0.831497  0.299690  0.472001  1
  O  O236  1  0.707174  0.169447  0.424540  1
  O  O237  1  0.831028  0.705549  0.424721  1
  O  O238  1  0.831026  0.297723  0.424684  1
  O  O239  1  0.705855  0.829458  0.424558  1
  O  O240  1  0.832618  0.166751  0.407417  1
  O  O241  1  0.833416  0.831815  0.407227  1
  O  O242  1  0.832200  0.831620  0.489307  1
  O  O243  1  0.832365  0.167560  0.489211  1
  O  O244  1  0.767505  0.769333  0.448512  1
  O  O245  1  0.769385  0.235123  0.448392  1
  O  O246  1  0.500959  0.368455  0.448333  1
  O  O247  1  0.501218  0.268277  0.575240  1
  O  O248  1  0.731266  0.267426  0.607267  1
  O  O249  1  -0.000000  0.869239  0.607101  1
  O  O250  1  0.839011  0.840191  0.594558  1
  O  O251  1  0.838998  0.161521  0.594981  1
  O  O252  1  0.836548  0.588617  0.559702  1
  O  O253  1  0.588203  0.164606  0.559831  1
  O  O254  1  0.588617  0.835425  0.559982  1
  O  O255  1  0.836717  0.411582  0.559734  1
  O  O256  1  0.910177  0.499740  0.537757  1
  O  O257  1  0.588702  0.998784  0.517811  1
  O  O258  1  0.729492  0.499984  0.575043  1
  O  O259  1  0.501350  0.730812  0.575285  1
  O  O260  1  0.669380  0.796732  0.583890  1
  O  O261  1  0.792719  0.330315  0.583468  1
  O  O262  1  0.792431  0.670536  0.583476  1
  O  O263  1  0.670225  0.204071  0.583657  1
  O  O264  1  0.666846  0.666073  0.566119  1
  O  O265  1  0.666941  0.334225  0.566000  1
  O  O266  1  -0.000000  0.410643  0.517635  1
  O  O267  1  -0.000000  0.130914  0.607484  1
  O  O268  1  0.161540  0.160073  0.620043  1
  O  O269  1  0.161456  0.838767  0.619616  1
  O  O270  1  0.162179  0.408541  0.655072  1
  O  O271  1  0.410890  0.836190  0.654679  1
  O  O272  1  0.411620  0.163642  0.654588  1
  O  O273  1  0.163775  0.587375  0.654821  1
  O  O274  1  0.411243  0.001173  0.696911  1
  O  O275  1  0.000000  0.588650  0.696881  1
  O  O276  1  0.090989  0.499480  0.676874  1
  O  O277  1  0.269201  0.500186  0.639616  1
  O  O278  1  0.498224  0.730339  0.639447  1
  O  O279  1  0.331145  0.202886  0.630786  1
  O  O280  1  0.207506  0.670155  0.631099  1
  O  O281  1  0.206256  0.330076  0.631121  1
  O  O282  1  0.330304  0.796207  0.630905  1
  O  O283  1  0.331353  0.332561  0.648252  1
  O  O284  1  0.332981  0.666153  0.648613  1
  O  O285  1  0.499294  0.911717  0.676672  1
  O  O286  1  0.498660  0.268701  0.639290  1
  O  O287  1  -0.000000  0.411544  0.696833  1
  O  O288  1  0.269121  0.732763  0.607334  1
  O  O289  1  -0.000000  0.499365  0.814070  1
  O  O290  1  0.499882  -0.000000  0.718465  1
  O  O291  1  0.369159  0.499967  0.766262  1
  O  O292  1  0.339904  0.660902  0.778820  1
  O  O293  1  0.340146  0.339157  0.778927  1
  O  O294  1  0.339783  0.339571  0.753580  1
  O  O295  1  0.338981  0.659525  0.753382  1
  O  O296  1  0.336000  0.091220  0.718615  1
  O  O297  1  0.088378  0.664127  0.718937  1
  O  O298  1  0.090436  0.336621  0.718616  1
  O  O299  1  0.335764  0.910907  0.718574  1
  O  O300  1  0.090968  0.663312  0.813962  1
  O  O301  1  0.336393  0.090004  0.813921  1
  O  O302  1  0.336025  0.909787  0.813960  1
  O  O303  1  0.089930  0.335442  0.813910  1
  O  O304  1  0.231453  -0.000000  0.734019  1
  O  O305  1  -0.000000  0.768503  0.734265  1
  O  O306  1  0.000000  0.768305  0.798614  1
  O  O307  1  0.231548  -0.000000  0.798555  1
  O  O308  1  0.294545  0.830253  0.790058  1
  O  O309  1  0.170678  0.294573  0.790076  1
  O  O310  1  0.170572  0.705103  0.790150  1
  O  O311  1  0.294807  0.169675  0.790059  1
  O  O312  1  0.169668  0.294959  0.742474  1
  O  O313  1  0.293504  0.829613  0.742357  1
  O  O314  1  0.294369  0.170613  0.742419  1
  O  O315  1  0.168739  0.702264  0.742720  1
  O  O316  1  0.166240  0.167403  0.725173  1
  O  O317  1  0.167211  0.833161  0.725397  1
  O  O318  1  0.167286  0.832774  0.807437  1
  O  O319  1  0.166949  0.166606  0.807340  1
  O  O320  1  0.232307  0.766197  0.766236  1
  O  O321  1  0.232956  0.232927  0.766250  1
  O  O322  1  -0.000000  0.499828  0.718354  1
  O  O323  1  0.499842  0.630753  0.766029  1
  O  O324  1  0.499998  0.998993  0.814183  1
  O  O325  1  -0.000000  0.588130  0.835626  1
  O  O326  1  0.411172  -0.000000  0.835771  1
  O  O327  1  0.998352  0.498661  0.655325  1
  O  O328  1  0.839444  0.159897  0.620075  1
  O  O329  1  0.838642  0.837435  0.619745  1
  O  O330  1  0.590334  0.163833  0.654908  1
  O  O331  1  0.835792  0.590858  0.654840  1
  O  O332  1  0.834050  0.409768  0.654922  1
  O  O333  1  0.589549  0.836131  0.655019  1
  O  O334  1  0.588600  0.000000  0.696940  1
  O  O335  1  0.500575  0.088797  0.676624  1
  O  O336  1  0.911311  0.500276  0.676548  1
  O  O337  1  0.731427  0.499946  0.639384  1
  O  O338  1  0.793742  0.329392  0.631048  1
  O  O339  1  0.669315  0.793103  0.631227  1
  O  O340  1  0.669195  0.204997  0.631047  1
  O  O341  1  0.797075  0.668295  0.630943  1
  O  O342  1  0.665245  0.333192  0.648251  1
  O  O343  1  0.666558  0.667203  0.648247  1
  O  O344  1  0.869545  0.000000  0.607393  1
  O  O345  1  0.731827  0.731552  0.607520  1
  O  O346  1  0.501540  -0.000000  0.655174  1
  O  O347  1  -0.000000  0.232835  0.798395  1
  O  O348  1  0.631254  0.499389  0.766219  1
  O  O349  1  0.661205  0.661888  0.778685  1
  O  O350  1  0.661451  0.340387  0.779055  1
  O  O351  1  0.661042  0.339315  0.753537  1
  O  O352  1  0.661364  0.660122  0.753608  1
  O  O353  1  0.911755  0.335760  0.718837  1
  O  O354  1  0.663683  0.908553  0.718653  1
  O  O355  1  0.664022  0.088905  0.718663  1
  O  O356  1  0.909696  0.662720  0.718722  1
  O  O357  1  0.662917  0.907713  0.813929  1
  O  O358  1  0.908619  0.336810  0.813837  1
  O  O359  1  0.910434  0.662943  0.813874  1
  O  O360  1  0.663775  0.088452  0.813953  1
  O  O361  1  0.000000  0.231677  0.734240  1
  O  O362  1  0.768981  0.998587  0.733985  1
  O  O363  1  0.767169  0.998936  0.798447  1
  O  O364  1  0.830186  0.706824  0.790096  1
  O  O365  1  0.706820  0.171122  0.790156  1
  O  O366  1  0.701649  0.830945  0.789927  1
  O  O367  1  0.831497  0.299690  0.789947  1
  O  O368  1  0.707174  0.169447  0.742486  1
  O  O369  1  0.831028  0.705549  0.742667  1
  O  O370  1  0.831026  0.297723  0.742630  1
  O  O371  1  0.705855  0.829458  0.742504  1
  O  O372  1  0.832618  0.166751  0.725363  1
  O  O373  1  0.833416  0.831815  0.725173  1
  O  O374  1  0.832200  0.831620  0.807253  1
  O  O375  1  0.832365  0.167560  0.807157  1
  O  O376  1  0.767505  0.769333  0.766459  1
  O  O377  1  0.769385  0.235123  0.766338  1
  O  O378  1  0.500959  0.368455  0.766280  1
  O  O379  1  0.588702  0.998784  0.835757  1
  O  O380  1  -0.000000  0.410643  0.835581  1
  Si  Si381  1  0.391138  0.001118  0.077021  1
  Si  Si382  1  0.001369  0.392508  0.076883  1
  Si  Si383  1  0.389104  0.388336  0.130365  1
  Si  Si384  1  0.388036  0.611735  0.130191  1
  Si  Si385  1  0.258107  0.107885  0.093979  1
  Si  Si386  1  0.108932  0.741763  0.094547  1
  Si  Si387  1  0.106315  0.258846  0.094058  1
  Si  Si388  1  0.258352  0.894117  0.093998  1
  Si  Si389  1  0.107840  0.741118  0.166822  1
  Si  Si390  1  0.258645  0.106963  0.166735  1
  Si  Si391  1  0.258489  0.892853  0.166749  1
  Si  Si392  1  0.107599  0.258283  0.166692  1
  Si  Si393  1  0.261010  0.739207  0.145570  1
  Si  Si394  1  0.261325  0.260574  0.145520  1
  Si  Si395  1  0.260698  0.261240  0.115197  1
  Si  Si396  1  0.259188  0.737450  0.115011  1
  Si  Si397  1  0.394104  0.758454  0.253051  1
  Si  Si398  1  0.240713  0.392361  0.253330  1
  Si  Si399  1  0.242395  0.607741  0.253082  1
  Si  Si400  1  0.393202  0.239168  0.253199  1
  Si  Si401  1  0.499929  0.000000  0.210398  1
  Si  Si402  1  0.110758  0.499824  0.236064  1
  Si  Si403  1  0.497777  0.108279  0.235612  1
  Si  Si404  1  0.391319  -0.000000  0.183799  1
  Si  Si405  1  0.110745  0.889557  0.289087  1
  Si  Si406  1  0.240073  0.761370  0.274268  1
  Si  Si407  1  0.242951  0.241851  0.273699  1
  Si  Si408  1  -0.000000  0.607929  0.183715  1
  Si  Si409  1  0.498255  0.891465  0.235657  1
  Si  Si410  1  0.998953  0.607309  0.076947  1
  Si  Si411  1  0.608727  0.998803  0.077060  1
  Si  Si412  1  0.612899  0.387601  0.130385  1
  Si  Si413  1  0.611042  0.610457  0.130202  1
  Si  Si414  1  0.891052  0.258255  0.094461  1
  Si  Si415  1  0.741775  0.891667  0.093987  1
  Si  Si416  1  0.741806  0.105500  0.094043  1
  Si  Si417  1  0.893710  0.740782  0.094129  1
  Si  Si418  1  0.739313  0.890645  0.166507  1
  Si  Si419  1  0.891173  0.260595  0.166426  1
  Si  Si420  1  0.893786  0.740836  0.166739  1
  Si  Si421  1  0.741090  0.106294  0.166729  1
  Si  Si422  1  0.739332  0.742506  0.145795  1
  Si  Si423  1  0.741853  0.263429  0.145828  1
  Si  Si424  1  0.741286  0.262009  0.115046  1
  Si  Si425  1  0.740046  0.739510  0.115416  1
  Si  Si426  1  -0.000000  0.390608  0.183648  1
  Si  Si427  1  0.758830  0.240002  0.274116  1
  Si  Si428  1  0.759158  0.761891  0.274293  1
  Si  Si429  1  0.756649  0.607219  0.253000  1
  Si  Si430  1  0.610674  0.243594  0.253332  1
  Si  Si431  1  0.610718  0.756548  0.253550  1
  Si  Si432  1  0.756650  0.392704  0.253009  1
  Si  Si433  1  0.894496  0.500118  0.235594  1
  Si  Si434  1  0.608690  0.998013  0.183781  1
  Si  Si435  1  0.888541  0.888559  0.289183  1
  Si  Si436  1  0.000000  0.499340  0.209993  1
  Si  Si437  1  0.111772  0.111476  0.289538  1
  Si  Si438  1  0.391138  0.001118  0.394967  1
  Si  Si439  1  0.240147  0.393754  0.325821  1
  Si  Si440  1  0.389257  0.756648  0.325370  1
  Si  Si441  1  0.390612  0.241748  0.325211  1
  Si  Si442  1  0.243553  0.607842  0.325645  1
  Si  Si443  1  0.001369  0.392508  0.394829  1
  Si  Si444  1  0.241723  0.760386  0.304591  1
  Si  Si445  1  0.001512  0.500192  0.368627  1
  Si  Si446  1  0.241334  0.238616  0.304508  1
  Si  Si447  1  0.106537  0.497619  0.343114  1
  Si  Si448  1  0.499965  0.000000  0.368813  1
  Si  Si449  1  0.389104  0.388336  0.448311  1
  Si  Si450  1  0.388036  0.611735  0.448137  1
  Si  Si451  1  0.258107  0.107885  0.411925  1
  Si  Si452  1  0.108932  0.741763  0.412493  1
  Si  Si453  1  0.106315  0.258846  0.412004  1
  Si  Si454  1  0.258352  0.894117  0.411944  1
  Si  Si455  1  0.107840  0.741118  0.484768  1
  Si  Si456  1  0.258645  0.106963  0.484682  1
  Si  Si457  1  0.258489  0.892853  0.484695  1
  Si  Si458  1  0.107599  0.258283  0.484638  1
  Si  Si459  1  0.261010  0.739207  0.463516  1
  Si  Si460  1  0.261325  0.260574  0.463466  1
  Si  Si461  1  0.260698  0.261240  0.433143  1
  Si  Si462  1  0.259188  0.737450  0.432958  1
  Si  Si463  1  0.394104  0.758454  0.570997  1
  Si  Si464  1  0.240713  0.392361  0.571277  1
  Si  Si465  1  0.242395  0.607741  0.571029  1
  Si  Si466  1  0.393202  0.239168  0.571146  1
  Si  Si467  1  0.499929  -0.000000  0.528345  1
  Si  Si468  1  0.110758  0.499824  0.554010  1
  Si  Si469  1  0.497777  0.108279  0.553559  1
  Si  Si470  1  0.391319  0.000000  0.501746  1
  Si  Si471  1  0.110745  0.889557  0.607033  1
  Si  Si472  1  0.240073  0.761370  0.592215  1
  Si  Si473  1  0.242951  0.241851  0.591645  1
  Si  Si474  1  -0.000000  0.607929  0.501661  1
  Si  Si475  1  0.498255  0.891465  0.553603  1
  Si  Si476  1  0.998953  0.607309  0.394893  1
  Si  Si477  1  0.889597  0.110546  0.289615  1
  Si  Si478  1  0.605804  0.241407  0.325598  1
  Si  Si479  1  0.759170  0.608136  0.325410  1
  Si  Si480  1  0.757116  0.392358  0.325594  1
  Si  Si481  1  0.605288  0.758362  0.325738  1
  Si  Si482  1  0.608727  0.998803  0.395006  1
  Si  Si483  1  0.501482  0.107501  0.342760  1
  Si  Si484  1  0.889042  0.500082  0.342647  1
  Si  Si485  1  0.760161  0.238566  0.304440  1
  Si  Si486  1  0.760055  0.757525  0.304873  1
  Si  Si487  1  0.500673  0.892850  0.342827  1
  Si  Si488  1  0.612899  0.387601  0.448331  1
  Si  Si489  1  0.611042  0.610457  0.448148  1
  Si  Si490  1  0.891052  0.258255  0.412407  1
  Si  Si491  1  0.741775  0.891667  0.411933  1
  Si  Si492  1  0.741806  0.105500  0.411989  1
  Si  Si493  1  0.893710  0.740782  0.412075  1
  Si  Si494  1  0.739313  0.890645  0.484453  1
  Si  Si495  1  0.891173  0.260595  0.484372  1
  Si  Si496  1  0.893786  0.740836  0.484685  1
  Si  Si497  1  0.741090  0.106294  0.484675  1
  Si  Si498  1  0.739332  0.742506  0.463741  1
  Si  Si499  1  0.741853  0.263429  0.463774  1
  Si  Si500  1  0.741286  0.262009  0.432992  1
  Si  Si501  1  0.740046  0.739510  0.433363  1
  Si  Si502  1  0.000000  0.390608  0.501594  1
  Si  Si503  1  0.758830  0.240002  0.592062  1
  Si  Si504  1  0.759158  0.761891  0.592240  1
  Si  Si505  1  0.756649  0.607219  0.570946  1
  Si  Si506  1  0.610674  0.243594  0.571278  1
  Si  Si507  1  0.610718  0.756548  0.571497  1
  Si  Si508  1  0.756650  0.392704  0.570955  1
  Si  Si509  1  0.894496  0.500118  0.553540  1
  Si  Si510  1  0.608690  0.998013  0.501727  1
  Si  Si511  1  0.888541  0.888559  0.607129  1
  Si  Si512  1  -0.000000  0.499340  0.527940  1
  Si  Si513  1  0.111772  0.111476  0.607484  1
  Si  Si514  1  0.391138  0.001118  0.712913  1
  Si  Si515  1  0.240147  0.393754  0.643767  1
  Si  Si516  1  0.389257  0.756648  0.643316  1
  Si  Si517  1  0.390612  0.241748  0.643157  1
  Si  Si518  1  0.243553  0.607842  0.643591  1
  Si  Si519  1  0.001369  0.392508  0.712776  1
  Si  Si520  1  0.241723  0.760386  0.622537  1
  Si  Si521  1  0.001512  0.500192  0.686573  1
  Si  Si522  1  0.241334  0.238616  0.622454  1
  Si  Si523  1  0.106537  0.497619  0.661060  1
  Si  Si524  1  0.499965  -0.000000  0.686759  1
  Si  Si525  1  0.389104  0.388336  0.766257  1
  Si  Si526  1  0.388036  0.611735  0.766083  1
  Si  Si527  1  0.258107  0.107885  0.729871  1
  Si  Si528  1  0.108932  0.741763  0.730439  1
  Si  Si529  1  0.106315  0.258846  0.729950  1
  Si  Si530  1  0.258352  0.894117  0.729890  1
  Si  Si531  1  0.107840  0.741118  0.802715  1
  Si  Si532  1  0.258645  0.106963  0.802628  1
  Si  Si533  1  0.258489  0.892853  0.802641  1
  Si  Si534  1  0.107599  0.258283  0.802584  1
  Si  Si535  1  0.261010  0.739207  0.781462  1
  Si  Si536  1  0.261325  0.260574  0.781412  1
  Si  Si537  1  0.260698  0.261240  0.751089  1
  Si  Si538  1  0.259188  0.737450  0.750904  1
  Si  Si539  1  0.391319  0.000000  0.819692  1
  Si  Si540  1  -0.000000  0.607929  0.819607  1
  Si  Si541  1  0.998953  0.607309  0.712840  1
  Si  Si542  1  0.889597  0.110546  0.607561  1
  Si  Si543  1  0.605804  0.241407  0.643544  1
  Si  Si544  1  0.759170  0.608136  0.643356  1
  Si  Si545  1  0.757116  0.392358  0.643541  1
  Si  Si546  1  0.605288  0.758362  0.643684  1
  Si  Si547  1  0.608727  0.998803  0.712952  1
  Si  Si548  1  0.501482  0.107501  0.660706  1
  Si  Si549  1  0.889042  0.500082  0.660593  1
  Si  Si550  1  0.760161  0.238566  0.622386  1
  Si  Si551  1  0.760055  0.757525  0.622819  1
  Si  Si552  1  0.500673  0.892850  0.660774  1
  Si  Si553  1  0.612899  0.387601  0.766277  1
  Si  Si554  1  0.611042  0.610457  0.766095  1
  Si  Si555  1  0.891052  0.258255  0.730353  1
  Si  Si556  1  0.741775  0.891667  0.729879  1
  Si  Si557  1  0.741806  0.105500  0.729935  1
  Si  Si558  1  0.893710  0.740782  0.730021  1
  Si  Si559  1  0.739313  0.890645  0.802399  1
  Si  Si560  1  0.891173  0.260595  0.802318  1
  Si  Si561  1  0.893786  0.740836  0.802632  1
  Si  Si562  1  0.741090  0.106294  0.802621  1
  Si  Si563  1  0.739332  0.742506  0.781687  1
  Si  Si564  1  0.741853  0.263429  0.781720  1
  Si  Si565  1  0.741286  0.262009  0.750938  1
  Si  Si566  1  0.740046  0.739510  0.751309  1
  Si  Si567  1  -0.000000  0.390608  0.819541  1
  Si  Si568  1  0.608690  0.998013  0.819673  1
  H  H569  1  0.411243  0.001173  0.051723  1
  H  H570  1  -0.000000  0.588650  0.051693  1
  H  H571  1  0.000000  0.411544  0.051644  1
  H  H572  1  0.588600  0.000000  0.051752  1
  H  H573  1  -0.000000  0.588130  0.844922  1
  H  H574  1  0.411172  -0.000000  0.845067  1
  H  H575  1  0.588702  0.998784  0.845054  1
  H  H576  1  -0.000000  0.410643  0.844877  1
