# generated using pymatgen
data_Si16H2O33
_symmetry_space_group_name_H-M   'P 1'
_cell_length_a   14.42862184
_cell_length_b   7.12517291
_cell_length_c   39.47925171
_cell_angle_alpha   90.00000000
_cell_angle_beta   90.00000000
_cell_angle_gamma   90.00000000
_symmetry_Int_Tables_number   1
_chemical_formula_structural   Si16H2O33
_chemical_formula_sum   'Si32 H4 O66'
_cell_volume   4058.7207478
_cell_formula_units_Z   2
loop_
 _symmetry_equiv_pos_site_id
 _symmetry_equiv_pos_as_xyz
  1  'x, y, z'
loop_
 _atom_site_type_symbol
 _atom_site_label
 _atom_site_symmetry_multiplicity
 _atom_site_fract_x
 _atom_site_fract_y
 _atom_site_fract_z
 _atom_site_occupancy
  O  O1  1  0.000000  0.504611  0.149498  1
  O  O2  1  0.499141  0.495566  0.149446  1
  O  O3  1  0.080943  0.325231  0.199710  1
  O  O4  1  0.419750  0.324383  0.200156  1
  O  O5  1  0.080272  0.675231  0.200149  1
  O  O6  1  0.419123  0.674388  0.199779  1
  O  O7  1  0.919657  0.675217  0.322751  1
  O  O8  1  0.581032  0.674388  0.323196  1
  O  O9  1  0.918996  0.325233  0.323189  1
  O  O10  1  0.580416  0.324394  0.322825  1
  O  O11  1  0.119582  0.000000  0.229289  1
  O  O12  1  0.380384  -0.000000  0.229296  1
  O  O13  1  0.880406  0.000000  0.293602  1
  O  O14  1  0.619565  0.000000  0.293610  1
  O  O15  1  0.129973  0.324194  0.260851  1
  O  O16  1  0.369970  0.323296  0.261099  1
  O  O17  1  0.129982  0.676284  0.261118  1
  O  O18  1  0.369949  0.675421  0.260875  1
  O  O19  1  0.870029  0.676278  0.261769  1
  O  O20  1  0.629911  0.675399  0.262016  1
  O  O21  1  0.870041  0.324186  0.262036  1
  O  O22  1  0.629892  0.323338  0.261797  1
  O  O23  1  0.250192  0.235540  0.217725  1
  O  O24  1  0.249776  0.764052  0.217743  1
  O  O25  1  0.750193  0.764075  0.305124  1
  O  O26  1  0.749785  0.235515  0.305143  1
  O  O27  1  0.071635  0.498706  0.314572  1
  O  O28  1  0.428508  0.500731  0.314500  1
  O  O29  1  0.928281  0.498702  0.208290  1
  O  O30  1  0.571850  0.500700  0.208223  1
  O  O31  1  0.249993  0.499708  0.295566  1
  O  O32  1  0.749991  0.499699  0.227350  1
  O  O33  1  0.000000  0.504611  0.373378  1
  O  O34  1  0.499141  0.495566  0.373325  1
  O  O35  1  0.080943  0.325231  0.423589  1
  O  O36  1  0.419750  0.324383  0.424035  1
  O  O37  1  0.080272  0.675231  0.424028  1
  O  O38  1  0.419123  0.674388  0.423658  1
  O  O39  1  0.919657  0.675217  0.546631  1
  O  O40  1  0.581032  0.674388  0.547075  1
  O  O41  1  0.918996  0.325233  0.547068  1
  O  O42  1  0.580416  0.324394  0.546704  1
  O  O43  1  0.119582  -0.000000  0.453169  1
  O  O44  1  0.380384  -0.000000  0.453175  1
  O  O45  1  0.880406  0.000000  0.517481  1
  O  O46  1  0.619565  0.000000  0.517490  1
  O  O47  1  0.129973  0.324194  0.484730  1
  O  O48  1  0.369970  0.323296  0.484978  1
  O  O49  1  0.129982  0.676284  0.484997  1
  O  O50  1  0.369949  0.675421  0.484754  1
  O  O51  1  0.870029  0.676278  0.485648  1
  O  O52  1  0.629911  0.675399  0.485895  1
  O  O53  1  0.870041  0.324186  0.485915  1
  O  O54  1  0.629892  0.323338  0.485676  1
  O  O55  1  0.250192  0.235540  0.441604  1
  O  O56  1  0.249776  0.764052  0.441622  1
  O  O57  1  0.750193  0.764075  0.529003  1
  O  O58  1  0.749785  0.235515  0.529023  1
  O  O59  1  0.071635  0.498706  0.538451  1
  O  O60  1  0.428508  0.500731  0.538379  1
  O  O61  1  0.928281  0.498702  0.432169  1
  O  O62  1  0.571850  0.500700  0.432102  1
  O  O63  1  0.249993  0.499708  0.519445  1
  O  O64  1  0.749991  0.499699  0.451230  1
  O  O65  1  -0.000000  0.504611  0.597257  1
  O  O66  1  0.499141  0.495566  0.597204  1
  Si  Si67  1  0.143418  0.216214  0.226177  1
  Si  Si68  1  0.356819  0.215381  0.226396  1
  Si  Si69  1  0.143145  0.784221  0.226413  1
  Si  Si70  1  0.356548  0.783394  0.226202  1
  Si  Si71  1  0.856824  0.784214  0.296472  1
  Si  Si72  1  0.643416  0.783393  0.296690  1
  Si  Si73  1  0.856557  0.216208  0.296707  1
  Si  Si74  1  0.643150  0.215395  0.296500  1
  Si  Si75  1  0.143829  0.499637  0.284952  1
  Si  Si76  1  0.356150  0.499860  0.284949  1
  Si  Si77  1  0.856149  0.499630  0.237938  1
  Si  Si78  1  0.643826  0.499858  0.237937  1
  Si  Si79  1  0.021674  0.500285  0.188070  1
  Si  Si80  1  0.478322  0.499375  0.188077  1
  Si  Si81  1  0.978283  0.500282  0.334812  1
  Si  Si82  1  0.521718  0.499383  0.334819  1
  Si  Si83  1  0.143418  0.216214  0.450057  1
  Si  Si84  1  0.356819  0.215381  0.450276  1
  Si  Si85  1  0.143145  0.784221  0.450292  1
  Si  Si86  1  0.356548  0.783394  0.450082  1
  Si  Si87  1  0.856824  0.784214  0.520351  1
  Si  Si88  1  0.643416  0.783393  0.520569  1
  Si  Si89  1  0.856557  0.216208  0.520586  1
  Si  Si90  1  0.643150  0.215395  0.520379  1
  Si  Si91  1  0.143829  0.499637  0.508831  1
  Si  Si92  1  0.356150  0.499860  0.508828  1
  Si  Si93  1  0.856149  0.499630  0.461817  1
  Si  Si94  1  0.643826  0.499858  0.461816  1
  Si  Si95  1  0.021674  0.500285  0.411949  1
  Si  Si96  1  0.478322  0.499375  0.411956  1
  Si  Si97  1  0.978283  0.500282  0.558691  1
  Si  Si98  1  0.521718  0.499383  0.558699  1
  H  H99  1  0.000000  0.504611  0.126702  1
  H  H100  1  0.499141  0.495566  0.126649  1
  H  H101  1  -0.000000  0.504611  0.620054  1
  H  H102  1  0.499141  0.495566  0.620001  1
