# generated using pymatgen
data_Si50H2O101
_symmetry_space_group_name_H-M   'P 1'
_cell_length_a   13.85795342
_cell_length_b   12.35340462
_cell_length_c   93.11563187
_cell_angle_alpha   109.12820000
_cell_angle_beta   90.00000000
_cell_angle_gamma   90.00000000
_symmetry_Int_Tables_number   1
_chemical_formula_structural   Si50H2O101
_chemical_formula_sum   'Si200 H8 O404'
_cell_volume   15060.6116628
_cell_formula_units_Z   4
loop_
 _symmetry_equiv_pos_site_id
 _symmetry_equiv_pos_as_xyz
  1  'x, y, z'
loop_
 _atom_site_type_symbol
 _atom_site_label
 _atom_site_symmetry_multiplicity
 _atom_site_fract_x
 _atom_site_fract_y
 _atom_site_fract_z
 _atom_site_occupancy
  O  O1  1  0.165988  0.875576  0.070823  1
  O  O2  1  0.000000  0.445346  0.111937  1
  O  O3  1  0.000000  0.667179  0.124300  1
  O  O4  1  0.000000  0.239582  0.112372  1
  O  O5  1  0.163598  0.213128  0.066500  1
  O  O6  1  0.099286  0.230672  0.134195  1
  O  O7  1  0.400987  0.769683  0.104218  1
  O  O8  1  0.235897  0.795686  0.092761  1
  O  O9  1  0.226717  0.384330  0.136815  1
  O  O10  1  0.274530  0.615230  0.101349  1
  O  O11  1  0.247303  0.186352  0.117502  1
  O  O12  1  0.252803  0.813028  0.120882  1
  O  O13  1  0.097707  0.532679  0.135088  1
  O  O14  1  0.402397  0.466745  0.103374  1
  O  O15  1  0.249902  0.502440  0.119290  1
  O  O16  1  0.241049  0.395104  0.090178  1
  O  O17  1  0.258977  0.002861  0.094555  1
  O  O18  1  0.097497  0.850692  0.136437  1
  O  O19  1  0.402436  0.149359  0.101928  1
  O  O20  1  0.247910  0.192554  0.090201  1
  O  O21  1  0.093131  0.929087  0.096342  1
  O  O22  1  0.091276  0.288055  0.091866  1
  O  O23  1  0.000000  0.056664  0.118744  1
  O  O24  1  0.499974  0.159385  0.124751  1
  O  O25  1  0.499987  0.943295  0.119680  1
  O  O26  1  0.000000  0.840346  0.113617  1
  O  O27  1  0.837589  0.213230  0.066556  1
  O  O28  1  0.500534  0.759990  0.125969  1
  O  O29  1  0.900913  0.230739  0.134109  1
  O  O30  1  0.599154  0.769958  0.104166  1
  O  O31  1  0.764352  0.795624  0.092693  1
  O  O32  1  0.773348  0.384109  0.136698  1
  O  O33  1  0.725427  0.615205  0.101265  1
  O  O34  1  0.752908  0.185973  0.117386  1
  O  O35  1  0.747390  0.812812  0.120809  1
  O  O36  1  0.902512  0.532623  0.135063  1
  O  O37  1  0.597771  0.466740  0.103354  1
  O  O38  1  0.750392  0.502795  0.119245  1
  O  O39  1  0.759203  0.395170  0.090147  1
  O  O40  1  0.741055  0.002577  0.094410  1
  O  O41  1  0.902467  0.850306  0.136418  1
  O  O42  1  0.597356  0.148909  0.101900  1
  O  O43  1  0.751411  0.192476  0.090105  1
  O  O44  1  0.834957  0.875063  0.070769  1
  O  O45  1  0.906884  0.929390  0.096363  1
  O  O46  1  0.908241  0.287628  0.092039  1
  O  O47  1  0.500146  0.554447  0.126484  1
  O  O48  1  0.500167  0.332488  0.114114  1
  O  O49  1  0.264328  0.204354  0.145633  1
  O  O50  1  0.263631  0.795805  0.222236  1
  O  O51  1  0.259026  0.604921  0.148304  1
  O  O52  1  0.259121  0.395384  0.219714  1
  O  O53  1  0.241113  0.996998  0.143815  1
  O  O54  1  0.240259  0.002813  0.223954  1
  O  O55  1  0.251680  0.807558  0.148227  1
  O  O56  1  0.250482  0.192595  0.219612  1
  O  O57  1  0.408411  0.712267  0.146376  1
  O  O58  1  0.407575  0.287244  0.221673  1
  O  O59  1  0.337670  0.213470  0.196124  1
  O  O60  1  0.337473  0.787205  0.171823  1
  O  O61  1  0.334370  0.124549  0.167566  1
  O  O62  1  0.334718  0.875394  0.200367  1
  O  O63  1  0.375538  -0.000000  0.184006  1
  O  O64  1  0.406929  0.070801  0.142054  1
  O  O65  1  0.406078  0.929686  0.225978  1
  O  O66  1  0.735971  0.204158  0.145524  1
  O  O67  1  0.735242  0.795799  0.222459  1
  O  O68  1  0.741246  0.604779  0.148267  1
  O  O69  1  0.741164  0.395055  0.219675  1
  O  O70  1  0.759093  0.996752  0.143721  1
  O  O71  1  0.758211  0.003264  0.224296  1
  O  O72  1  0.747977  0.807378  0.148161  1
  O  O73  1  0.746793  0.192600  0.219857  1
  O  O74  1  0.591362  0.711892  0.146499  1
  O  O75  1  0.590569  0.288822  0.221358  1
  O  O76  1  0.663567  0.212849  0.196071  1
  O  O77  1  0.663610  0.787034  0.171866  1
  O  O78  1  0.666363  0.124404  0.167496  1
  O  O79  1  0.666130  0.875622  0.200456  1
  O  O80  1  0.625519  -0.000000  0.183959  1
  O  O81  1  0.500518  0.140862  0.181676  1
  O  O82  1  0.592398  0.928968  0.225899  1
  O  O83  1  0.593287  0.070796  0.142020  1
  O  O84  1  0.500543  0.859231  0.186223  1
  O  O85  1  0.163652  0.787264  0.301441  1
  O  O86  1  0.499729  0.445591  0.241486  1
  O  O87  1  0.499630  0.056834  0.248303  1
  O  O88  1  0.000000  0.760271  0.255566  1
  O  O89  1  0.098445  0.769912  0.233694  1
  O  O90  1  0.400127  0.230742  0.263621  1
  O  O91  1  0.235242  0.204322  0.275055  1
  O  O92  1  0.225029  0.615356  0.230819  1
  O  O93  1  0.272888  0.384266  0.266244  1
  O  O94  1  0.246678  0.813109  0.250344  1
  O  O95  1  0.252091  0.186254  0.246906  1
  O  O96  1  0.097665  0.466778  0.232924  1
  O  O97  1  0.402416  0.532651  0.264633  1
  O  O98  1  0.250270  0.503142  0.248819  1
  O  O99  1  0.241213  0.604993  0.277842  1
  O  O100  1  0.258359  0.997008  0.273281  1
  O  O101  1  0.096433  0.149044  0.231446  1
  O  O102  1  0.401600  0.850462  0.265992  1
  O  O103  1  0.247010  0.807511  0.277681  1
  O  O104  1  0.166025  0.124867  0.297086  1
  O  O105  1  0.092572  0.071014  0.271611  1
  O  O106  1  0.090718  0.711357  0.276141  1
  O  O107  1  0.499360  0.840623  0.243216  1
  O  O108  1  0.499653  0.667488  0.253871  1
  O  O109  1  0.000000  0.141003  0.311331  1
  O  O110  1  0.125601  -0.000000  0.313551  1
  O  O111  1  0.834623  0.124745  0.297197  1
  O  O112  1  0.837509  0.786912  0.301394  1
  O  O113  1  0.000000  0.554603  0.256034  1
  O  O114  1  0.900162  0.769304  0.233885  1
  O  O115  1  0.598345  0.230497  0.263852  1
  O  O116  1  0.763907  0.204516  0.275321  1
  O  O117  1  0.772845  0.615808  0.231272  1
  O  O118  1  0.725087  0.384874  0.266728  1
  O  O119  1  0.752155  0.813934  0.250599  1
  O  O120  1  0.746579  0.187194  0.247215  1
  O  O121  1  0.902367  0.467451  0.232885  1
  O  O122  1  0.597696  0.533344  0.264600  1
  O  O123  1  0.750252  0.496926  0.248700  1
  O  O124  1  0.759135  0.604861  0.277802  1
  O  O125  1  0.740439  0.997458  0.273560  1
  O  O126  1  0.901442  0.149814  0.231558  1
  O  O127  1  0.596590  0.851215  0.266080  1
  O  O128  1  0.750661  0.807627  0.277886  1
  O  O129  1  0.500850  0.239903  0.241952  1
  O  O130  1  0.906319  0.070633  0.271606  1
  O  O131  1  0.907711  0.712916  0.275868  1
  O  O132  1  0.000000  0.159576  0.254326  1
  O  O133  1  0.000000  0.332722  0.243667  1
  O  O134  1  0.000000  0.943371  0.249230  1
  O  O135  1  0.165988  0.875576  0.330018  1
  O  O136  1  0.000000  0.445346  0.371131  1
  O  O137  1  0.000000  0.667179  0.383495  1
  O  O138  1  0.000000  0.239582  0.371567  1
  O  O139  1  0.163598  0.213128  0.325695  1
  O  O140  1  0.099286  0.230672  0.393390  1
  O  O141  1  0.400987  0.769683  0.363413  1
  O  O142  1  0.235897  0.795686  0.351956  1
  O  O143  1  0.226717  0.384330  0.396010  1
  O  O144  1  0.274530  0.615230  0.360544  1
  O  O145  1  0.247303  0.186352  0.376697  1
  O  O146  1  0.252803  0.813028  0.380077  1
  O  O147  1  0.097707  0.532679  0.394283  1
  O  O148  1  0.402397  0.466745  0.362568  1
  O  O149  1  0.249902  0.502440  0.378485  1
  O  O150  1  0.241049  0.395104  0.349373  1
  O  O151  1  0.258977  0.002861  0.353750  1
  O  O152  1  0.097497  0.850692  0.395631  1
  O  O153  1  0.402436  0.149359  0.361123  1
  O  O154  1  0.247910  0.192554  0.349396  1
  O  O155  1  0.000000  0.859229  0.315779  1
  O  O156  1  0.093131  0.929087  0.355537  1
  O  O157  1  0.091276  0.288055  0.351061  1
  O  O158  1  0.000000  0.056664  0.377939  1
  O  O159  1  0.499974  0.159385  0.383946  1
  O  O160  1  0.499987  0.943295  0.378875  1
  O  O161  1  0.000000  0.840346  0.372812  1
  O  O162  1  0.837589  0.213230  0.325751  1
  O  O163  1  0.500534  0.759990  0.385164  1
  O  O164  1  0.900913  0.230739  0.393304  1
  O  O165  1  0.599154  0.769958  0.363361  1
  O  O166  1  0.764352  0.795624  0.351888  1
  O  O167  1  0.773348  0.384109  0.395893  1
  O  O168  1  0.725427  0.615205  0.360460  1
  O  O169  1  0.752908  0.185973  0.376581  1
  O  O170  1  0.747390  0.812812  0.380003  1
  O  O171  1  0.902512  0.532623  0.394257  1
  O  O172  1  0.597771  0.466740  0.362549  1
  O  O173  1  0.750392  0.502795  0.378440  1
  O  O174  1  0.759203  0.395170  0.349341  1
  O  O175  1  0.741055  0.002577  0.353605  1
  O  O176  1  0.902467  0.850306  0.395613  1
  O  O177  1  0.597356  0.148909  0.361095  1
  O  O178  1  0.751411  0.192476  0.349300  1
  O  O179  1  0.834957  0.875063  0.329964  1
  O  O180  1  0.906884  0.929390  0.355558  1
  O  O181  1  0.908241  0.287628  0.351234  1
  O  O182  1  0.500146  0.554447  0.385679  1
  O  O183  1  0.500167  0.332488  0.373308  1
  O  O184  1  0.875468  -0.000000  0.313589  1
  O  O185  1  0.264328  0.204354  0.404828  1
  O  O186  1  0.263631  0.795805  0.481431  1
  O  O187  1  0.259026  0.604921  0.407499  1
  O  O188  1  0.259121  0.395384  0.478909  1
  O  O189  1  0.241113  0.996998  0.403010  1
  O  O190  1  0.240259  0.002813  0.483149  1
  O  O191  1  0.251680  0.807558  0.407422  1
  O  O192  1  0.250482  0.192595  0.478806  1
  O  O193  1  0.408411  0.712267  0.405571  1
  O  O194  1  0.407575  0.287244  0.480868  1
  O  O195  1  0.337670  0.213470  0.455319  1
  O  O196  1  0.337473  0.787205  0.431018  1
  O  O197  1  0.334370  0.124549  0.426761  1
  O  O198  1  0.334718  0.875394  0.459562  1
  O  O199  1  0.375538  -0.000000  0.443200  1
  O  O200  1  0.406929  0.070801  0.401249  1
  O  O201  1  0.406078  0.929686  0.485173  1
  O  O202  1  0.735971  0.204158  0.404719  1
  O  O203  1  0.735242  0.795799  0.481653  1
  O  O204  1  0.741246  0.604779  0.407462  1
  O  O205  1  0.741164  0.395055  0.478869  1
  O  O206  1  0.759093  0.996752  0.402916  1
  O  O207  1  0.758211  0.003264  0.483491  1
  O  O208  1  0.747977  0.807378  0.407356  1
  O  O209  1  0.746793  0.192600  0.479051  1
  O  O210  1  0.591362  0.711892  0.405694  1
  O  O211  1  0.590569  0.288822  0.480552  1
  O  O212  1  0.663567  0.212849  0.455266  1
  O  O213  1  0.663610  0.787034  0.431061  1
  O  O214  1  0.666363  0.124404  0.426691  1
  O  O215  1  0.666130  0.875622  0.459651  1
  O  O216  1  0.625519  -0.000000  0.443154  1
  O  O217  1  0.500518  0.140862  0.440871  1
  O  O218  1  0.592398  0.928968  0.485094  1
  O  O219  1  0.593287  0.070796  0.401215  1
  O  O220  1  0.500543  0.859231  0.445417  1
  O  O221  1  0.163652  0.787264  0.560636  1
  O  O222  1  0.499729  0.445591  0.500681  1
  O  O223  1  0.499630  0.056834  0.507498  1
  O  O224  1  0.000000  0.760271  0.514761  1
  O  O225  1  0.098445  0.769912  0.492889  1
  O  O226  1  0.400127  0.230742  0.522816  1
  O  O227  1  0.235242  0.204322  0.534250  1
  O  O228  1  0.225029  0.615356  0.490014  1
  O  O229  1  0.272888  0.384266  0.525439  1
  O  O230  1  0.246678  0.813109  0.509539  1
  O  O231  1  0.252091  0.186254  0.506101  1
  O  O232  1  0.097665  0.466778  0.492119  1
  O  O233  1  0.402416  0.532651  0.523828  1
  O  O234  1  0.250270  0.503142  0.508014  1
  O  O235  1  0.241213  0.604993  0.537036  1
  O  O236  1  0.258359  0.997008  0.532476  1
  O  O237  1  0.096433  0.149044  0.490641  1
  O  O238  1  0.401600  0.850462  0.525187  1
  O  O239  1  0.247010  0.807511  0.536876  1
  O  O240  1  0.166025  0.124867  0.556281  1
  O  O241  1  0.092572  0.071014  0.530805  1
  O  O242  1  0.090718  0.711357  0.535336  1
  O  O243  1  0.499360  0.840623  0.502411  1
  O  O244  1  0.499653  0.667488  0.513066  1
  O  O245  1  0.000000  0.141003  0.570525  1
  O  O246  1  0.125601  -0.000000  0.572746  1
  O  O247  1  0.834623  0.124745  0.556392  1
  O  O248  1  0.837509  0.786912  0.560588  1
  O  O249  1  0.000000  0.554603  0.515229  1
  O  O250  1  0.900162  0.769304  0.493080  1
  O  O251  1  0.598345  0.230497  0.523047  1
  O  O252  1  0.763907  0.204516  0.534516  1
  O  O253  1  0.772845  0.615808  0.490467  1
  O  O254  1  0.725087  0.384874  0.525923  1
  O  O255  1  0.752155  0.813934  0.509793  1
  O  O256  1  0.746579  0.187194  0.506410  1
  O  O257  1  0.902367  0.467451  0.492080  1
  O  O258  1  0.597696  0.533344  0.523795  1
  O  O259  1  0.750252  0.496926  0.507895  1
  O  O260  1  0.759135  0.604861  0.536997  1
  O  O261  1  0.740439  0.997458  0.532755  1
  O  O262  1  0.901442  0.149814  0.490753  1
  O  O263  1  0.596590  0.851215  0.525275  1
  O  O264  1  0.750661  0.807627  0.537081  1
  O  O265  1  0.500850  0.239903  0.501147  1
  O  O266  1  0.906319  0.070633  0.530801  1
  O  O267  1  0.907711  0.712916  0.535063  1
  O  O268  1  -0.000000  0.159576  0.513520  1
  O  O269  1  0.000000  0.332722  0.502862  1
  O  O270  1  0.000000  0.943371  0.508425  1
  O  O271  1  0.165988  0.875576  0.589213  1
  O  O272  1  0.000000  0.445346  0.630326  1
  O  O273  1  0.000000  0.667179  0.642690  1
  O  O274  1  -0.000000  0.239582  0.630762  1
  O  O275  1  0.163598  0.213128  0.584890  1
  O  O276  1  0.099286  0.230672  0.652585  1
  O  O277  1  0.400987  0.769683  0.622608  1
  O  O278  1  0.235897  0.795686  0.611151  1
  O  O279  1  0.226717  0.384330  0.655205  1
  O  O280  1  0.274530  0.615230  0.619738  1
  O  O281  1  0.247303  0.186352  0.635891  1
  O  O282  1  0.252803  0.813028  0.639272  1
  O  O283  1  0.097707  0.532679  0.653478  1
  O  O284  1  0.402397  0.466745  0.621763  1
  O  O285  1  0.249902  0.502440  0.637680  1
  O  O286  1  0.241049  0.395104  0.608568  1
  O  O287  1  0.258977  0.002861  0.612945  1
  O  O288  1  0.097497  0.850692  0.654826  1
  O  O289  1  0.402436  0.149359  0.620318  1
  O  O290  1  0.247910  0.192554  0.608591  1
  O  O291  1  0.000000  0.859229  0.574974  1
  O  O292  1  0.093131  0.929087  0.614731  1
  O  O293  1  0.091276  0.288055  0.610256  1
  O  O294  1  -0.000000  0.056664  0.637134  1
  O  O295  1  0.499974  0.159385  0.643140  1
  O  O296  1  0.499987  0.943295  0.638070  1
  O  O297  1  0.000000  0.840346  0.632007  1
  O  O298  1  0.837589  0.213230  0.584946  1
  O  O299  1  0.500534  0.759990  0.644359  1
  O  O300  1  0.900913  0.230739  0.652499  1
  O  O301  1  0.599154  0.769958  0.622555  1
  O  O302  1  0.764352  0.795624  0.611082  1
  O  O303  1  0.773348  0.384109  0.655088  1
  O  O304  1  0.725427  0.615205  0.619654  1
  O  O305  1  0.752908  0.185973  0.635776  1
  O  O306  1  0.747390  0.812812  0.639198  1
  O  O307  1  0.902512  0.532623  0.653452  1
  O  O308  1  0.597771  0.466740  0.621744  1
  O  O309  1  0.750392  0.502795  0.637635  1
  O  O310  1  0.759203  0.395170  0.608536  1
  O  O311  1  0.741055  0.002577  0.612800  1
  O  O312  1  0.902467  0.850306  0.654808  1
  O  O313  1  0.597356  0.148909  0.620290  1
  O  O314  1  0.751411  0.192476  0.608495  1
  O  O315  1  0.834957  0.875063  0.589159  1
  O  O316  1  0.906884  0.929390  0.614753  1
  O  O317  1  0.908241  0.287628  0.610428  1
  O  O318  1  0.500146  0.554447  0.644874  1
  O  O319  1  0.500167  0.332488  0.632503  1
  O  O320  1  0.875468  -0.000000  0.572784  1
  O  O321  1  0.264328  0.204354  0.664023  1
  O  O322  1  0.263631  0.795805  0.740626  1
  O  O323  1  0.259026  0.604921  0.666694  1
  O  O324  1  0.259121  0.395384  0.738104  1
  O  O325  1  0.241113  0.996998  0.662204  1
  O  O326  1  0.240259  0.002813  0.742344  1
  O  O327  1  0.251680  0.807558  0.666617  1
  O  O328  1  0.250482  0.192595  0.738001  1
  O  O329  1  0.408411  0.712267  0.664766  1
  O  O330  1  0.407575  0.287244  0.740063  1
  O  O331  1  0.337670  0.213470  0.714514  1
  O  O332  1  0.337473  0.787205  0.690213  1
  O  O333  1  0.334370  0.124549  0.685955  1
  O  O334  1  0.334718  0.875394  0.718757  1
  O  O335  1  0.375538  -0.000000  0.702395  1
  O  O336  1  0.406929  0.070801  0.660443  1
  O  O337  1  0.406078  0.929686  0.744368  1
  O  O338  1  0.735971  0.204158  0.663914  1
  O  O339  1  0.735242  0.795799  0.740848  1
  O  O340  1  0.741246  0.604779  0.666657  1
  O  O341  1  0.741164  0.395055  0.738064  1
  O  O342  1  0.759093  0.996752  0.662111  1
  O  O343  1  0.758211  0.003264  0.742685  1
  O  O344  1  0.747977  0.807378  0.666551  1
  O  O345  1  0.746793  0.192600  0.738246  1
  O  O346  1  0.591362  0.711892  0.664888  1
  O  O347  1  0.590569  0.288822  0.739747  1
  O  O348  1  0.663567  0.212849  0.714460  1
  O  O349  1  0.663610  0.787034  0.690256  1
  O  O350  1  0.666363  0.124404  0.685886  1
  O  O351  1  0.666130  0.875622  0.718846  1
  O  O352  1  0.625519  -0.000000  0.702349  1
  O  O353  1  0.500518  0.140862  0.700066  1
  O  O354  1  0.592398  0.928968  0.744289  1
  O  O355  1  0.593287  0.070796  0.660410  1
  O  O356  1  0.500543  0.859231  0.704612  1
  O  O357  1  0.163652  0.787264  0.819831  1
  O  O358  1  0.499729  0.445591  0.759876  1
  O  O359  1  0.499630  0.056834  0.766693  1
  O  O360  1  0.000000  0.760271  0.773956  1
  O  O361  1  0.098445  0.769912  0.752083  1
  O  O362  1  0.400127  0.230742  0.782011  1
  O  O363  1  0.235242  0.204322  0.793445  1
  O  O364  1  0.225029  0.615356  0.749209  1
  O  O365  1  0.272888  0.384266  0.784634  1
  O  O366  1  0.246678  0.813109  0.768734  1
  O  O367  1  0.252091  0.186254  0.765296  1
  O  O368  1  0.097665  0.466778  0.751314  1
  O  O369  1  0.402416  0.532651  0.783023  1
  O  O370  1  0.250270  0.503142  0.767208  1
  O  O371  1  0.241213  0.604993  0.796231  1
  O  O372  1  0.258359  0.997008  0.791671  1
  O  O373  1  0.096433  0.149044  0.749835  1
  O  O374  1  0.401600  0.850462  0.784382  1
  O  O375  1  0.247010  0.807511  0.796071  1
  O  O376  1  0.166025  0.124867  0.815476  1
  O  O377  1  0.092572  0.071014  0.790000  1
  O  O378  1  0.090718  0.711357  0.794531  1
  O  O379  1  0.499360  0.840623  0.761605  1
  O  O380  1  0.499653  0.667488  0.772261  1
  O  O381  1  0.834623  0.124745  0.815587  1
  O  O382  1  0.837509  0.786912  0.819783  1
  O  O383  1  0.000000  0.554603  0.774423  1
  O  O384  1  0.900162  0.769304  0.752275  1
  O  O385  1  0.598345  0.230497  0.782242  1
  O  O386  1  0.763907  0.204516  0.793711  1
  O  O387  1  0.772845  0.615808  0.749661  1
  O  O388  1  0.725087  0.384874  0.785118  1
  O  O389  1  0.752155  0.813934  0.768988  1
  O  O390  1  0.746579  0.187194  0.765605  1
  O  O391  1  0.902367  0.467451  0.751275  1
  O  O392  1  0.597696  0.533344  0.782989  1
  O  O393  1  0.750252  0.496926  0.767089  1
  O  O394  1  0.759135  0.604861  0.796192  1
  O  O395  1  0.740439  0.997458  0.791950  1
  O  O396  1  0.901442  0.149814  0.749948  1
  O  O397  1  0.596590  0.851215  0.784469  1
  O  O398  1  0.750661  0.807627  0.796276  1
  O  O399  1  0.500850  0.239903  0.760342  1
  O  O400  1  0.906319  0.070633  0.789996  1
  O  O401  1  0.907711  0.712916  0.794257  1
  O  O402  1  0.000000  0.159576  0.772715  1
  O  O403  1  0.000000  0.332722  0.762056  1
  O  O404  1  0.000000  0.943371  0.767620  1
  Si  Si405  1  0.211418  0.253243  0.134029  1
  Si  Si406  1  0.288951  0.746736  0.104343  1
  Si  Si407  1  0.209126  0.505208  0.135128  1
  Si  Si408  1  0.291178  0.494935  0.103293  1
  Si  Si409  1  0.210239  0.868144  0.137270  1
  Si  Si410  1  0.289719  0.131732  0.101103  1
  Si  Si411  1  0.191425  0.896093  0.087896  1
  Si  Si412  1  0.190220  0.274484  0.083678  1
  Si  Si413  1  0.000000  0.315960  0.101936  1
  Si  Si414  1  0.000000  0.548691  0.127246  1
  Si  Si415  1  0.000000  0.190418  0.125899  1
  Si  Si416  1  0.000000  0.936590  0.105955  1
  Si  Si417  1  0.499988  0.198549  0.110231  1
  Si  Si418  1  0.000000  0.801075  0.128131  1
  Si  Si419  1  0.788778  0.253028  0.133910  1
  Si  Si420  1  0.711171  0.746731  0.104268  1
  Si  Si421  1  0.791074  0.505164  0.135072  1
  Si  Si422  1  0.708956  0.495021  0.103247  1
  Si  Si423  1  0.789735  0.867810  0.137211  1
  Si  Si424  1  0.710081  0.131353  0.101010  1
  Si  Si425  1  0.808912  0.895990  0.087829  1
  Si  Si426  1  0.809914  0.274439  0.083686  1
  Si  Si427  1  0.500034  0.063393  0.132449  1
  Si  Si428  1  0.500122  0.451012  0.111186  1
  Si  Si429  1  0.500119  0.809632  0.112486  1
  Si  Si430  1  0.500137  0.683923  0.136446  1
  Si  Si431  1  0.308630  0.103800  0.150495  1
  Si  Si432  1  0.308232  0.896299  0.217406  1
  Si  Si433  1  0.309948  0.725696  0.154697  1
  Si  Si434  1  0.309559  0.274470  0.213244  1
  Si  Si435  1  0.388142  0.121309  0.182252  1
  Si  Si436  1  0.388205  0.879086  0.185689  1
  Si  Si437  1  0.691751  0.103694  0.150413  1
  Si  Si438  1  0.691037  0.896220  0.217556  1
  Si  Si439  1  0.690285  0.725496  0.154697  1
  Si  Si440  1  0.689840  0.274571  0.213249  1
  Si  Si441  1  0.612883  0.120944  0.182195  1
  Si  Si442  1  0.612918  0.879031  0.185731  1
  Si  Si443  1  0.210513  0.746820  0.233806  1
  Si  Si444  1  0.288039  0.253109  0.263432  1
  Si  Si445  1  0.208804  0.495185  0.232816  1
  Si  Si446  1  0.290927  0.505338  0.264640  1
  Si  Si447  1  0.209180  0.131566  0.230535  1
  Si  Si448  1  0.288885  0.868033  0.266756  1
  Si  Si449  1  0.191088  0.104008  0.279984  1
  Si  Si450  1  0.189939  0.725499  0.284265  1
  Si  Si451  1  0.112912  0.121266  0.311811  1
  Si  Si452  1  0.499933  0.548934  0.256795  1
  Si  Si453  1  0.499378  0.936713  0.235532  1
  Si  Si454  1  0.499295  0.801409  0.257732  1
  Si  Si455  1  0.499717  0.316163  0.231500  1
  Si  Si456  1  0.499538  0.190551  0.255462  1
  Si  Si457  1  0.788062  0.746951  0.234075  1
  Si  Si458  1  0.710499  0.253433  0.263759  1
  Si  Si459  1  0.790870  0.494728  0.232876  1
  Si  Si460  1  0.708842  0.504981  0.264709  1
  Si  Si461  1  0.788720  0.132254  0.230801  1
  Si  Si462  1  0.709335  0.868711  0.266973  1
  Si  Si463  1  0.808382  0.103961  0.280150  1
  Si  Si464  1  0.809592  0.725755  0.284270  1
  Si  Si465  1  0.888186  0.121222  0.311880  1
  Si  Si466  1  0.000000  0.063467  0.262008  1
  Si  Si467  1  0.000000  0.198807  0.239810  1
  Si  Si468  1  0.000000  0.684023  0.266020  1
  Si  Si469  1  0.000000  0.809658  0.242060  1
  Si  Si470  1  0.000000  0.451223  0.240729  1
  Si  Si471  1  0.211418  0.253243  0.393224  1
  Si  Si472  1  0.288951  0.746736  0.363538  1
  Si  Si473  1  0.209126  0.505208  0.394323  1
  Si  Si474  1  0.291178  0.494935  0.362488  1
  Si  Si475  1  0.210239  0.868144  0.396464  1
  Si  Si476  1  0.289719  0.131732  0.360297  1
  Si  Si477  1  0.191425  0.896093  0.347091  1
  Si  Si478  1  0.190220  0.274484  0.342873  1
  Si  Si479  1  0.112889  0.879214  0.315302  1
  Si  Si480  1  0.000000  0.315960  0.361130  1
  Si  Si481  1  0.000000  0.548691  0.386441  1
  Si  Si482  1  0.000000  0.190418  0.385094  1
  Si  Si483  1  0.000000  0.936590  0.365150  1
  Si  Si484  1  0.499988  0.198549  0.369426  1
  Si  Si485  1  -0.000000  0.801075  0.387326  1
  Si  Si486  1  0.788778  0.253028  0.393105  1
  Si  Si487  1  0.711171  0.746731  0.363462  1
  Si  Si488  1  0.791074  0.505164  0.394267  1
  Si  Si489  1  0.708956  0.495021  0.362442  1
  Si  Si490  1  0.789735  0.867810  0.396406  1
  Si  Si491  1  0.710081  0.131353  0.360205  1
  Si  Si492  1  0.808912  0.895990  0.347024  1
  Si  Si493  1  0.809914  0.274439  0.342881  1
  Si  Si494  1  0.888183  0.878845  0.315265  1
  Si  Si495  1  0.500034  0.063393  0.391644  1
  Si  Si496  1  0.500122  0.451012  0.370381  1
  Si  Si497  1  0.500119  0.809632  0.371681  1
  Si  Si498  1  0.500137  0.683923  0.395641  1
  Si  Si499  1  0.308630  0.103800  0.409690  1
  Si  Si500  1  0.308232  0.896299  0.476601  1
  Si  Si501  1  0.309948  0.725696  0.413891  1
  Si  Si502  1  0.309559  0.274470  0.472439  1
  Si  Si503  1  0.388142  0.121309  0.441447  1
  Si  Si504  1  0.388205  0.879086  0.444884  1
  Si  Si505  1  0.691751  0.103694  0.409608  1
  Si  Si506  1  0.691037  0.896220  0.476751  1
  Si  Si507  1  0.690285  0.725496  0.413892  1
  Si  Si508  1  0.689840  0.274571  0.472444  1
  Si  Si509  1  0.612883  0.120944  0.441390  1
  Si  Si510  1  0.612918  0.879031  0.444926  1
  Si  Si511  1  0.210513  0.746820  0.493000  1
  Si  Si512  1  0.288039  0.253109  0.522627  1
  Si  Si513  1  0.208804  0.495185  0.492011  1
  Si  Si514  1  0.290927  0.505338  0.523835  1
  Si  Si515  1  0.209180  0.131566  0.489730  1
  Si  Si516  1  0.288885  0.868033  0.525950  1
  Si  Si517  1  0.191088  0.104008  0.539179  1
  Si  Si518  1  0.189939  0.725499  0.543460  1
  Si  Si519  1  0.112912  0.121266  0.571006  1
  Si  Si520  1  0.499933  0.548934  0.515990  1
  Si  Si521  1  0.499378  0.936713  0.494727  1
  Si  Si522  1  0.499295  0.801409  0.516927  1
  Si  Si523  1  0.499717  0.316163  0.490695  1
  Si  Si524  1  0.499538  0.190551  0.514657  1
  Si  Si525  1  0.788062  0.746951  0.493270  1
  Si  Si526  1  0.710499  0.253433  0.522954  1
  Si  Si527  1  0.790870  0.494728  0.492071  1
  Si  Si528  1  0.708842  0.504981  0.523904  1
  Si  Si529  1  0.788720  0.132254  0.489996  1
  Si  Si530  1  0.709335  0.868711  0.526168  1
  Si  Si531  1  0.808382  0.103961  0.539345  1
  Si  Si532  1  0.809592  0.725755  0.543465  1
  Si  Si533  1  0.888186  0.121222  0.571074  1
  Si  Si534  1  0.000000  0.063467  0.521203  1
  Si  Si535  1  0.000000  0.198807  0.499005  1
  Si  Si536  1  0.000000  0.684023  0.525215  1
  Si  Si537  1  0.000000  0.809658  0.501255  1
  Si  Si538  1  0.000000  0.451223  0.499924  1
  Si  Si539  1  0.211418  0.253243  0.652419  1
  Si  Si540  1  0.288951  0.746736  0.622733  1
  Si  Si541  1  0.209126  0.505208  0.653518  1
  Si  Si542  1  0.291178  0.494935  0.621683  1
  Si  Si543  1  0.210239  0.868144  0.655659  1
  Si  Si544  1  0.289719  0.131732  0.619492  1
  Si  Si545  1  0.191425  0.896093  0.606286  1
  Si  Si546  1  0.190220  0.274484  0.602068  1
  Si  Si547  1  0.112889  0.879214  0.574497  1
  Si  Si548  1  -0.000000  0.315960  0.620325  1
  Si  Si549  1  0.000000  0.548691  0.645636  1
  Si  Si550  1  0.000000  0.190418  0.644289  1
  Si  Si551  1  0.000000  0.936590  0.624345  1
  Si  Si552  1  0.499988  0.198549  0.628621  1
  Si  Si553  1  0.000000  0.801075  0.646521  1
  Si  Si554  1  0.788778  0.253028  0.652300  1
  Si  Si555  1  0.711171  0.746731  0.622657  1
  Si  Si556  1  0.791074  0.505164  0.653462  1
  Si  Si557  1  0.708956  0.495021  0.621637  1
  Si  Si558  1  0.789735  0.867810  0.655600  1
  Si  Si559  1  0.710081  0.131353  0.619400  1
  Si  Si560  1  0.808912  0.895990  0.606219  1
  Si  Si561  1  0.809914  0.274439  0.602076  1
  Si  Si562  1  0.888183  0.878845  0.574460  1
  Si  Si563  1  0.500034  0.063393  0.650839  1
  Si  Si564  1  0.500122  0.451012  0.629575  1
  Si  Si565  1  0.500119  0.809632  0.630876  1
  Si  Si566  1  0.500137  0.683923  0.654836  1
  Si  Si567  1  0.308630  0.103800  0.668884  1
  Si  Si568  1  0.308232  0.896299  0.735796  1
  Si  Si569  1  0.309948  0.725696  0.673086  1
  Si  Si570  1  0.309559  0.274470  0.731634  1
  Si  Si571  1  0.388142  0.121309  0.700642  1
  Si  Si572  1  0.388205  0.879086  0.704078  1
  Si  Si573  1  0.691751  0.103694  0.668803  1
  Si  Si574  1  0.691037  0.896220  0.735946  1
  Si  Si575  1  0.690285  0.725496  0.673087  1
  Si  Si576  1  0.689840  0.274571  0.731639  1
  Si  Si577  1  0.612883  0.120944  0.700585  1
  Si  Si578  1  0.612918  0.879031  0.704121  1
  Si  Si579  1  0.210513  0.746820  0.752195  1
  Si  Si580  1  0.288039  0.253109  0.781822  1
  Si  Si581  1  0.208804  0.495185  0.751206  1
  Si  Si582  1  0.290927  0.505338  0.783030  1
  Si  Si583  1  0.209180  0.131566  0.748925  1
  Si  Si584  1  0.288885  0.868033  0.785145  1
  Si  Si585  1  0.191088  0.104008  0.798374  1
  Si  Si586  1  0.189939  0.725499  0.802655  1
  Si  Si587  1  0.499933  0.548934  0.775184  1
  Si  Si588  1  0.499378  0.936713  0.753922  1
  Si  Si589  1  0.499295  0.801409  0.776122  1
  Si  Si590  1  0.499717  0.316163  0.749890  1
  Si  Si591  1  0.499538  0.190551  0.773852  1
  Si  Si592  1  0.788062  0.746951  0.752465  1
  Si  Si593  1  0.710499  0.253433  0.782149  1
  Si  Si594  1  0.790870  0.494728  0.751266  1
  Si  Si595  1  0.708842  0.504981  0.783099  1
  Si  Si596  1  0.788720  0.132254  0.749190  1
  Si  Si597  1  0.709335  0.868711  0.785363  1
  Si  Si598  1  0.808382  0.103961  0.798540  1
  Si  Si599  1  0.809592  0.725755  0.802660  1
  Si  Si600  1  -0.000000  0.063467  0.780398  1
  Si  Si601  1  0.000000  0.198807  0.758200  1
  Si  Si602  1  0.000000  0.684023  0.784409  1
  Si  Si603  1  -0.000000  0.809658  0.760450  1
  Si  Si604  1  0.000000  0.451223  0.759119  1
  H  H605  1  0.165988  0.875576  0.061158  1
  H  H606  1  0.163598  0.213128  0.056835  1
  H  H607  1  0.837589  0.213230  0.056891  1
  H  H608  1  0.834957  0.875063  0.061104  1
  H  H609  1  0.163652  0.787264  0.829496  1
  H  H610  1  0.166025  0.124867  0.825141  1
  H  H611  1  0.834623  0.124745  0.825252  1
  H  H612  1  0.837509  0.786912  0.829449  1
