# generated using pymatgen
data_Si24H2O49
_symmetry_space_group_name_H-M   'P 1'
_cell_length_a   14.42862184
_cell_length_b   7.12517291
_cell_length_c   48.31783461
_cell_angle_alpha   90.00000000
_cell_angle_beta   90.00000000
_cell_angle_gamma   90.00000000
_symmetry_Int_Tables_number   1
_chemical_formula_structural   Si24H2O49
_chemical_formula_sum   'Si48 H4 O98'
_cell_volume   4967.38386191
_cell_formula_units_Z   2
loop_
 _symmetry_equiv_pos_site_id
 _symmetry_equiv_pos_as_xyz
  1  'x, y, z'
loop_
 _atom_site_type_symbol
 _atom_site_label
 _atom_site_symmetry_multiplicity
 _atom_site_fract_x
 _atom_site_fract_y
 _atom_site_fract_z
 _atom_site_occupancy
  O  O1  1  0.000000  0.504611  0.122151  1
  O  O2  1  0.499141  0.495566  0.122108  1
  O  O3  1  0.080943  0.325231  0.163178  1
  O  O4  1  0.419750  0.324383  0.163542  1
  O  O5  1  0.080272  0.675231  0.163536  1
  O  O6  1  0.419123  0.674388  0.163234  1
  O  O7  1  0.919657  0.675217  0.263712  1
  O  O8  1  0.581032  0.674388  0.264075  1
  O  O9  1  0.918996  0.325233  0.264069  1
  O  O10  1  0.580416  0.324394  0.263772  1
  O  O11  1  0.119582  0.000000  0.187346  1
  O  O12  1  0.380384  0.000000  0.187352  1
  O  O13  1  0.880406  0.000000  0.239895  1
  O  O14  1  0.619565  0.000000  0.239901  1
  O  O15  1  0.129973  0.324194  0.213135  1
  O  O16  1  0.369970  0.323296  0.213337  1
  O  O17  1  0.129982  0.676284  0.213353  1
  O  O18  1  0.369949  0.675421  0.213154  1
  O  O19  1  0.870029  0.676278  0.213885  1
  O  O20  1  0.629911  0.675399  0.214086  1
  O  O21  1  0.870041  0.324186  0.214102  1
  O  O22  1  0.629892  0.323338  0.213907  1
  O  O23  1  0.250192  0.235540  0.177898  1
  O  O24  1  0.249776  0.764052  0.177912  1
  O  O25  1  0.750193  0.764075  0.249309  1
  O  O26  1  0.749785  0.235515  0.249325  1
  O  O27  1  0.071635  0.498706  0.257028  1
  O  O28  1  0.428508  0.500731  0.256970  1
  O  O29  1  0.928281  0.498702  0.170188  1
  O  O30  1  0.571850  0.500700  0.170133  1
  O  O31  1  0.249993  0.499708  0.241499  1
  O  O32  1  0.749991  0.499699  0.185762  1
  O  O33  1  -0.000000  0.504611  0.305077  1
  O  O34  1  0.499141  0.495566  0.305034  1
  O  O35  1  0.080943  0.325231  0.346104  1
  O  O36  1  0.419750  0.324383  0.346468  1
  O  O37  1  0.080272  0.675231  0.346462  1
  O  O38  1  0.419123  0.674388  0.346160  1
  O  O39  1  0.919657  0.675217  0.446638  1
  O  O40  1  0.581032  0.674388  0.447001  1
  O  O41  1  0.918996  0.325233  0.446995  1
  O  O42  1  0.580416  0.324394  0.446698  1
  O  O43  1  0.119582  -0.000000  0.370272  1
  O  O44  1  0.380384  -0.000000  0.370278  1
  O  O45  1  0.880406  0.000000  0.422821  1
  O  O46  1  0.619565  0.000000  0.422827  1
  O  O47  1  0.129973  0.324194  0.396061  1
  O  O48  1  0.369970  0.323296  0.396263  1
  O  O49  1  0.129982  0.676284  0.396279  1
  O  O50  1  0.369949  0.675421  0.396080  1
  O  O51  1  0.870029  0.676278  0.396811  1
  O  O52  1  0.629911  0.675399  0.397012  1
  O  O53  1  0.870041  0.324186  0.397028  1
  O  O54  1  0.629892  0.323338  0.396833  1
  O  O55  1  0.250192  0.235540  0.360823  1
  O  O56  1  0.249776  0.764052  0.360838  1
  O  O57  1  0.750193  0.764075  0.432235  1
  O  O58  1  0.749785  0.235515  0.432251  1
  O  O59  1  0.071635  0.498706  0.439954  1
  O  O60  1  0.428508  0.500731  0.439896  1
  O  O61  1  0.928281  0.498702  0.353114  1
  O  O62  1  0.571850  0.500700  0.353059  1
  O  O63  1  0.249993  0.499708  0.424425  1
  O  O64  1  0.749991  0.499699  0.368688  1
  O  O65  1  -0.000000  0.504611  0.488003  1
  O  O66  1  0.499141  0.495566  0.487960  1
  O  O67  1  0.080943  0.325231  0.529030  1
  O  O68  1  0.419750  0.324383  0.529394  1
  O  O69  1  0.080272  0.675231  0.529388  1
  O  O70  1  0.419123  0.674388  0.529086  1
  O  O71  1  0.919657  0.675217  0.629564  1
  O  O72  1  0.581032  0.674388  0.629927  1
  O  O73  1  0.918996  0.325233  0.629921  1
  O  O74  1  0.580416  0.324394  0.629624  1
  O  O75  1  0.119582  0.000000  0.553198  1
  O  O76  1  0.380384  0.000000  0.553204  1
  O  O77  1  0.880406  0.000000  0.605747  1
  O  O78  1  0.619565  0.000000  0.605753  1
  O  O79  1  0.129973  0.324194  0.578987  1
  O  O80  1  0.369970  0.323296  0.579189  1
  O  O81  1  0.129982  0.676284  0.579204  1
  O  O82  1  0.369949  0.675421  0.579006  1
  O  O83  1  0.870029  0.676278  0.579737  1
  O  O84  1  0.629911  0.675399  0.579938  1
  O  O85  1  0.870041  0.324186  0.579954  1
  O  O86  1  0.629892  0.323338  0.579759  1
  O  O87  1  0.250192  0.235540  0.543749  1
  O  O88  1  0.249776  0.764052  0.543764  1
  O  O89  1  0.750193  0.764075  0.615161  1
  O  O90  1  0.749785  0.235515  0.615177  1
  O  O91  1  0.071635  0.498706  0.622880  1
  O  O92  1  0.428508  0.500731  0.622822  1
  O  O93  1  0.928281  0.498702  0.536040  1
  O  O94  1  0.571850  0.500700  0.535985  1
  O  O95  1  0.249993  0.499708  0.607351  1
  O  O96  1  0.749991  0.499699  0.551614  1
  O  O97  1  0.000000  0.504611  0.670929  1
  O  O98  1  0.499141  0.495566  0.670886  1
  Si  Si99  1  0.143418  0.216214  0.184804  1
  Si  Si100  1  0.356819  0.215381  0.184983  1
  Si  Si101  1  0.143145  0.784221  0.184996  1
  Si  Si102  1  0.356548  0.783394  0.184824  1
  Si  Si103  1  0.856824  0.784214  0.242239  1
  Si  Si104  1  0.643416  0.783393  0.242418  1
  Si  Si105  1  0.856557  0.216208  0.242432  1
  Si  Si106  1  0.643150  0.215395  0.242262  1
  Si  Si107  1  0.143829  0.499637  0.232827  1
  Si  Si108  1  0.356150  0.499860  0.232824  1
  Si  Si109  1  0.856149  0.499630  0.194413  1
  Si  Si110  1  0.643826  0.499858  0.194412  1
  Si  Si111  1  0.021674  0.500285  0.153667  1
  Si  Si112  1  0.478322  0.499375  0.153673  1
  Si  Si113  1  0.978283  0.500282  0.273566  1
  Si  Si114  1  0.521718  0.499383  0.273572  1
  Si  Si115  1  0.143418  0.216214  0.367730  1
  Si  Si116  1  0.356819  0.215381  0.367909  1
  Si  Si117  1  0.143145  0.784221  0.367922  1
  Si  Si118  1  0.356548  0.783394  0.367750  1
  Si  Si119  1  0.856824  0.784214  0.425165  1
  Si  Si120  1  0.643416  0.783393  0.425344  1
  Si  Si121  1  0.856557  0.216208  0.425358  1
  Si  Si122  1  0.643150  0.215395  0.425188  1
  Si  Si123  1  0.143829  0.499637  0.415752  1
  Si  Si124  1  0.356150  0.499860  0.415750  1
  Si  Si125  1  0.856149  0.499630  0.377339  1
  Si  Si126  1  0.643826  0.499858  0.377338  1
  Si  Si127  1  0.021674  0.500285  0.336593  1
  Si  Si128  1  0.478322  0.499375  0.336599  1
  Si  Si129  1  0.978283  0.500282  0.456492  1
  Si  Si130  1  0.521718  0.499383  0.456498  1
  Si  Si131  1  0.143418  0.216214  0.550656  1
  Si  Si132  1  0.356819  0.215381  0.550834  1
  Si  Si133  1  0.143145  0.784221  0.550848  1
  Si  Si134  1  0.356548  0.783394  0.550676  1
  Si  Si135  1  0.856824  0.784214  0.608091  1
  Si  Si136  1  0.643416  0.783393  0.608270  1
  Si  Si137  1  0.856557  0.216208  0.608284  1
  Si  Si138  1  0.643150  0.215395  0.608114  1
  Si  Si139  1  0.143829  0.499637  0.598678  1
  Si  Si140  1  0.356150  0.499860  0.598676  1
  Si  Si141  1  0.856149  0.499630  0.560265  1
  Si  Si142  1  0.643826  0.499858  0.560264  1
  Si  Si143  1  0.021674  0.500285  0.519519  1
  Si  Si144  1  0.478322  0.499375  0.519525  1
  Si  Si145  1  0.978283  0.500282  0.639418  1
  Si  Si146  1  0.521718  0.499383  0.639424  1
  H  H147  1  0.000000  0.504611  0.103525  1
  H  H148  1  0.499141  0.495566  0.103481  1
  H  H149  1  -0.000000  0.504611  0.689556  1
  H  H150  1  0.499141  0.495566  0.689512  1
