# generated using pymatgen
data_Si16H2O33
_symmetry_space_group_name_H-M   'P 1'
_cell_length_a   13.85795342
_cell_length_b   12.35340462
_cell_length_c   44.84544983
_cell_angle_alpha   109.12820000
_cell_angle_beta   90.00000000
_cell_angle_gamma   90.00000000
_symmetry_Int_Tables_number   1
_chemical_formula_structural   Si16H2O33
_chemical_formula_sum   'Si64 H8 O132'
_cell_volume   7253.34609385
_cell_formula_units_Z   4
loop_
 _symmetry_equiv_pos_site_id
 _symmetry_equiv_pos_as_xyz
  1  'x, y, z'
loop_
 _atom_site_type_symbol
 _atom_site_label
 _atom_site_symmetry_multiplicity
 _atom_site_fract_x
 _atom_site_fract_y
 _atom_site_fract_z
 _atom_site_occupancy
  O  O1  1  0.165988  0.875576  0.147055  1
  O  O2  1  0.000000  0.445346  0.232422  1
  O  O3  1  0.000000  0.667179  0.258092  1
  O  O4  1  0.000000  0.239582  0.233325  1
  O  O5  1  0.163598  0.213128  0.138079  1
  O  O6  1  0.099286  0.230672  0.278638  1
  O  O7  1  0.400987  0.769683  0.216396  1
  O  O8  1  0.235897  0.795686  0.192607  1
  O  O9  1  0.226717  0.384330  0.284079  1
  O  O10  1  0.274530  0.615230  0.210437  1
  O  O11  1  0.247303  0.186352  0.243977  1
  O  O12  1  0.252803  0.813028  0.250995  1
  O  O13  1  0.097707  0.532679  0.280493  1
  O  O14  1  0.402397  0.466745  0.214642  1
  O  O15  1  0.249902  0.502440  0.247690  1
  O  O16  1  0.241049  0.395104  0.187243  1
  O  O17  1  0.258977  0.002861  0.196332  1
  O  O18  1  0.097497  0.850692  0.283292  1
  O  O19  1  0.402436  0.149359  0.211640  1
  O  O20  1  0.247910  0.192554  0.187291  1
  O  O21  1  0.093131  0.929087  0.200041  1
  O  O22  1  0.091276  0.288055  0.190747  1
  O  O23  1  0.000000  0.056664  0.246556  1
  O  O24  1  0.499974  0.159385  0.259028  1
  O  O25  1  0.499987  0.943295  0.248499  1
  O  O26  1  0.000000  0.840346  0.235911  1
  O  O27  1  0.837589  0.213230  0.138195  1
  O  O28  1  0.500534  0.759990  0.261558  1
  O  O29  1  0.900913  0.230739  0.278460  1
  O  O30  1  0.599154  0.769958  0.216286  1
  O  O31  1  0.764352  0.795624  0.192464  1
  O  O32  1  0.773348  0.384109  0.283836  1
  O  O33  1  0.725427  0.615205  0.210263  1
  O  O34  1  0.752908  0.185973  0.243736  1
  O  O35  1  0.747390  0.812812  0.250843  1
  O  O36  1  0.902512  0.532623  0.280439  1
  O  O37  1  0.597771  0.466740  0.214601  1
  O  O38  1  0.750392  0.502795  0.247597  1
  O  O39  1  0.759203  0.395170  0.187178  1
  O  O40  1  0.741055  0.002577  0.196031  1
  O  O41  1  0.902467  0.850306  0.283255  1
  O  O42  1  0.597356  0.148909  0.211582  1
  O  O43  1  0.751411  0.192476  0.187092  1
  O  O44  1  0.834957  0.875063  0.146942  1
  O  O45  1  0.906884  0.929390  0.200085  1
  O  O46  1  0.908241  0.287628  0.191106  1
  O  O47  1  0.500146  0.554447  0.262627  1
  O  O48  1  0.500167  0.332488  0.236942  1
  O  O49  1  0.264328  0.204354  0.302388  1
  O  O50  1  0.263631  0.795805  0.461444  1
  O  O51  1  0.259026  0.604921  0.307934  1
  O  O52  1  0.259121  0.395384  0.456207  1
  O  O53  1  0.241113  0.996998  0.298612  1
  O  O54  1  0.240259  0.002813  0.465011  1
  O  O55  1  0.251680  0.807558  0.307774  1
  O  O56  1  0.250482  0.192595  0.455994  1
  O  O57  1  0.408411  0.712267  0.303931  1
  O  O58  1  0.407575  0.287244  0.460275  1
  O  O59  1  0.337670  0.213470  0.407226  1
  O  O60  1  0.337473  0.787205  0.356768  1
  O  O61  1  0.334370  0.124549  0.347928  1
  O  O62  1  0.334718  0.875394  0.416036  1
  O  O63  1  0.375538  0.000000  0.382063  1
  O  O64  1  0.406929  0.070801  0.294956  1
  O  O65  1  0.406078  0.929686  0.469214  1
  O  O66  1  0.735971  0.204158  0.302161  1
  O  O67  1  0.735242  0.795799  0.461906  1
  O  O68  1  0.741246  0.604779  0.307858  1
  O  O69  1  0.741164  0.395055  0.456125  1
  O  O70  1  0.759093  0.996752  0.298419  1
  O  O71  1  0.758211  0.003264  0.465720  1
  O  O72  1  0.747977  0.807378  0.307637  1
  O  O73  1  0.746793  0.192600  0.456503  1
  O  O74  1  0.591362  0.711892  0.304185  1
  O  O75  1  0.590569  0.288822  0.459620  1
  O  O76  1  0.663567  0.212849  0.407115  1
  O  O77  1  0.663610  0.787034  0.356857  1
  O  O78  1  0.666363  0.124404  0.347783  1
  O  O79  1  0.666130  0.875622  0.416220  1
  O  O80  1  0.625519  0.000000  0.381967  1
  O  O81  1  0.500518  0.140862  0.377226  1
  O  O82  1  0.592398  0.928968  0.469049  1
  O  O83  1  0.593287  0.070796  0.294886  1
  O  O84  1  0.500543  0.859231  0.386667  1
  O  O85  1  0.163652  0.787264  0.625902  1
  O  O86  1  0.499729  0.445591  0.501413  1
  O  O87  1  0.499630  0.056834  0.515569  1
  O  O88  1  -0.000000  0.760271  0.530649  1
  O  O89  1  0.098445  0.769912  0.485234  1
  O  O90  1  0.400127  0.230742  0.547375  1
  O  O91  1  0.235242  0.204322  0.571116  1
  O  O92  1  0.225029  0.615356  0.479265  1
  O  O93  1  0.272888  0.384266  0.552820  1
  O  O94  1  0.246678  0.813109  0.519807  1
  O  O95  1  0.252091  0.186254  0.512668  1
  O  O96  1  0.097665  0.466778  0.483637  1
  O  O97  1  0.402416  0.532651  0.549476  1
  O  O98  1  0.250270  0.503142  0.516639  1
  O  O99  1  0.241213  0.604993  0.576901  1
  O  O100  1  0.258359  0.997008  0.567432  1
  O  O101  1  0.096433  0.149044  0.480566  1
  O  O102  1  0.401600  0.850462  0.552297  1
  O  O103  1  0.247010  0.807511  0.576569  1
  O  O104  1  0.166025  0.124867  0.616860  1
  O  O105  1  0.092572  0.071014  0.563963  1
  O  O106  1  0.090718  0.711357  0.573370  1
  O  O107  1  0.499360  0.840623  0.505005  1
  O  O108  1  0.499653  0.667488  0.527130  1
  O  O109  1  0.834623  0.124745  0.617091  1
  O  O110  1  0.837509  0.786912  0.625804  1
  O  O111  1  0.000000  0.554603  0.531620  1
  O  O112  1  0.900162  0.769304  0.485632  1
  O  O113  1  0.598345  0.230497  0.547854  1
  O  O114  1  0.763907  0.204516  0.571668  1
  O  O115  1  0.772845  0.615808  0.480205  1
  O  O116  1  0.725087  0.384874  0.553826  1
  O  O117  1  0.752155  0.813934  0.520335  1
  O  O118  1  0.746579  0.187194  0.513309  1
  O  O119  1  0.902367  0.467451  0.483555  1
  O  O120  1  0.597696  0.533344  0.549406  1
  O  O121  1  0.750252  0.496926  0.516392  1
  O  O122  1  0.759135  0.604861  0.576819  1
  O  O123  1  0.740439  0.997458  0.568011  1
  O  O124  1  0.901442  0.149814  0.480800  1
  O  O125  1  0.596590  0.851215  0.552479  1
  O  O126  1  0.750661  0.807627  0.576994  1
  O  O127  1  0.500850  0.239903  0.502382  1
  O  O128  1  0.906319  0.070633  0.563954  1
  O  O129  1  0.907711  0.712916  0.572803  1
  O  O130  1  0.000000  0.159576  0.528073  1
  O  O131  1  0.000000  0.332722  0.505942  1
  O  O132  1  0.000000  0.943371  0.517493  1
  Si  Si133  1  0.211418  0.253243  0.278294  1
  Si  Si134  1  0.288951  0.746736  0.216654  1
  Si  Si135  1  0.209126  0.505208  0.280575  1
  Si  Si136  1  0.291178  0.494935  0.214474  1
  Si  Si137  1  0.210239  0.868144  0.285022  1
  Si  Si138  1  0.289719  0.131732  0.209926  1
  Si  Si139  1  0.191425  0.896093  0.182505  1
  Si  Si140  1  0.190220  0.274484  0.173747  1
  Si  Si141  1  -0.000000  0.315960  0.211656  1
  Si  Si142  1  0.000000  0.548691  0.264209  1
  Si  Si143  1  0.000000  0.190418  0.261413  1
  Si  Si144  1  0.000000  0.936590  0.220002  1
  Si  Si145  1  0.499988  0.198549  0.228881  1
  Si  Si146  1  -0.000000  0.801075  0.266047  1
  Si  Si147  1  0.788778  0.253028  0.278047  1
  Si  Si148  1  0.711171  0.746731  0.216498  1
  Si  Si149  1  0.791074  0.505164  0.280459  1
  Si  Si150  1  0.708956  0.495021  0.214380  1
  Si  Si151  1  0.789735  0.867810  0.284900  1
  Si  Si152  1  0.710081  0.131353  0.209734  1
  Si  Si153  1  0.808912  0.895990  0.182366  1
  Si  Si154  1  0.809914  0.274439  0.173764  1
  Si  Si155  1  0.500034  0.063393  0.275013  1
  Si  Si156  1  0.500122  0.451012  0.230862  1
  Si  Si157  1  0.500119  0.809632  0.233563  1
  Si  Si158  1  0.500137  0.683923  0.283313  1
  Si  Si159  1  0.308630  0.103800  0.312482  1
  Si  Si160  1  0.308232  0.896299  0.451416  1
  Si  Si161  1  0.309948  0.725696  0.321207  1
  Si  Si162  1  0.309559  0.274470  0.442773  1
  Si  Si163  1  0.388142  0.121309  0.378422  1
  Si  Si164  1  0.388205  0.879086  0.385558  1
  Si  Si165  1  0.691751  0.103694  0.312313  1
  Si  Si166  1  0.691037  0.896220  0.451727  1
  Si  Si167  1  0.690285  0.725496  0.321208  1
  Si  Si168  1  0.689840  0.274571  0.442784  1
  Si  Si169  1  0.612883  0.120944  0.378304  1
  Si  Si170  1  0.612918  0.879031  0.385647  1
  Si  Si171  1  0.210513  0.746820  0.485466  1
  Si  Si172  1  0.288039  0.253109  0.546981  1
  Si  Si173  1  0.208804  0.495185  0.483412  1
  Si  Si174  1  0.290927  0.505338  0.549490  1
  Si  Si175  1  0.209180  0.131566  0.478676  1
  Si  Si176  1  0.288885  0.868033  0.553883  1
  Si  Si177  1  0.191088  0.104008  0.581350  1
  Si  Si178  1  0.189939  0.725499  0.590240  1
  Si  Si179  1  0.499933  0.548934  0.533200  1
  Si  Si180  1  0.499378  0.936713  0.489051  1
  Si  Si181  1  0.499295  0.801409  0.535147  1
  Si  Si182  1  0.499717  0.316163  0.480679  1
  Si  Si183  1  0.499538  0.190551  0.530433  1
  Si  Si184  1  0.788062  0.746951  0.486026  1
  Si  Si185  1  0.710499  0.253433  0.547661  1
  Si  Si186  1  0.790870  0.494728  0.483537  1
  Si  Si187  1  0.708842  0.504981  0.549633  1
  Si  Si188  1  0.788720  0.132254  0.479227  1
  Si  Si189  1  0.709335  0.868711  0.554334  1
  Si  Si190  1  0.808382  0.103961  0.581694  1
  Si  Si191  1  0.809592  0.725755  0.590249  1
  Si  Si192  1  0.000000  0.063467  0.544025  1
  Si  Si193  1  -0.000000  0.198807  0.497933  1
  Si  Si194  1  0.000000  0.684023  0.552355  1
  Si  Si195  1  0.000000  0.809658  0.502605  1
  Si  Si196  1  0.000000  0.451223  0.499842  1
  H  H197  1  0.165988  0.875576  0.126986  1
  H  H198  1  0.163598  0.213128  0.118010  1
  H  H199  1  0.837589  0.213230  0.118126  1
  H  H200  1  0.834957  0.875063  0.126873  1
  H  H201  1  0.163652  0.787264  0.645971  1
  H  H202  1  0.166025  0.124867  0.636929  1
  H  H203  1  0.834623  0.124745  0.637159  1
  H  H204  1  0.837509  0.786912  0.645873  1
