# generated using pymatgen
data_Si18H2O37
_symmetry_space_group_name_H-M   'P 1'
_cell_length_a   5.10321483
_cell_length_b   25.89467084
_cell_length_c   72.88631524
_cell_angle_alpha   45.00281648
_cell_angle_beta   90.00000000
_cell_angle_gamma   90.00000000
_symmetry_Int_Tables_number   1
_chemical_formula_structural   Si18H2O37
_chemical_formula_sum   'Si72 H8 O148'
_cell_volume   6810.93272781
_cell_formula_units_Z   4
loop_
 _symmetry_equiv_pos_site_id
 _symmetry_equiv_pos_as_xyz
  1  'x, y, z'
loop_
 _atom_site_type_symbol
 _atom_site_label
 _atom_site_symmetry_multiplicity
 _atom_site_fract_x
 _atom_site_fract_y
 _atom_site_fract_z
 _atom_site_occupancy
  O  O1  1  0.504962  0.202847  0.175513  1
  O  O2  1  0.002846  0.702838  0.175523  1
  O  O3  1  0.004242  0.297295  0.277372  1
  O  O4  1  0.501862  0.797318  0.128064  1
  O  O5  1  0.004522  0.297238  0.128058  1
  O  O6  1  0.260001  0.320137  0.151335  1
  O  O7  1  0.751602  0.819103  0.151889  1
  O  O8  1  0.244867  0.820279  0.242665  1
  O  O9  1  0.752467  0.319316  0.242605  1
  O  O10  1  0.251303  0.680973  0.151696  1
  O  O11  1  0.751978  0.181152  0.151611  1
  O  O12  1  0.251991  0.180394  0.151995  1
  O  O13  1  0.751293  0.680751  0.151875  1
  O  O14  1  0.252480  0.319173  0.242592  1
  O  O15  1  0.744860  0.818202  0.242654  1
  O  O16  1  0.251591  0.819508  0.151705  1
  O  O17  1  0.760005  0.318461  0.152202  1
  O  O18  1  0.502825  0.258455  0.194168  1
  O  O19  1  0.003683  0.758397  0.194203  1
  O  O20  1  0.502138  0.927167  0.230824  1
  O  O21  1  0.002202  0.427187  0.230758  1
  O  O22  1  0.503313  0.741751  0.109386  1
  O  O23  1  0.003598  0.241552  0.109415  1
  O  O24  1  0.504854  0.072903  0.194211  1
  O  O25  1  0.002062  0.572923  0.194172  1
  O  O26  1  0.501743  0.258388  0.230780  1
  O  O27  1  0.002646  0.758491  0.230797  1
  O  O28  1  0.502974  0.927217  0.109388  1
  O  O29  1  0.003162  0.427173  0.109358  1
  O  O30  1  0.697650  0.155482  0.238402  1
  O  O31  1  0.199792  0.655669  0.238415  1
  O  O32  1  0.698653  0.000000  0.238479  1
  O  O33  1  0.198530  0.499998  0.238290  1
  O  O34  1  0.200634  0.176193  0.233038  1
  O  O35  1  0.702834  0.676019  0.233142  1
  O  O36  1  0.201683  -0.000000  0.233005  1
  O  O37  1  0.701652  0.499995  0.233195  1
  O  O38  1  -0.000000  0.068729  0.242904  1
  O  O39  1  0.499416  0.569130  0.242707  1
  O  O40  1  0.504962  0.202847  0.426717  1
  O  O41  1  0.002846  0.702838  0.426727  1
  O  O42  1  0.501666  0.797210  0.277434  1
  O  O43  1  0.004242  0.297295  0.528576  1
  O  O44  1  0.501862  0.797318  0.379269  1
  O  O45  1  0.004522  0.297238  0.379263  1
  O  O46  1  0.503751  0.202800  0.277387  1
  O  O47  1  0.001758  0.702830  0.277415  1
  O  O48  1  0.260001  0.320137  0.402540  1
  O  O49  1  0.751602  0.819103  0.403094  1
  O  O50  1  0.244867  0.820279  0.493870  1
  O  O51  1  0.752467  0.319316  0.493810  1
  O  O52  1  0.251303  0.680973  0.402901  1
  O  O53  1  0.751978  0.181152  0.402816  1
  O  O54  1  0.257222  0.181218  0.312176  1
  O  O55  1  0.755797  0.681297  0.312186  1
  O  O56  1  0.255788  0.680246  0.312217  1
  O  O57  1  0.757243  0.180483  0.312140  1
  O  O58  1  0.251991  0.180394  0.403199  1
  O  O59  1  0.751293  0.680751  0.403080  1
  O  O60  1  0.252480  0.319173  0.493797  1
  O  O61  1  0.744860  0.818202  0.493859  1
  O  O62  1  0.251591  0.819508  0.402910  1
  O  O63  1  0.760005  0.318461  0.403407  1
  O  O64  1  0.502825  0.258455  0.445373  1
  O  O65  1  0.003683  0.758397  0.445408  1
  O  O66  1  0.502138  0.927167  0.482029  1
  O  O67  1  0.002202  0.427187  0.481963  1
  O  O68  1  0.503313  0.741751  0.360591  1
  O  O69  1  0.003598  0.241552  0.360620  1
  O  O70  1  0.505061  0.072912  0.323993  1
  O  O71  1  0.002373  0.572878  0.323984  1
  O  O72  1  0.503880  0.741674  0.324017  1
  O  O73  1  0.003881  0.241740  0.323967  1
  O  O74  1  0.504854  0.072903  0.445416  1
  O  O75  1  0.002062  0.572923  0.445377  1
  O  O76  1  0.501743  0.258388  0.481985  1
  O  O77  1  0.002646  0.758491  0.482002  1
  O  O78  1  0.502974  0.927217  0.360593  1
  O  O79  1  0.003162  0.427173  0.360563  1
  O  O80  1  0.697650  0.155482  0.489607  1
  O  O81  1  0.199792  0.655669  0.489620  1
  O  O82  1  0.698653  -0.000000  0.489684  1
  O  O83  1  0.198530  0.499998  0.489495  1
  O  O84  1  0.806042  0.823881  0.321737  1
  O  O85  1  0.199711  0.344456  0.316569  1
  O  O86  1  0.805705  0.000000  0.321779  1
  O  O87  1  0.305423  0.500174  0.321635  1
  O  O88  1  0.309101  0.844705  0.316371  1
  O  O89  1  0.702786  0.324037  0.321583  1
  O  O90  1  0.308690  -0.000000  0.316334  1
  O  O91  1  0.808332  0.500006  0.316384  1
  O  O92  1  0.200634  0.176193  0.484243  1
  O  O93  1  0.702834  0.676019  0.484347  1
  O  O94  1  0.201683  -0.000000  0.484209  1
  O  O95  1  0.701652  0.499995  0.484400  1
  O  O96  1  -0.000000  0.068729  0.494109  1
  O  O97  1  0.499416  0.569130  0.493911  1
  O  O98  1  0.004219  0.930385  0.277398  1
  O  O99  1  0.499636  0.430966  0.277428  1
  O  O100  1  0.007586  0.931385  0.311898  1
  O  O101  1  0.503147  0.430784  0.312232  1
  O  O102  1  0.002879  0.069744  0.277398  1
  O  O103  1  0.503558  0.569290  0.277422  1
  O  O104  1  0.504962  0.202847  0.677922  1
  O  O105  1  0.002846  0.702838  0.677932  1
  O  O106  1  0.501666  0.797210  0.528639  1
  O  O107  1  0.501862  0.797318  0.630474  1
  O  O108  1  0.004522  0.297238  0.630468  1
  O  O109  1  0.503751  0.202800  0.528592  1
  O  O110  1  0.001758  0.702830  0.528620  1
  O  O111  1  0.260001  0.320137  0.653745  1
  O  O112  1  0.751602  0.819103  0.654298  1
  O  O113  1  0.251303  0.680973  0.654106  1
  O  O114  1  0.751978  0.181152  0.654021  1
  O  O115  1  0.257222  0.181218  0.563381  1
  O  O116  1  0.755797  0.681297  0.563390  1
  O  O117  1  0.255788  0.680246  0.563422  1
  O  O118  1  0.757243  0.180483  0.563345  1
  O  O119  1  0.251991  0.180394  0.654404  1
  O  O120  1  0.751293  0.680751  0.654285  1
  O  O121  1  0.251591  0.819508  0.654115  1
  O  O122  1  0.760005  0.318461  0.654611  1
  O  O123  1  0.502825  0.258455  0.696578  1
  O  O124  1  0.003683  0.758397  0.696613  1
  O  O125  1  0.503313  0.741751  0.611796  1
  O  O126  1  0.003598  0.241552  0.611825  1
  O  O127  1  0.505061  0.072912  0.575198  1
  O  O128  1  0.002373  0.572878  0.575189  1
  O  O129  1  0.503880  0.741674  0.575222  1
  O  O130  1  0.003881  0.241740  0.575172  1
  O  O131  1  0.504854  0.072903  0.696621  1
  O  O132  1  0.002062  0.572923  0.696582  1
  O  O133  1  0.502974  0.927217  0.611798  1
  O  O134  1  0.003162  0.427173  0.611768  1
  O  O135  1  0.806042  0.823881  0.572942  1
  O  O136  1  0.199711  0.344456  0.567773  1
  O  O137  1  0.805705  0.000000  0.572983  1
  O  O138  1  0.305423  0.500174  0.572840  1
  O  O139  1  0.309101  0.844705  0.567576  1
  O  O140  1  0.702786  0.324037  0.572788  1
  O  O141  1  0.308690  -0.000000  0.567539  1
  O  O142  1  0.808332  0.500006  0.567589  1
  O  O143  1  0.004219  0.930385  0.528603  1
  O  O144  1  0.499636  0.430966  0.528633  1
  O  O145  1  0.007586  0.931385  0.563103  1
  O  O146  1  0.503147  0.430784  0.563436  1
  O  O147  1  0.002879  0.069744  0.528603  1
  O  O148  1  0.503558  0.569290  0.528627  1
  Si  Si149  1  0.506990  0.275853  0.168676  1
  Si  Si150  1  0.002249  0.775821  0.168702  1
  Si  Si151  1  0.498486  0.843072  0.247586  1
  Si  Si152  1  0.002819  0.343084  0.247528  1
  Si  Si153  1  0.501923  0.724342  0.134881  1
  Si  Si154  1  0.003287  0.224228  0.134897  1
  Si  Si155  1  0.503359  0.156983  0.168705  1
  Si  Si156  1  0.001909  0.657028  0.168692  1
  Si  Si157  1  0.502762  0.275765  0.247539  1
  Si  Si158  1  0.998516  0.775819  0.247574  1
  Si  Si159  1  0.502200  0.843136  0.134890  1
  Si  Si160  1  0.007022  0.343100  0.134867  1
  Si  Si161  1  0.974318  0.118856  0.247613  1
  Si  Si162  1  0.476064  0.618854  0.247606  1
  Si  Si163  1  0.975340  -0.000000  0.247618  1
  Si  Si164  1  0.474730  0.500023  0.247541  1
  Si  Si165  1  0.474822  0.214026  0.223617  1
  Si  Si166  1  0.976574  0.714069  0.223649  1
  Si  Si167  1  0.475912  -0.000000  0.223649  1
  Si  Si168  1  0.975330  0.500025  0.223619  1
  Si  Si169  1  0.506990  0.275853  0.419880  1
  Si  Si170  1  0.002249  0.775821  0.419907  1
  Si  Si171  1  0.498486  0.843072  0.498791  1
  Si  Si172  1  0.002819  0.343084  0.498733  1
  Si  Si173  1  0.501923  0.724342  0.386086  1
  Si  Si174  1  0.003287  0.224228  0.386102  1
  Si  Si175  1  0.505845  0.157009  0.307230  1
  Si  Si176  1  0.004051  0.656948  0.307264  1
  Si  Si177  1  0.504092  0.724226  0.307277  1
  Si  Si178  1  0.005793  0.224329  0.307219  1
  Si  Si179  1  0.503359  0.156983  0.419910  1
  Si  Si180  1  0.001909  0.657028  0.419897  1
  Si  Si181  1  0.502762  0.275765  0.498743  1
  Si  Si182  1  0.998516  0.775819  0.498779  1
  Si  Si183  1  0.502200  0.843136  0.386095  1
  Si  Si184  1  0.007022  0.343100  0.386071  1
  Si  Si185  1  0.974318  0.118856  0.498818  1
  Si  Si186  1  0.476064  0.618854  0.498811  1
  Si  Si187  1  0.975340  -0.000000  0.498823  1
  Si  Si188  1  0.474730  0.500023  0.498746  1
  Si  Si189  1  0.032319  0.881257  0.307187  1
  Si  Si190  1  0.476049  0.381229  0.307308  1
  Si  Si191  1  0.031973  -0.000000  0.307179  1
  Si  Si192  1  0.531279  0.500056  0.307221  1
  Si  Si193  1  0.474822  0.214026  0.474822  1
  Si  Si194  1  0.976574  0.714069  0.474854  1
  Si  Si195  1  0.475912  -0.000000  0.474854  1
  Si  Si196  1  0.975330  0.500025  0.474824  1
  Si  Si197  1  0.531697  0.786097  0.331153  1
  Si  Si198  1  0.976622  0.286023  0.331157  1
  Si  Si199  1  0.531471  -0.000000  0.331151  1
  Si  Si200  1  0.030798  0.500064  0.331116  1
  Si  Si201  1  0.506990  0.275853  0.671085  1
  Si  Si202  1  0.002249  0.775821  0.671112  1
  Si  Si203  1  0.501923  0.724342  0.637291  1
  Si  Si204  1  0.003287  0.224228  0.637306  1
  Si  Si205  1  0.505845  0.157009  0.558435  1
  Si  Si206  1  0.004051  0.656948  0.558469  1
  Si  Si207  1  0.504092  0.724226  0.558482  1
  Si  Si208  1  0.005793  0.224329  0.558424  1
  Si  Si209  1  0.503359  0.156983  0.671114  1
  Si  Si210  1  0.001909  0.657028  0.671102  1
  Si  Si211  1  0.502200  0.843136  0.637300  1
  Si  Si212  1  0.007022  0.343100  0.637276  1
  Si  Si213  1  0.032319  0.881257  0.558392  1
  Si  Si214  1  0.476049  0.381229  0.558513  1
  Si  Si215  1  0.031973  0.000000  0.558383  1
  Si  Si216  1  0.531279  0.500056  0.558426  1
  Si  Si217  1  0.531697  0.786097  0.582358  1
  Si  Si218  1  0.976622  0.286023  0.582362  1
  Si  Si219  1  0.531471  0.000000  0.582356  1
  Si  Si220  1  0.030798  0.500064  0.582321  1
  H  H221  1  0.503313  0.741751  0.097038  1
  H  H222  1  0.003598  0.241552  0.097067  1
  H  H223  1  0.502974  0.927217  0.097040  1
  H  H224  1  0.003162  0.427173  0.097010  1
  H  H225  1  0.502825  0.258455  0.708926  1
  H  H226  1  0.003683  0.758397  0.708961  1
  H  H227  1  0.504854  0.072903  0.708969  1
  H  H228  1  0.002062  0.572923  0.708930  1
