# generated using pymatgen
data_Si57(HO29)4
_symmetry_space_group_name_H-M   'P 1'
_cell_length_a   13.67170804
_cell_length_b   13.69327883
_cell_length_c   69.94554230
_cell_angle_alpha   90.00000000
_cell_angle_beta   90.00000000
_cell_angle_gamma   90.00000000
_symmetry_Int_Tables_number   1
_chemical_formula_structural   Si57(HO29)4
_chemical_formula_sum   'Si114 H8 O232'
_cell_volume   13094.5406655
_cell_formula_units_Z   2
loop_
 _symmetry_equiv_pos_site_id
 _symmetry_equiv_pos_as_xyz
  1  'x, y, z'
loop_
 _atom_site_type_symbol
 _atom_site_label
 _atom_site_symmetry_multiplicity
 _atom_site_fract_x
 _atom_site_fract_y
 _atom_site_fract_z
 _atom_site_occupancy
  O  O1  1  0.411243  0.001173  0.112431  1
  O  O2  1  -0.000000  0.588650  0.112390  1
  O  O3  1  0.499294  0.911717  0.084418  1
  O  O4  1  -0.000000  0.411544  0.112323  1
  O  O5  1  0.000000  0.499365  0.274597  1
  O  O6  1  0.499882  0.000000  0.142265  1
  O  O7  1  0.369159  0.499967  0.208424  1
  O  O8  1  0.339904  0.660902  0.225806  1
  O  O9  1  0.340146  0.339157  0.225955  1
  O  O10  1  0.339783  0.339571  0.190871  1
  O  O11  1  0.338981  0.659525  0.190596  1
  O  O12  1  0.336000  0.091220  0.142472  1
  O  O13  1  0.088378  0.664127  0.142919  1
  O  O14  1  0.090436  0.336621  0.142474  1
  O  O15  1  0.335764  0.910907  0.142417  1
  O  O16  1  0.090968  0.663312  0.274449  1
  O  O17  1  0.336393  0.090004  0.274391  1
  O  O18  1  0.336025  0.909787  0.274446  1
  O  O19  1  0.089930  0.335442  0.274376  1
  O  O20  1  0.231453  0.000000  0.163794  1
  O  O21  1  -0.000000  0.768503  0.164135  1
  O  O22  1  -0.000000  0.768305  0.253204  1
  O  O23  1  0.231548  0.000000  0.253123  1
  O  O24  1  0.294545  0.830253  0.241362  1
  O  O25  1  0.170678  0.294573  0.241386  1
  O  O26  1  0.170572  0.705103  0.241489  1
  O  O27  1  0.294807  0.169675  0.241362  1
  O  O28  1  0.169668  0.294959  0.175498  1
  O  O29  1  0.293504  0.829613  0.175336  1
  O  O30  1  0.294369  0.170613  0.175421  1
  O  O31  1  0.168739  0.702264  0.175838  1
  O  O32  1  0.166240  0.167403  0.151550  1
  O  O33  1  0.167211  0.833161  0.151860  1
  O  O34  1  0.167286  0.832774  0.265416  1
  O  O35  1  0.166949  0.166606  0.265283  1
  O  O36  1  0.232307  0.766197  0.208388  1
  O  O37  1  0.232956  0.232927  0.208407  1
  O  O38  1  0.000000  0.499828  0.142112  1
  O  O39  1  0.499842  0.630753  0.208102  1
  O  O40  1  0.499998  0.998993  0.274754  1
  O  O41  1  0.001684  0.500361  0.362017  1
  O  O42  1  0.130779  0.000000  0.428334  1
  O  O43  1  0.160842  0.840094  0.410799  1
  O  O44  1  0.162497  0.162664  0.411291  1
  O  O45  1  0.409277  0.835650  0.362443  1
  O  O46  1  0.164234  0.409188  0.362712  1
  O  O47  1  0.165337  0.590332  0.362571  1
  O  O48  1  0.408409  0.163096  0.362377  1
  O  O49  1  0.089348  0.499236  0.332592  1
  O  O50  1  -0.000000  0.588130  0.304435  1
  O  O51  1  0.411172  0.000000  0.304635  1
  O  O52  1  0.499678  0.908827  0.332348  1
  O  O53  1  0.268578  0.500362  0.384044  1
  O  O54  1  0.498162  0.000000  0.361695  1
  O  O55  1  0.206189  0.670623  0.395619  1
  O  O56  1  0.332056  0.202931  0.395604  1
  O  O57  1  0.330932  0.794855  0.395562  1
  O  O58  1  0.204408  0.331532  0.395792  1
  O  O59  1  0.334318  0.666860  0.371745  1
  O  O60  1  0.332708  0.331648  0.372095  1
  O  O61  1  0.269876  0.268142  0.428245  1
  O  O62  1  0.499827  0.090732  0.332300  1
  O  O63  1  0.588600  0.000000  0.112471  1
  O  O64  1  0.500575  0.088797  0.084351  1
  O  O65  1  0.000000  0.232835  0.252902  1
  O  O66  1  0.631254  0.499389  0.208364  1
  O  O67  1  0.661205  0.661888  0.225619  1
  O  O68  1  0.661451  0.340387  0.226131  1
  O  O69  1  0.661042  0.339315  0.190810  1
  O  O70  1  0.661364  0.660122  0.190909  1
  O  O71  1  0.911755  0.335760  0.142780  1
  O  O72  1  0.663683  0.908553  0.142526  1
  O  O73  1  0.664022  0.088905  0.142539  1
  O  O74  1  0.909696  0.662720  0.142622  1
  O  O75  1  0.662917  0.907713  0.274402  1
  O  O76  1  0.908619  0.336810  0.274275  1
  O  O77  1  0.910434  0.662943  0.274326  1
  O  O78  1  0.663775  0.088452  0.274435  1
  O  O79  1  -0.000000  0.231677  0.164100  1
  O  O80  1  0.768981  0.998587  0.163747  1
  O  O81  1  0.767169  0.998936  0.252973  1
  O  O82  1  0.830186  0.706824  0.241414  1
  O  O83  1  0.706820  0.171122  0.241498  1
  O  O84  1  0.701649  0.830945  0.241180  1
  O  O85  1  0.831497  0.299690  0.241208  1
  O  O86  1  0.707174  0.169447  0.175515  1
  O  O87  1  0.831028  0.705549  0.175765  1
  O  O88  1  0.831026  0.297723  0.175713  1
  O  O89  1  0.705855  0.829458  0.175539  1
  O  O90  1  0.832618  0.166751  0.151814  1
  O  O91  1  0.833416  0.831815  0.151550  1
  O  O92  1  0.832200  0.831620  0.265162  1
  O  O93  1  0.832365  0.167560  0.265029  1
  O  O94  1  0.767505  0.769333  0.208696  1
  O  O95  1  0.769385  0.235123  0.208530  1
  O  O96  1  0.500959  0.368455  0.208448  1
  O  O97  1  0.501218  0.268277  0.384107  1
  O  O98  1  0.731266  0.267426  0.428438  1
  O  O99  1  -0.000000  0.869239  0.428208  1
  O  O100  1  0.839011  0.840191  0.410846  1
  O  O101  1  0.838998  0.161521  0.411432  1
  O  O102  1  0.836548  0.588617  0.362600  1
  O  O103  1  0.588203  0.164606  0.362779  1
  O  O104  1  0.588617  0.835425  0.362988  1
  O  O105  1  0.836717  0.411582  0.362644  1
  O  O106  1  0.910177  0.499740  0.332225  1
  O  O107  1  0.588702  0.998784  0.304617  1
  O  O108  1  0.729492  0.499984  0.383834  1
  O  O109  1  0.501350  0.730812  0.384169  1
  O  O110  1  0.669380  0.796732  0.396081  1
  O  O111  1  0.792719  0.330315  0.395496  1
  O  O112  1  0.792431  0.670536  0.395507  1
  O  O113  1  0.670225  0.204071  0.395757  1
  O  O114  1  0.666846  0.666073  0.371482  1
  O  O115  1  0.666941  0.334225  0.371317  1
  O  O116  1  -0.000000  0.410643  0.304372  1
  O  O117  1  -0.000000  0.130914  0.428738  1
  O  O118  1  0.161540  0.160073  0.446122  1
  O  O119  1  0.161456  0.838767  0.445530  1
  O  O120  1  0.162179  0.408541  0.494608  1
  O  O121  1  0.410890  0.836190  0.494063  1
  O  O122  1  0.411620  0.163642  0.493937  1
  O  O123  1  0.163775  0.587375  0.494260  1
  O  O124  1  0.411243  0.001173  0.552519  1
  O  O125  1  -0.000000  0.588650  0.552478  1
  O  O126  1  0.090989  0.499480  0.524785  1
  O  O127  1  0.269201  0.500186  0.473214  1
  O  O128  1  0.498224  0.730339  0.472979  1
  O  O129  1  0.331145  0.202886  0.460992  1
  O  O130  1  0.207506  0.670155  0.461425  1
  O  O131  1  0.206256  0.330076  0.461456  1
  O  O132  1  0.330304  0.796207  0.461157  1
  O  O133  1  0.331353  0.332561  0.485167  1
  O  O134  1  0.332981  0.666153  0.485667  1
  O  O135  1  0.499294  0.911717  0.524506  1
  O  O136  1  0.498660  0.268701  0.472763  1
  O  O137  1  0.000000  0.411544  0.552411  1
  O  O138  1  0.269121  0.732763  0.428531  1
  O  O139  1  -0.000000  0.499365  0.714685  1
  O  O140  1  0.499882  0.000000  0.582353  1
  O  O141  1  0.369159  0.499967  0.648512  1
  O  O142  1  0.339904  0.660902  0.665894  1
  O  O143  1  0.340146  0.339157  0.666043  1
  O  O144  1  0.339783  0.339571  0.630959  1
  O  O145  1  0.338981  0.659525  0.630684  1
  O  O146  1  0.336000  0.091220  0.582560  1
  O  O147  1  0.088378  0.664127  0.583007  1
  O  O148  1  0.090436  0.336621  0.582562  1
  O  O149  1  0.335764  0.910907  0.582505  1
  O  O150  1  0.090968  0.663312  0.714537  1
  O  O151  1  0.336393  0.090004  0.714480  1
  O  O152  1  0.336025  0.909787  0.714534  1
  O  O153  1  0.089930  0.335442  0.714464  1
  O  O154  1  0.231453  0.000000  0.603882  1
  O  O155  1  -0.000000  0.768503  0.604223  1
  O  O156  1  -0.000000  0.768305  0.693292  1
  O  O157  1  0.231548  0.000000  0.693211  1
  O  O158  1  0.294545  0.830253  0.681450  1
  O  O159  1  0.170678  0.294573  0.681474  1
  O  O160  1  0.170572  0.705103  0.681577  1
  O  O161  1  0.294807  0.169675  0.681450  1
  O  O162  1  0.169668  0.294959  0.615586  1
  O  O163  1  0.293504  0.829613  0.615424  1
  O  O164  1  0.294369  0.170613  0.615509  1
  O  O165  1  0.168739  0.702264  0.615926  1
  O  O166  1  0.166240  0.167403  0.591638  1
  O  O167  1  0.167211  0.833161  0.591948  1
  O  O168  1  0.167286  0.832774  0.705504  1
  O  O169  1  0.166949  0.166606  0.705371  1
  O  O170  1  0.232307  0.766197  0.648476  1
  O  O171  1  0.232956  0.232927  0.648495  1
  O  O172  1  -0.000000  0.499828  0.582200  1
  O  O173  1  0.499842  0.630753  0.648190  1
  O  O174  1  0.499998  0.998993  0.714842  1
  O  O175  1  0.089348  0.499236  0.772680  1
  O  O176  1  0.000000  0.588130  0.744523  1
  O  O177  1  0.411172  0.000000  0.744723  1
  O  O178  1  0.998352  0.498661  0.494957  1
  O  O179  1  0.839444  0.159897  0.446165  1
  O  O180  1  0.838642  0.837435  0.445709  1
  O  O181  1  0.590334  0.163833  0.494381  1
  O  O182  1  0.835792  0.590858  0.494287  1
  O  O183  1  0.834050  0.409768  0.494400  1
  O  O184  1  0.589549  0.836131  0.494534  1
  O  O185  1  0.588600  0.000000  0.552559  1
  O  O186  1  0.500575  0.088797  0.524439  1
  O  O187  1  0.911311  0.500276  0.524333  1
  O  O188  1  0.731427  0.499946  0.472893  1
  O  O189  1  0.793742  0.329392  0.461355  1
  O  O190  1  0.669315  0.793103  0.461601  1
  O  O191  1  0.669195  0.204997  0.461352  1
  O  O192  1  0.797075  0.668295  0.461208  1
  O  O193  1  0.665245  0.333192  0.485166  1
  O  O194  1  0.666558  0.667203  0.485161  1
  O  O195  1  0.869545  0.000000  0.428612  1
  O  O196  1  0.731827  0.731552  0.428788  1
  O  O197  1  0.501540  -0.000000  0.494749  1
  O  O198  1  -0.000000  0.232835  0.692990  1
  O  O199  1  0.631254  0.499389  0.648452  1
  O  O200  1  0.661205  0.661888  0.665707  1
  O  O201  1  0.661451  0.340387  0.666219  1
  O  O202  1  0.661042  0.339315  0.630898  1
  O  O203  1  0.661364  0.660122  0.630997  1
  O  O204  1  0.911755  0.335760  0.582868  1
  O  O205  1  0.663683  0.908553  0.582614  1
  O  O206  1  0.664022  0.088905  0.582627  1
  O  O207  1  0.909696  0.662720  0.582710  1
  O  O208  1  0.662917  0.907713  0.714490  1
  O  O209  1  0.908619  0.336810  0.714363  1
  O  O210  1  0.910434  0.662943  0.714414  1
  O  O211  1  0.663775  0.088452  0.714524  1
  O  O212  1  0.000000  0.231677  0.604188  1
  O  O213  1  0.768981  0.998587  0.603835  1
  O  O214  1  0.767169  0.998936  0.693061  1
  O  O215  1  0.830186  0.706824  0.681502  1
  O  O216  1  0.706820  0.171122  0.681586  1
  O  O217  1  0.701649  0.830945  0.681268  1
  O  O218  1  0.831497  0.299690  0.681296  1
  O  O219  1  0.707174  0.169447  0.615603  1
  O  O220  1  0.831028  0.705549  0.615853  1
  O  O221  1  0.831026  0.297723  0.615801  1
  O  O222  1  0.705855  0.829458  0.615627  1
  O  O223  1  0.832618  0.166751  0.591902  1
  O  O224  1  0.833416  0.831815  0.591638  1
  O  O225  1  0.832200  0.831620  0.705250  1
  O  O226  1  0.832365  0.167560  0.705117  1
  O  O227  1  0.767505  0.769333  0.648784  1
  O  O228  1  0.769385  0.235123  0.648618  1
  O  O229  1  0.500959  0.368455  0.648536  1
  O  O230  1  0.910177  0.499740  0.772313  1
  O  O231  1  0.588702  0.998784  0.744705  1
  O  O232  1  -0.000000  0.410643  0.744461  1
  Si  Si233  1  0.391138  0.001118  0.134580  1
  Si  Si234  1  0.001369  0.392508  0.134390  1
  Si  Si235  1  0.499965  0.000000  0.098379  1
  Si  Si236  1  0.389104  0.388336  0.208417  1
  Si  Si237  1  0.388036  0.611735  0.208177  1
  Si  Si238  1  0.258107  0.107885  0.158053  1
  Si  Si239  1  0.108932  0.741763  0.158840  1
  Si  Si240  1  0.106315  0.258846  0.158162  1
  Si  Si241  1  0.258352  0.894117  0.158079  1
  Si  Si242  1  0.107840  0.741118  0.258880  1
  Si  Si243  1  0.258645  0.106963  0.258760  1
  Si  Si244  1  0.258489  0.892853  0.258778  1
  Si  Si245  1  0.107599  0.258283  0.258700  1
  Si  Si246  1  0.261010  0.739207  0.229463  1
  Si  Si247  1  0.261325  0.260574  0.229394  1
  Si  Si248  1  0.260698  0.261240  0.187422  1
  Si  Si249  1  0.259188  0.737450  0.187166  1
  Si  Si250  1  0.394104  0.758454  0.378235  1
  Si  Si251  1  0.240713  0.392361  0.378621  1
  Si  Si252  1  0.242395  0.607741  0.378278  1
  Si  Si253  1  0.393202  0.239168  0.378440  1
  Si  Si254  1  0.499929  0.000000  0.319196  1
  Si  Si255  1  0.110758  0.499824  0.354722  1
  Si  Si256  1  0.497777  0.108279  0.354097  1
  Si  Si257  1  0.391319  0.000000  0.282379  1
  Si  Si258  1  0.110745  0.889557  0.428113  1
  Si  Si259  1  0.240073  0.761370  0.407603  1
  Si  Si260  1  0.242951  0.241851  0.406814  1
  Si  Si261  1  -0.000000  0.607929  0.282262  1
  Si  Si262  1  0.498255  0.891465  0.354158  1
  Si  Si263  1  0.998953  0.607309  0.134479  1
  Si  Si264  1  0.608727  0.998803  0.134635  1
  Si  Si265  1  0.612899  0.387601  0.208445  1
  Si  Si266  1  0.611042  0.610457  0.208192  1
  Si  Si267  1  0.891052  0.258255  0.158720  1
  Si  Si268  1  0.741775  0.891667  0.158064  1
  Si  Si269  1  0.741806  0.105500  0.158142  1
  Si  Si270  1  0.893710  0.740782  0.158261  1
  Si  Si271  1  0.739313  0.890645  0.258443  1
  Si  Si272  1  0.891173  0.260595  0.258332  1
  Si  Si273  1  0.893786  0.740836  0.258765  1
  Si  Si274  1  0.741090  0.106294  0.258751  1
  Si  Si275  1  0.739332  0.742506  0.229775  1
  Si  Si276  1  0.741853  0.263429  0.229820  1
  Si  Si277  1  0.741286  0.262009  0.187213  1
  Si  Si278  1  0.740046  0.739510  0.187726  1
  Si  Si279  1  -0.000000  0.390608  0.282170  1
  Si  Si280  1  0.758830  0.240002  0.407391  1
  Si  Si281  1  0.759158  0.761891  0.407637  1
  Si  Si282  1  0.756649  0.607219  0.378163  1
  Si  Si283  1  0.610674  0.243594  0.378623  1
  Si  Si284  1  0.610718  0.756548  0.378926  1
  Si  Si285  1  0.756650  0.392704  0.378177  1
  Si  Si286  1  0.894496  0.500118  0.354071  1
  Si  Si287  1  0.608690  0.998013  0.282353  1
  Si  Si288  1  0.888541  0.888559  0.428247  1
  Si  Si289  1  -0.000000  0.499340  0.318636  1
  Si  Si290  1  0.111772  0.111476  0.428738  1
  Si  Si291  1  0.391138  0.001118  0.574668  1
  Si  Si292  1  0.240147  0.393754  0.478960  1
  Si  Si293  1  0.389257  0.756648  0.478335  1
  Si  Si294  1  0.390612  0.241748  0.478116  1
  Si  Si295  1  0.243553  0.607842  0.478716  1
  Si  Si296  1  0.001369  0.392508  0.574478  1
  Si  Si297  1  0.241723  0.760386  0.449574  1
  Si  Si298  1  0.001512  0.500192  0.538210  1
  Si  Si299  1  0.241334  0.238616  0.449459  1
  Si  Si300  1  0.106537  0.497619  0.502895  1
  Si  Si301  1  0.499965  0.000000  0.538467  1
  Si  Si302  1  0.389104  0.388336  0.648505  1
  Si  Si303  1  0.388036  0.611735  0.648265  1
  Si  Si304  1  0.258107  0.107885  0.598141  1
  Si  Si305  1  0.108932  0.741763  0.598928  1
  Si  Si306  1  0.106315  0.258846  0.598251  1
  Si  Si307  1  0.258352  0.894117  0.598167  1
  Si  Si308  1  0.107840  0.741118  0.698968  1
  Si  Si309  1  0.258645  0.106963  0.698848  1
  Si  Si310  1  0.258489  0.892853  0.698866  1
  Si  Si311  1  0.107599  0.258283  0.698788  1
  Si  Si312  1  0.261010  0.739207  0.669551  1
  Si  Si313  1  0.261325  0.260574  0.669482  1
  Si  Si314  1  0.260698  0.261240  0.627510  1
  Si  Si315  1  0.259188  0.737450  0.627254  1
  Si  Si316  1  0.391319  0.000000  0.722467  1
  Si  Si317  1  -0.000000  0.607929  0.722350  1
  Si  Si318  1  0.998953  0.607309  0.574567  1
  Si  Si319  1  0.889597  0.110546  0.428845  1
  Si  Si320  1  0.605804  0.241407  0.478651  1
  Si  Si321  1  0.759170  0.608136  0.478391  1
  Si  Si322  1  0.757116  0.392358  0.478646  1
  Si  Si323  1  0.605288  0.758362  0.478844  1
  Si  Si324  1  0.608727  0.998803  0.574723  1
  Si  Si325  1  0.501482  0.107501  0.502405  1
  Si  Si326  1  0.889042  0.500082  0.502250  1
  Si  Si327  1  0.760161  0.238566  0.449365  1
  Si  Si328  1  0.760055  0.757525  0.449964  1
  Si  Si329  1  0.500673  0.892850  0.502499  1
  Si  Si330  1  0.612899  0.387601  0.648533  1
  Si  Si331  1  0.611042  0.610457  0.648280  1
  Si  Si332  1  0.891052  0.258255  0.598809  1
  Si  Si333  1  0.741775  0.891667  0.598152  1
  Si  Si334  1  0.741806  0.105500  0.598230  1
  Si  Si335  1  0.893710  0.740782  0.598349  1
  Si  Si336  1  0.739313  0.890645  0.698531  1
  Si  Si337  1  0.891173  0.260595  0.698420  1
  Si  Si338  1  0.893786  0.740836  0.698853  1
  Si  Si339  1  0.741090  0.106294  0.698839  1
  Si  Si340  1  0.739332  0.742506  0.669863  1
  Si  Si341  1  0.741853  0.263429  0.669908  1
  Si  Si342  1  0.741286  0.262009  0.627301  1
  Si  Si343  1  0.740046  0.739510  0.627814  1
  Si  Si344  1  -0.000000  0.390608  0.722258  1
  Si  Si345  1  0.608690  0.998013  0.722441  1
  Si  Si346  1  -0.000000  0.499340  0.758724  1
  H  H347  1  0.000000  0.588650  0.099523  1
  H  H348  1  0.499294  0.911717  0.071551  1
  H  H349  1  0.000000  0.411544  0.099456  1
  H  H350  1  0.500575  0.088797  0.071484  1
  H  H351  1  0.089348  0.499236  0.785547  1
  H  H352  1  0.411172  0.000000  0.757590  1
  H  H353  1  0.910177  0.499740  0.785180  1
  H  H354  1  0.588702  0.998784  0.757572  1
