# generated using pymatgen
data_Si33H2O67
_symmetry_space_group_name_H-M   'P 1'
_cell_length_a   13.85795342
_cell_length_b   12.35340462
_cell_length_c   68.98054085
_cell_angle_alpha   109.12820000
_cell_angle_beta   90.00000000
_cell_angle_gamma   90.00000000
_symmetry_Int_Tables_number   1
_chemical_formula_structural   Si33H2O67
_chemical_formula_sum   'Si132 H8 O268'
_cell_volume   11156.9788783
_cell_formula_units_Z   4
loop_
 _symmetry_equiv_pos_site_id
 _symmetry_equiv_pos_as_xyz
  1  'x, y, z'
loop_
 _atom_site_type_symbol
 _atom_site_label
 _atom_site_symmetry_multiplicity
 _atom_site_fract_x
 _atom_site_fract_y
 _atom_site_fract_z
 _atom_site_occupancy
  O  O1  1  0.165988  0.875576  0.095603  1
  O  O2  1  0.000000  0.445346  0.151101  1
  O  O3  1  -0.000000  0.667179  0.167790  1
  O  O4  1  0.000000  0.239582  0.151689  1
  O  O5  1  0.163598  0.213128  0.089767  1
  O  O6  1  0.099286  0.230672  0.181147  1
  O  O7  1  0.400987  0.769683  0.140683  1
  O  O8  1  0.235897  0.795686  0.125217  1
  O  O9  1  0.226717  0.384330  0.184684  1
  O  O10  1  0.274530  0.615230  0.136809  1
  O  O11  1  0.247303  0.186352  0.158614  1
  O  O12  1  0.252803  0.813028  0.163176  1
  O  O13  1  0.097707  0.532679  0.182353  1
  O  O14  1  0.402397  0.466745  0.139542  1
  O  O15  1  0.249902  0.502440  0.161028  1
  O  O16  1  0.241049  0.395104  0.121730  1
  O  O17  1  0.258977  0.002861  0.127639  1
  O  O18  1  0.097497  0.850692  0.184173  1
  O  O19  1  0.402436  0.149359  0.137591  1
  O  O20  1  0.247910  0.192554  0.121761  1
  O  O21  1  0.093131  0.929087  0.130050  1
  O  O22  1  0.091276  0.288055  0.124008  1
  O  O23  1  0.000000  0.056664  0.160291  1
  O  O24  1  0.499974  0.159385  0.168399  1
  O  O25  1  0.499987  0.943295  0.161554  1
  O  O26  1  0.000000  0.840346  0.153370  1
  O  O27  1  0.837589  0.213230  0.089843  1
  O  O28  1  0.500534  0.759990  0.170043  1
  O  O29  1  0.900913  0.230739  0.181032  1
  O  O30  1  0.599154  0.769958  0.140611  1
  O  O31  1  0.764352  0.795624  0.125124  1
  O  O32  1  0.773348  0.384109  0.184527  1
  O  O33  1  0.725427  0.615205  0.136696  1
  O  O34  1  0.752908  0.185973  0.158457  1
  O  O35  1  0.747390  0.812812  0.163077  1
  O  O36  1  0.902512  0.532623  0.182319  1
  O  O37  1  0.597771  0.466740  0.139516  1
  O  O38  1  0.750392  0.502795  0.160967  1
  O  O39  1  0.759203  0.395170  0.121687  1
  O  O40  1  0.741055  0.002577  0.127443  1
  O  O41  1  0.902467  0.850306  0.184149  1
  O  O42  1  0.597356  0.148909  0.137553  1
  O  O43  1  0.751411  0.192476  0.121632  1
  O  O44  1  0.834957  0.875063  0.095530  1
  O  O45  1  0.906884  0.929390  0.130079  1
  O  O46  1  0.908241  0.287628  0.124242  1
  O  O47  1  0.500146  0.554447  0.170738  1
  O  O48  1  0.500167  0.332488  0.154040  1
  O  O49  1  0.264328  0.204354  0.196587  1
  O  O50  1  0.263631  0.795805  0.299993  1
  O  O51  1  0.259026  0.604921  0.200193  1
  O  O52  1  0.259121  0.395384  0.296588  1
  O  O53  1  0.241113  0.996998  0.194133  1
  O  O54  1  0.240259  0.002813  0.302311  1
  O  O55  1  0.251680  0.807558  0.200089  1
  O  O56  1  0.250482  0.192595  0.296450  1
  O  O57  1  0.408411  0.712267  0.197591  1
  O  O58  1  0.407575  0.287244  0.299233  1
  O  O59  1  0.337670  0.213470  0.264745  1
  O  O60  1  0.337473  0.787205  0.231941  1
  O  O61  1  0.334370  0.124549  0.226194  1
  O  O62  1  0.334718  0.875394  0.270473  1
  O  O63  1  0.375538  0.000000  0.248386  1
  O  O64  1  0.406929  0.070801  0.191756  1
  O  O65  1  0.406078  0.929686  0.305044  1
  O  O66  1  0.735971  0.204158  0.196440  1
  O  O67  1  0.735242  0.795799  0.300293  1
  O  O68  1  0.741246  0.604779  0.200144  1
  O  O69  1  0.741164  0.395055  0.296535  1
  O  O70  1  0.759093  0.996752  0.194007  1
  O  O71  1  0.758211  0.003264  0.302773  1
  O  O72  1  0.747977  0.807378  0.200000  1
  O  O73  1  0.746793  0.192600  0.296781  1
  O  O74  1  0.591362  0.711892  0.197756  1
  O  O75  1  0.590569  0.288822  0.298807  1
  O  O76  1  0.663567  0.212849  0.264673  1
  O  O77  1  0.663610  0.787034  0.231999  1
  O  O78  1  0.666363  0.124404  0.226100  1
  O  O79  1  0.666130  0.875622  0.270592  1
  O  O80  1  0.625519  -0.000000  0.248323  1
  O  O81  1  0.500518  0.140862  0.245241  1
  O  O82  1  0.592398  0.928968  0.304937  1
  O  O83  1  0.593287  0.070796  0.191711  1
  O  O84  1  0.500543  0.859231  0.251379  1
  O  O85  1  0.163652  0.787264  0.406910  1
  O  O86  1  0.499729  0.445591  0.325978  1
  O  O87  1  0.499630  0.056834  0.335180  1
  O  O88  1  0.000000  0.760271  0.344984  1
  O  O89  1  0.098445  0.769912  0.315459  1
  O  O90  1  0.400127  0.230742  0.355858  1
  O  O91  1  0.235242  0.204322  0.371293  1
  O  O92  1  0.225029  0.615356  0.311578  1
  O  O93  1  0.272888  0.384266  0.359398  1
  O  O94  1  0.246678  0.813109  0.337935  1
  O  O95  1  0.252091  0.186254  0.333294  1
  O  O96  1  0.097665  0.466778  0.314421  1
  O  O97  1  0.402416  0.532651  0.357224  1
  O  O98  1  0.250270  0.503142  0.335876  1
  O  O99  1  0.241213  0.604993  0.375053  1
  O  O100  1  0.258359  0.997008  0.368898  1
  O  O101  1  0.096433  0.149044  0.312424  1
  O  O102  1  0.401600  0.850462  0.359058  1
  O  O103  1  0.247010  0.807511  0.374837  1
  O  O104  1  0.166025  0.124867  0.401032  1
  O  O105  1  0.092572  0.071014  0.366642  1
  O  O106  1  0.090718  0.711357  0.372758  1
  O  O107  1  0.499360  0.840623  0.328313  1
  O  O108  1  0.499653  0.667488  0.342697  1
  O  O109  1  -0.000000  0.141003  0.420260  1
  O  O110  1  0.125601  0.000000  0.423257  1
  O  O111  1  0.834623  0.124745  0.401181  1
  O  O112  1  0.837509  0.786912  0.406846  1
  O  O113  1  0.000000  0.554603  0.345615  1
  O  O114  1  0.900162  0.769304  0.315718  1
  O  O115  1  0.598345  0.230497  0.356169  1
  O  O116  1  0.763907  0.204516  0.371652  1
  O  O117  1  0.772845  0.615808  0.312190  1
  O  O118  1  0.725087  0.384874  0.360052  1
  O  O119  1  0.752155  0.813934  0.338279  1
  O  O120  1  0.746579  0.187194  0.333711  1
  O  O121  1  0.902367  0.467451  0.314368  1
  O  O122  1  0.597696  0.533344  0.357179  1
  O  O123  1  0.750252  0.496926  0.335715  1
  O  O124  1  0.759135  0.604861  0.375000  1
  O  O125  1  0.740439  0.997458  0.369274  1
  O  O126  1  0.901442  0.149814  0.312576  1
  O  O127  1  0.596590  0.851215  0.359177  1
  O  O128  1  0.750661  0.807627  0.375114  1
  O  O129  1  0.500850  0.239903  0.326607  1
  O  O130  1  0.906319  0.070633  0.366636  1
  O  O131  1  0.907711  0.712916  0.372389  1
  O  O132  1  -0.000000  0.159576  0.343310  1
  O  O133  1  -0.000000  0.332722  0.328921  1
  O  O134  1  0.000000  0.943371  0.336431  1
  O  O135  1  0.165988  0.875576  0.445486  1
  O  O136  1  0.000000  0.445346  0.500984  1
  O  O137  1  -0.000000  0.667179  0.517673  1
  O  O138  1  0.000000  0.239582  0.501571  1
  O  O139  1  0.163598  0.213128  0.439650  1
  O  O140  1  0.099286  0.230672  0.531030  1
  O  O141  1  0.400987  0.769683  0.490565  1
  O  O142  1  0.235897  0.795686  0.475100  1
  O  O143  1  0.226717  0.384330  0.534567  1
  O  O144  1  0.274530  0.615230  0.486692  1
  O  O145  1  0.247303  0.186352  0.508496  1
  O  O146  1  0.252803  0.813028  0.513059  1
  O  O147  1  0.097707  0.532679  0.532236  1
  O  O148  1  0.402397  0.466745  0.489425  1
  O  O149  1  0.249902  0.502440  0.510910  1
  O  O150  1  0.241049  0.395104  0.471613  1
  O  O151  1  0.258977  0.002861  0.477521  1
  O  O152  1  0.097497  0.850692  0.534056  1
  O  O153  1  0.402436  0.149359  0.487474  1
  O  O154  1  0.247910  0.192554  0.471644  1
  O  O155  1  -0.000000  0.859229  0.426265  1
  O  O156  1  0.093131  0.929087  0.479933  1
  O  O157  1  0.091276  0.288055  0.473891  1
  O  O158  1  0.000000  0.056664  0.510173  1
  O  O159  1  0.499974  0.159385  0.518281  1
  O  O160  1  0.499987  0.943295  0.511436  1
  O  O161  1  -0.000000  0.840346  0.503252  1
  O  O162  1  0.837589  0.213230  0.439725  1
  O  O163  1  0.500534  0.759990  0.519926  1
  O  O164  1  0.900913  0.230739  0.530914  1
  O  O165  1  0.599154  0.769958  0.490494  1
  O  O166  1  0.764352  0.795624  0.475007  1
  O  O167  1  0.773348  0.384109  0.534409  1
  O  O168  1  0.725427  0.615205  0.486578  1
  O  O169  1  0.752908  0.185973  0.508340  1
  O  O170  1  0.747390  0.812812  0.512960  1
  O  O171  1  0.902512  0.532623  0.532201  1
  O  O172  1  0.597771  0.466740  0.489398  1
  O  O173  1  0.750392  0.502795  0.510850  1
  O  O174  1  0.759203  0.395170  0.471570  1
  O  O175  1  0.741055  0.002577  0.477326  1
  O  O176  1  0.902467  0.850306  0.534031  1
  O  O177  1  0.597356  0.148909  0.487436  1
  O  O178  1  0.751411  0.192476  0.471514  1
  O  O179  1  0.834957  0.875063  0.445412  1
  O  O180  1  0.906884  0.929390  0.479962  1
  O  O181  1  0.908241  0.287628  0.474124  1
  O  O182  1  0.500146  0.554447  0.520621  1
  O  O183  1  0.500167  0.332488  0.503923  1
  O  O184  1  0.875468  0.000000  0.423309  1
  O  O185  1  0.264328  0.204354  0.546470  1
  O  O186  1  0.263631  0.795805  0.649875  1
  O  O187  1  0.259026  0.604921  0.550076  1
  O  O188  1  0.259121  0.395384  0.646471  1
  O  O189  1  0.241113  0.996998  0.544016  1
  O  O190  1  0.240259  0.002813  0.652194  1
  O  O191  1  0.251680  0.807558  0.549972  1
  O  O192  1  0.250482  0.192595  0.646333  1
  O  O193  1  0.408411  0.712267  0.547473  1
  O  O194  1  0.407575  0.287244  0.649115  1
  O  O195  1  0.337670  0.213470  0.614627  1
  O  O196  1  0.337473  0.787205  0.581824  1
  O  O197  1  0.334370  0.124549  0.576077  1
  O  O198  1  0.334718  0.875394  0.620355  1
  O  O199  1  0.375538  0.000000  0.598268  1
  O  O200  1  0.406929  0.070801  0.541639  1
  O  O201  1  0.406078  0.929686  0.654927  1
  O  O202  1  0.735971  0.204158  0.546323  1
  O  O203  1  0.735242  0.795799  0.650176  1
  O  O204  1  0.741246  0.604779  0.550026  1
  O  O205  1  0.741164  0.395055  0.646418  1
  O  O206  1  0.759093  0.996752  0.543890  1
  O  O207  1  0.758211  0.003264  0.652656  1
  O  O208  1  0.747977  0.807378  0.549882  1
  O  O209  1  0.746793  0.192600  0.646663  1
  O  O210  1  0.591362  0.711892  0.547639  1
  O  O211  1  0.590569  0.288822  0.648689  1
  O  O212  1  0.663567  0.212849  0.614555  1
  O  O213  1  0.663610  0.787034  0.581882  1
  O  O214  1  0.666363  0.124404  0.575982  1
  O  O215  1  0.666130  0.875622  0.620475  1
  O  O216  1  0.625519  -0.000000  0.598206  1
  O  O217  1  0.500518  0.140862  0.595124  1
  O  O218  1  0.592398  0.928968  0.654820  1
  O  O219  1  0.593287  0.070796  0.541593  1
  O  O220  1  0.500543  0.859231  0.601261  1
  O  O221  1  0.163652  0.787264  0.756793  1
  O  O222  1  0.499729  0.445591  0.675860  1
  O  O223  1  0.499630  0.056834  0.685063  1
  O  O224  1  -0.000000  0.760271  0.694867  1
  O  O225  1  0.098445  0.769912  0.665342  1
  O  O226  1  0.400127  0.230742  0.705740  1
  O  O227  1  0.235242  0.204322  0.721175  1
  O  O228  1  0.225029  0.615356  0.661461  1
  O  O229  1  0.272888  0.384266  0.709281  1
  O  O230  1  0.246678  0.813109  0.687818  1
  O  O231  1  0.252091  0.186254  0.683177  1
  O  O232  1  0.097665  0.466778  0.664303  1
  O  O233  1  0.402416  0.532651  0.707106  1
  O  O234  1  0.250270  0.503142  0.685759  1
  O  O235  1  0.241213  0.604993  0.724936  1
  O  O236  1  0.258359  0.997008  0.718780  1
  O  O237  1  0.096433  0.149044  0.662307  1
  O  O238  1  0.401600  0.850462  0.708941  1
  O  O239  1  0.247010  0.807511  0.724720  1
  O  O240  1  0.166025  0.124867  0.750914  1
  O  O241  1  0.092572  0.071014  0.716525  1
  O  O242  1  0.090718  0.711357  0.722641  1
  O  O243  1  0.499360  0.840623  0.678195  1
  O  O244  1  0.499653  0.667488  0.692579  1
  O  O245  1  0.834623  0.124745  0.751064  1
  O  O246  1  0.837509  0.786912  0.756729  1
  O  O247  1  0.000000  0.554603  0.695498  1
  O  O248  1  0.900162  0.769304  0.665600  1
  O  O249  1  0.598345  0.230497  0.706052  1
  O  O250  1  0.763907  0.204516  0.721534  1
  O  O251  1  0.772845  0.615808  0.662072  1
  O  O252  1  0.725087  0.384874  0.709935  1
  O  O253  1  0.752155  0.813934  0.688161  1
  O  O254  1  0.746579  0.187194  0.683594  1
  O  O255  1  0.902367  0.467451  0.664250  1
  O  O256  1  0.597696  0.533344  0.707061  1
  O  O257  1  0.750252  0.496926  0.685598  1
  O  O258  1  0.759135  0.604861  0.724883  1
  O  O259  1  0.740439  0.997458  0.719156  1
  O  O260  1  0.901442  0.149814  0.662459  1
  O  O261  1  0.596590  0.851215  0.709059  1
  O  O262  1  0.750661  0.807627  0.724996  1
  O  O263  1  0.500850  0.239903  0.676490  1
  O  O264  1  0.906319  0.070633  0.716519  1
  O  O265  1  0.907711  0.712916  0.722272  1
  O  O266  1  0.000000  0.159576  0.693192  1
  O  O267  1  0.000000  0.332722  0.678804  1
  O  O268  1  0.000000  0.943371  0.686314  1
  Si  Si269  1  0.211418  0.253243  0.180924  1
  Si  Si270  1  0.288951  0.746736  0.140851  1
  Si  Si271  1  0.209126  0.505208  0.182407  1
  Si  Si272  1  0.291178  0.494935  0.139433  1
  Si  Si273  1  0.210239  0.868144  0.185298  1
  Si  Si274  1  0.289719  0.131732  0.136477  1
  Si  Si275  1  0.191425  0.896093  0.118649  1
  Si  Si276  1  0.190220  0.274484  0.112956  1
  Si  Si277  1  0.000000  0.315960  0.137601  1
  Si  Si278  1  -0.000000  0.548691  0.171767  1
  Si  Si279  1  -0.000000  0.190418  0.169949  1
  Si  Si280  1  0.000000  0.936590  0.143027  1
  Si  Si281  1  0.499988  0.198549  0.148799  1
  Si  Si282  1  0.000000  0.801075  0.172962  1
  Si  Si283  1  0.788778  0.253028  0.180763  1
  Si  Si284  1  0.711171  0.746731  0.140749  1
  Si  Si285  1  0.791074  0.505164  0.182331  1
  Si  Si286  1  0.708956  0.495021  0.139372  1
  Si  Si287  1  0.789735  0.867810  0.185218  1
  Si  Si288  1  0.710081  0.131353  0.136352  1
  Si  Si289  1  0.808912  0.895990  0.118559  1
  Si  Si290  1  0.809914  0.274439  0.112967  1
  Si  Si291  1  0.500034  0.063393  0.178791  1
  Si  Si292  1  0.500122  0.451012  0.150088  1
  Si  Si293  1  0.500119  0.809632  0.151843  1
  Si  Si294  1  0.500137  0.683923  0.184187  1
  Si  Si295  1  0.308630  0.103800  0.203150  1
  Si  Si296  1  0.308232  0.896299  0.293473  1
  Si  Si297  1  0.309948  0.725696  0.208822  1
  Si  Si298  1  0.309559  0.274470  0.287854  1
  Si  Si299  1  0.388142  0.121309  0.246019  1
  Si  Si300  1  0.388205  0.879086  0.250658  1
  Si  Si301  1  0.691751  0.103694  0.203040  1
  Si  Si302  1  0.691037  0.896220  0.293675  1
  Si  Si303  1  0.690285  0.725496  0.208823  1
  Si  Si304  1  0.689840  0.274571  0.287862  1
  Si  Si305  1  0.612883  0.120944  0.245942  1
  Si  Si306  1  0.612918  0.879031  0.250716  1
  Si  Si307  1  0.210513  0.746820  0.315610  1
  Si  Si308  1  0.288039  0.253109  0.355602  1
  Si  Si309  1  0.208804  0.495185  0.314275  1
  Si  Si310  1  0.290927  0.505338  0.357233  1
  Si  Si311  1  0.209180  0.131566  0.311196  1
  Si  Si312  1  0.288885  0.868033  0.360089  1
  Si  Si313  1  0.191088  0.104008  0.377946  1
  Si  Si314  1  0.189939  0.725499  0.383725  1
  Si  Si315  1  0.112912  0.121266  0.420908  1
  Si  Si316  1  0.499933  0.548934  0.346643  1
  Si  Si317  1  0.499378  0.936713  0.317940  1
  Si  Si318  1  0.499295  0.801409  0.347908  1
  Si  Si319  1  0.499717  0.316163  0.312498  1
  Si  Si320  1  0.499538  0.190551  0.344844  1
  Si  Si321  1  0.788062  0.746951  0.315974  1
  Si  Si322  1  0.710499  0.253433  0.356044  1
  Si  Si323  1  0.790870  0.494728  0.314355  1
  Si  Si324  1  0.708842  0.504981  0.357326  1
  Si  Si325  1  0.788720  0.132254  0.311554  1
  Si  Si326  1  0.709335  0.868711  0.360382  1
  Si  Si327  1  0.808382  0.103961  0.378170  1
  Si  Si328  1  0.809592  0.725755  0.383731  1
  Si  Si329  1  0.888186  0.121222  0.421001  1
  Si  Si330  1  0.000000  0.063467  0.353680  1
  Si  Si331  1  -0.000000  0.198807  0.323715  1
  Si  Si332  1  -0.000000  0.684023  0.359095  1
  Si  Si333  1  -0.000000  0.809658  0.326753  1
  Si  Si334  1  0.000000  0.451223  0.324956  1
  Si  Si335  1  0.211418  0.253243  0.530807  1
  Si  Si336  1  0.288951  0.746736  0.490733  1
  Si  Si337  1  0.209126  0.505208  0.532289  1
  Si  Si338  1  0.291178  0.494935  0.489316  1
  Si  Si339  1  0.210239  0.868144  0.535180  1
  Si  Si340  1  0.289719  0.131732  0.486359  1
  Si  Si341  1  0.191425  0.896093  0.468532  1
  Si  Si342  1  0.190220  0.274484  0.462838  1
  Si  Si343  1  0.112889  0.879214  0.425620  1
  Si  Si344  1  0.000000  0.315960  0.487484  1
  Si  Si345  1  0.000000  0.548691  0.521650  1
  Si  Si346  1  0.000000  0.190418  0.519832  1
  Si  Si347  1  -0.000000  0.936590  0.492910  1
  Si  Si348  1  0.499988  0.198549  0.498682  1
  Si  Si349  1  0.000000  0.801075  0.522844  1
  Si  Si350  1  0.788778  0.253028  0.530646  1
  Si  Si351  1  0.711171  0.746731  0.490632  1
  Si  Si352  1  0.791074  0.505164  0.532214  1
  Si  Si353  1  0.708956  0.495021  0.489254  1
  Si  Si354  1  0.789735  0.867810  0.535101  1
  Si  Si355  1  0.710081  0.131353  0.486235  1
  Si  Si356  1  0.808912  0.895990  0.468442  1
  Si  Si357  1  0.809914  0.274439  0.462850  1
  Si  Si358  1  0.888183  0.878845  0.425571  1
  Si  Si359  1  0.500034  0.063393  0.528674  1
  Si  Si360  1  0.500122  0.451012  0.499970  1
  Si  Si361  1  0.500119  0.809632  0.501726  1
  Si  Si362  1  0.500137  0.683923  0.534069  1
  Si  Si363  1  0.308630  0.103800  0.553033  1
  Si  Si364  1  0.308232  0.896299  0.643356  1
  Si  Si365  1  0.309948  0.725696  0.558705  1
  Si  Si366  1  0.309559  0.274470  0.637737  1
  Si  Si367  1  0.388142  0.121309  0.595901  1
  Si  Si368  1  0.388205  0.879086  0.600541  1
  Si  Si369  1  0.691751  0.103694  0.552923  1
  Si  Si370  1  0.691037  0.896220  0.643558  1
  Si  Si371  1  0.690285  0.725496  0.558705  1
  Si  Si372  1  0.689840  0.274571  0.637744  1
  Si  Si373  1  0.612883  0.120944  0.595825  1
  Si  Si374  1  0.612918  0.879031  0.600598  1
  Si  Si375  1  0.210513  0.746820  0.665493  1
  Si  Si376  1  0.288039  0.253109  0.705485  1
  Si  Si377  1  0.208804  0.495185  0.664157  1
  Si  Si378  1  0.290927  0.505338  0.707116  1
  Si  Si379  1  0.209180  0.131566  0.661078  1
  Si  Si380  1  0.288885  0.868033  0.709971  1
  Si  Si381  1  0.191088  0.104008  0.727829  1
  Si  Si382  1  0.189939  0.725499  0.733608  1
  Si  Si383  1  0.499933  0.548934  0.696525  1
  Si  Si384  1  0.499378  0.936713  0.667823  1
  Si  Si385  1  0.499295  0.801409  0.697791  1
  Si  Si386  1  0.499717  0.316163  0.662381  1
  Si  Si387  1  0.499538  0.190551  0.694726  1
  Si  Si388  1  0.788062  0.746951  0.665856  1
  Si  Si389  1  0.710499  0.253433  0.705926  1
  Si  Si390  1  0.790870  0.494728  0.664238  1
  Si  Si391  1  0.708842  0.504981  0.707209  1
  Si  Si392  1  0.788720  0.132254  0.661437  1
  Si  Si393  1  0.709335  0.868711  0.710265  1
  Si  Si394  1  0.808382  0.103961  0.728052  1
  Si  Si395  1  0.809592  0.725755  0.733614  1
  Si  Si396  1  0.000000  0.063467  0.703562  1
  Si  Si397  1  0.000000  0.198807  0.673598  1
  Si  Si398  1  0.000000  0.684023  0.708978  1
  Si  Si399  1  0.000000  0.809658  0.676635  1
  Si  Si400  1  0.000000  0.451223  0.674838  1
  H  H401  1  0.165988  0.875576  0.082556  1
  H  H402  1  0.163598  0.213128  0.076720  1
  H  H403  1  0.837589  0.213230  0.076796  1
  H  H404  1  0.834957  0.875063  0.082483  1
  H  H405  1  0.163652  0.787264  0.769840  1
  H  H406  1  0.166025  0.124867  0.763961  1
  H  H407  1  0.834623  0.124745  0.764111  1
  H  H408  1  0.837509  0.786912  0.769776  1
