# generated using pymatgen
data_Si19(HO10)4
_symmetry_space_group_name_H-M   'P 1'
_cell_length_a   13.67170804
_cell_length_b   13.69327883
_cell_length_c   39.16334488
_cell_angle_alpha   90.00000000
_cell_angle_beta   90.00000000
_cell_angle_gamma   90.00000000
_symmetry_Int_Tables_number   1
_chemical_formula_structural   Si19(HO10)4
_chemical_formula_sum   'Si38 H8 O80'
_cell_volume   7331.78977919
_cell_formula_units_Z   2
loop_
 _symmetry_equiv_pos_site_id
 _symmetry_equiv_pos_as_xyz
  1  'x, y, z'
loop_
 _atom_site_type_symbol
 _atom_site_label
 _atom_site_symmetry_multiplicity
 _atom_site_fract_x
 _atom_site_fract_y
 _atom_site_fract_z
 _atom_site_occupancy
  O  O1  1  0.411243  0.001173  0.200801  1
  O  O2  1  -0.000000  0.588650  0.200728  1
  O  O3  1  0.499294  0.911717  0.150770  1
  O  O4  1  -0.000000  0.411544  0.200608  1
  O  O5  1  -0.000000  0.499365  0.490430  1
  O  O6  1  0.499882  -0.000000  0.254084  1
  O  O7  1  0.369159  0.499967  0.372244  1
  O  O8  1  0.339904  0.660902  0.403289  1
  O  O9  1  0.340146  0.339157  0.403554  1
  O  O10  1  0.339783  0.339571  0.340894  1
  O  O11  1  0.338981  0.659525  0.340403  1
  O  O12  1  0.336000  0.091220  0.254455  1
  O  O13  1  0.088378  0.664127  0.255252  1
  O  O14  1  0.090436  0.336621  0.254457  1
  O  O15  1  0.335764  0.910907  0.254355  1
  O  O16  1  0.090968  0.663312  0.490164  1
  O  O17  1  0.336393  0.090004  0.490062  1
  O  O18  1  0.336025  0.909787  0.490159  1
  O  O19  1  0.089930  0.335442  0.490034  1
  O  O20  1  0.231453  0.000000  0.292536  1
  O  O21  1  0.000000  0.768503  0.293144  1
  O  O22  1  0.000000  0.768305  0.452221  1
  O  O23  1  0.231548  0.000000  0.452076  1
  O  O24  1  0.294545  0.830253  0.431071  1
  O  O25  1  0.170678  0.294573  0.431115  1
  O  O26  1  0.170572  0.705103  0.431298  1
  O  O27  1  0.294807  0.169675  0.431072  1
  O  O28  1  0.169668  0.294959  0.313439  1
  O  O29  1  0.293504  0.829613  0.313148  1
  O  O30  1  0.294369  0.170613  0.313302  1
  O  O31  1  0.168739  0.702264  0.314046  1
  O  O32  1  0.166240  0.167403  0.270668  1
  O  O33  1  0.167211  0.833161  0.271221  1
  O  O34  1  0.167286  0.832774  0.474032  1
  O  O35  1  0.166949  0.166606  0.473794  1
  O  O36  1  0.232307  0.766197  0.372180  1
  O  O37  1  0.232956  0.232927  0.372214  1
  O  O38  1  -0.000000  0.499828  0.253811  1
  O  O39  1  0.499842  0.630753  0.371669  1
  O  O40  1  0.499998  0.998993  0.490709  1
  O  O41  1  0.089348  0.499236  0.594008  1
  O  O42  1  -0.000000  0.588130  0.543719  1
  O  O43  1  0.411172  0.000000  0.544076  1
  O  O44  1  0.588600  0.000000  0.200873  1
  O  O45  1  0.500575  0.088797  0.150651  1
  O  O46  1  -0.000000  0.232835  0.451681  1
  O  O47  1  0.631254  0.499389  0.372137  1
  O  O48  1  0.661205  0.661888  0.402955  1
  O  O49  1  0.661451  0.340387  0.403870  1
  O  O50  1  0.661042  0.339315  0.340786  1
  O  O51  1  0.661364  0.660122  0.340962  1
  O  O52  1  0.911755  0.335760  0.255005  1
  O  O53  1  0.663683  0.908553  0.254551  1
  O  O54  1  0.664022  0.088905  0.254574  1
  O  O55  1  0.909696  0.662720  0.254722  1
  O  O56  1  0.662917  0.907713  0.490081  1
  O  O57  1  0.908619  0.336810  0.489854  1
  O  O58  1  0.910434  0.662943  0.489945  1
  O  O59  1  0.663775  0.088452  0.490140  1
  O  O60  1  -0.000000  0.231677  0.293082  1
  O  O61  1  0.768981  0.998587  0.292452  1
  O  O62  1  0.767169  0.998936  0.451808  1
  O  O63  1  0.830186  0.706824  0.431165  1
  O  O64  1  0.706820  0.171122  0.431313  1
  O  O65  1  0.701649  0.830945  0.430746  1
  O  O66  1  0.831497  0.299690  0.430797  1
  O  O67  1  0.707174  0.169447  0.313468  1
  O  O68  1  0.831028  0.705549  0.313915  1
  O  O69  1  0.831026  0.297723  0.313823  1
  O  O70  1  0.705855  0.829458  0.313512  1
  O  O71  1  0.832618  0.166751  0.271139  1
  O  O72  1  0.833416  0.831815  0.270668  1
  O  O73  1  0.832200  0.831620  0.473579  1
  O  O74  1  0.832365  0.167560  0.473341  1
  O  O75  1  0.767505  0.769333  0.372730  1
  O  O76  1  0.769385  0.235123  0.372433  1
  O  O77  1  0.500959  0.368455  0.372288  1
  O  O78  1  0.910177  0.499740  0.593353  1
  O  O79  1  0.588702  0.998784  0.544044  1
  O  O80  1  -0.000000  0.410643  0.543608  1
  Si  Si81  1  0.391138  0.001118  0.240360  1
  Si  Si82  1  0.001369  0.392508  0.240020  1
  Si  Si83  1  0.499965  -0.000000  0.175704  1
  Si  Si84  1  0.389104  0.388336  0.372232  1
  Si  Si85  1  0.388036  0.611735  0.371803  1
  Si  Si86  1  0.258107  0.107885  0.282282  1
  Si  Si87  1  0.108932  0.741763  0.283687  1
  Si  Si88  1  0.106315  0.258846  0.282477  1
  Si  Si89  1  0.258352  0.894117  0.282329  1
  Si  Si90  1  0.107840  0.741118  0.462359  1
  Si  Si91  1  0.258645  0.106963  0.462144  1
  Si  Si92  1  0.258489  0.892853  0.462176  1
  Si  Si93  1  0.107599  0.258283  0.462036  1
  Si  Si94  1  0.261010  0.739207  0.409820  1
  Si  Si95  1  0.261325  0.260574  0.409696  1
  Si  Si96  1  0.260698  0.261240  0.334735  1
  Si  Si97  1  0.259188  0.737450  0.334277  1
  Si  Si98  1  0.391319  -0.000000  0.504328  1
  Si  Si99  1  -0.000000  0.607929  0.504119  1
  Si  Si100  1  0.998953  0.607309  0.240178  1
  Si  Si101  1  0.608727  0.998803  0.240457  1
  Si  Si102  1  0.612899  0.387601  0.372281  1
  Si  Si103  1  0.611042  0.610457  0.371830  1
  Si  Si104  1  0.891052  0.258255  0.283474  1
  Si  Si105  1  0.741775  0.891667  0.282302  1
  Si  Si106  1  0.741806  0.105500  0.282441  1
  Si  Si107  1  0.893710  0.740782  0.282653  1
  Si  Si108  1  0.739313  0.890645  0.461578  1
  Si  Si109  1  0.891173  0.260595  0.461379  1
  Si  Si110  1  0.893786  0.740836  0.462154  1
  Si  Si111  1  0.741090  0.106294  0.462128  1
  Si  Si112  1  0.739332  0.742506  0.410377  1
  Si  Si113  1  0.741853  0.263429  0.410458  1
  Si  Si114  1  0.741286  0.262009  0.334362  1
  Si  Si115  1  0.740046  0.739510  0.335278  1
  Si  Si116  1  -0.000000  0.390608  0.503954  1
  Si  Si117  1  0.608690  0.998013  0.504281  1
  Si  Si118  1  -0.000000  0.499340  0.569082  1
  H  H119  1  0.000000  0.588650  0.177747  1
  H  H120  1  0.499294  0.911717  0.127789  1
  H  H121  1  -0.000000  0.411544  0.177627  1
  H  H122  1  0.089348  0.499236  0.616989  1
  H  H123  1  0.411172  0.000000  0.567057  1
  H  H124  1  0.500575  0.088797  0.127670  1
  H  H125  1  0.910177  0.499740  0.616333  1
  H  H126  1  0.588702  0.998784  0.567025  1
