# generated using pymatgen
data_Si27(HO14)4
_symmetry_space_group_name_H-M   'P 1'
_cell_length_a   7.64718820
_cell_length_b   22.22500582
_cell_length_c   76.93579338
_cell_angle_alpha   30.02314985
_cell_angle_beta   90.00000000
_cell_angle_gamma   90.00000000
_symmetry_Int_Tables_number   1
_chemical_formula_structural   Si27(HO14)4
_chemical_formula_sum   'Si54 H8 O112'
_cell_volume   6542.53250448
_cell_formula_units_Z   2
loop_
 _symmetry_equiv_pos_site_id
 _symmetry_equiv_pos_as_xyz
  1  'x, y, z'
loop_
 _atom_site_type_symbol
 _atom_site_label
 _atom_site_symmetry_multiplicity
 _atom_site_fract_x
 _atom_site_fract_y
 _atom_site_fract_z
 _atom_site_occupancy
  Si  Si1  1  0.501319  0.325256  0.208447  1
  Si  Si2  1  0.201733  0.232546  0.254688  1
  Si  Si3  1  0.801054  0.232735  0.254635  1
  Si  Si4  1  0.501525  0.085118  0.248478  1
  Si  Si5  1  0.501347  0.325097  0.294708  1
  Si  Si6  1  0.801084  0.232574  0.294788  1
  Si  Si7  1  0.201695  0.232495  0.294806  1
  Si  Si8  1  0.801170  0.993099  0.294586  1
  Si  Si9  1  0.201844  0.992973  0.294613  1
  Si  Si10  1  0.501319  0.325256  0.375114  1
  Si  Si11  1  0.201733  0.232546  0.421355  1
  Si  Si12  1  0.801054  0.232735  0.421302  1
  Si  Si13  1  0.501525  0.085118  0.415145  1
  Si  Si14  1  0.501388  0.084988  0.374744  1
  Si  Si15  1  0.501347  0.325097  0.461375  1
  Si  Si16  1  0.801084  0.232574  0.461455  1
  Si  Si17  1  0.201695  0.232495  0.461473  1
  Si  Si18  1  0.801170  0.993099  0.461253  1
  Si  Si19  1  0.201844  0.992973  0.461280  1
  Si  Si20  1  0.801440  0.752283  0.414760  1
  Si  Si21  1  0.202086  0.752265  0.414771  1
  Si  Si22  1  0.201816  0.992873  0.374662  1
  Si  Si23  1  0.501767  0.567701  0.420904  1
  Si  Si24  1  0.801097  0.992869  0.374667  1
  Si  Si25  1  0.501722  0.567660  0.460934  1
  Si  Si26  1  0.801345  0.752439  0.374788  1
  Si  Si27  1  0.202008  0.752300  0.374824  1
  O  O28  1  0.781524  0.098000  0.282066  1
  O  O29  1  0.221580  0.097819  0.282122  1
  O  O30  1  0.759253  0.238145  0.273340  1
  O  O31  1  0.243468  0.238091  0.273356  1
  O  O32  1  0.668715  0.023357  0.271948  1
  O  O33  1  0.334258  0.023374  0.271933  1
  O  O34  1  0.668669  0.308064  0.224463  1
  O  O35  1  0.334253  0.307860  0.224543  1
  O  O36  1  0.001428  0.264903  0.243989  1
  O  O37  1  0.501450  0.219803  0.221153  1
  O  O38  1  0.668499  0.307784  0.287317  1
  O  O39  1  0.334105  0.307774  0.287319  1
  O  O40  1  0.001394  0.264860  0.289314  1
  O  O41  1  0.501434  0.077904  0.230066  1
  O  O42  1  0.500929  0.450116  0.168010  1
  O  O43  1  0.502187  0.450013  0.272653  1
  O  O44  1  0.001457  0.992659  0.289368  1
  O  O45  1  0.781524  0.098000  0.448733  1
  O  O46  1  0.221580  0.097819  0.448789  1
  O  O47  1  0.759253  0.238145  0.440007  1
  O  O48  1  0.243468  0.238091  0.440023  1
  O  O49  1  0.668715  0.023357  0.438614  1
  O  O50  1  0.334258  0.023374  0.438600  1
  O  O51  1  0.668669  0.308064  0.391130  1
  O  O52  1  0.334253  0.307860  0.391210  1
  O  O53  1  0.001428  0.264903  0.410656  1
  O  O54  1  0.501450  0.219803  0.387819  1
  O  O55  1  0.781623  0.097832  0.334701  1
  O  O56  1  0.221786  0.097714  0.334730  1
  O  O57  1  0.668499  0.307784  0.453983  1
  O  O58  1  0.334105  0.307774  0.453985  1
  O  O59  1  0.668650  0.023266  0.382147  1
  O  O60  1  0.334130  0.023262  0.382149  1
  O  O61  1  0.001394  0.264860  0.455981  1
  O  O62  1  0.501438  0.219714  0.334723  1
  O  O63  1  0.501434  0.077904  0.396732  1
  O  O64  1  0.500929  0.450116  0.334676  1
  O  O65  1  0.502187  0.450013  0.439319  1
  O  O66  1  0.759545  0.870003  0.334689  1
  O  O67  1  0.243693  0.869870  0.334716  1
  O  O68  1  0.001457  0.992659  0.456035  1
  O  O69  1  0.781518  0.782386  0.387270  1
  O  O70  1  0.221653  0.782245  0.387308  1
  O  O71  1  0.759516  0.869724  0.396130  1
  O  O72  1  0.243610  0.869756  0.396126  1
  O  O73  1  0.669006  0.646608  0.444902  1
  O  O74  1  0.334532  0.646601  0.444906  1
  O  O75  1  0.668887  0.646851  0.397444  1
  O  O76  1  0.334459  0.646673  0.397479  1
  O  O77  1  0.001801  0.720506  0.425409  1
  O  O78  1  0.001571  0.992653  0.380040  1
  O  O79  1  0.501705  0.538261  0.448273  1
  O  O80  1  0.001661  0.720611  0.380026  1
  H  H81  1  0.501434  0.077904  0.218367  1
  H  H82  1  0.500929  0.450116  0.156312  1
  H  H83  1  0.502187  0.450013  0.260954  1
  H  H84  1  0.500929  0.450116  0.322979  1
  Si  Si85  1  0.501319  0.325256  0.541780  1
  Si  Si86  1  0.201733  0.232546  0.588021  1
  Si  Si87  1  0.801054  0.232735  0.587969  1
  Si  Si88  1  0.501525  0.085118  0.581811  1
  Si  Si89  1  0.501388  0.084988  0.541411  1
  Si  Si90  1  0.501347  0.325097  0.628041  1
  Si  Si91  1  0.801084  0.232574  0.628121  1
  Si  Si92  1  0.201695  0.232495  0.628139  1
  Si  Si93  1  0.801170  0.993099  0.627919  1
  Si  Si94  1  0.201844  0.992973  0.627946  1
  Si  Si95  1  0.801440  0.752283  0.581427  1
  Si  Si96  1  0.202086  0.752265  0.581438  1
  Si  Si97  1  0.201816  0.992873  0.541329  1
  Si  Si98  1  0.501767  0.567701  0.587571  1
  Si  Si99  1  0.801097  0.992869  0.541334  1
  Si  Si100  1  0.501722  0.567660  0.627601  1
  Si  Si101  1  0.801345  0.752439  0.541455  1
  Si  Si102  1  0.202008  0.752300  0.541490  1
  Si  Si103  1  0.501388  0.084988  0.708077  1
  Si  Si104  1  0.801440  0.752283  0.748094  1
  Si  Si105  1  0.202086  0.752265  0.748105  1
  Si  Si106  1  0.201816  0.992873  0.707995  1
  Si  Si107  1  0.501767  0.567701  0.754238  1
  Si  Si108  1  0.801097  0.992869  0.708001  1
  Si  Si109  1  0.501722  0.567660  0.794268  1
  Si  Si110  1  0.801345  0.752439  0.708121  1
  Si  Si111  1  0.202008  0.752300  0.708157  1
  O  O112  1  0.781524  0.098000  0.615400  1
  O  O113  1  0.221580  0.097819  0.615456  1
  O  O114  1  0.759253  0.238145  0.606674  1
  O  O115  1  0.243468  0.238091  0.606689  1
  O  O116  1  0.668715  0.023357  0.605281  1
  O  O117  1  0.334258  0.023374  0.605267  1
  O  O118  1  0.668669  0.308064  0.557796  1
  O  O119  1  0.334253  0.307860  0.557876  1
  O  O120  1  0.001428  0.264903  0.577322  1
  O  O121  1  0.501450  0.219803  0.554486  1
  O  O122  1  0.781623  0.097832  0.501368  1
  O  O123  1  0.221786  0.097714  0.501397  1
  O  O124  1  0.668499  0.307784  0.620650  1
  O  O125  1  0.334105  0.307774  0.620652  1
  O  O126  1  0.668650  0.023266  0.548813  1
  O  O127  1  0.334130  0.023262  0.548816  1
  O  O128  1  0.001394  0.264860  0.622648  1
  O  O129  1  0.501438  0.219714  0.501390  1
  O  O130  1  0.501434  0.077904  0.563399  1
  O  O131  1  0.500929  0.450116  0.501343  1
  O  O132  1  0.502187  0.450013  0.605986  1
  O  O133  1  0.759545  0.870003  0.501356  1
  O  O134  1  0.243693  0.869870  0.501383  1
  O  O135  1  0.001457  0.992659  0.622702  1
  O  O136  1  0.781518  0.782386  0.553937  1
  O  O137  1  0.221653  0.782245  0.553975  1
  O  O138  1  0.759516  0.869724  0.562797  1
  O  O139  1  0.243610  0.869756  0.562793  1
  O  O140  1  0.669006  0.646608  0.611568  1
  O  O141  1  0.334532  0.646601  0.611573  1
  O  O142  1  0.668887  0.646851  0.564110  1
  O  O143  1  0.334459  0.646673  0.564145  1
  O  O144  1  0.001801  0.720506  0.592075  1
  O  O145  1  0.001571  0.992653  0.546707  1
  O  O146  1  0.501705  0.538261  0.614940  1
  O  O147  1  0.001661  0.720611  0.546693  1
  O  O148  1  0.781623  0.097832  0.668035  1
  O  O149  1  0.221786  0.097714  0.668064  1
  O  O150  1  0.668650  0.023266  0.715480  1
  O  O151  1  0.334130  0.023262  0.715483  1
  O  O152  1  0.501438  0.219714  0.668057  1
  O  O153  1  0.501434  0.077904  0.730066  1
  O  O154  1  0.500929  0.450116  0.668010  1
  O  O155  1  0.502187  0.450013  0.772652  1
  O  O156  1  0.759545  0.870003  0.668022  1
  O  O157  1  0.243693  0.869870  0.668049  1
  O  O158  1  0.781518  0.782386  0.720604  1
  O  O159  1  0.221653  0.782245  0.720642  1
  O  O160  1  0.759516  0.869724  0.729463  1
  O  O161  1  0.243610  0.869756  0.729460  1
  O  O162  1  0.669006  0.646608  0.778234  1
  O  O163  1  0.334532  0.646601  0.778240  1
  O  O164  1  0.668887  0.646851  0.730777  1
  O  O165  1  0.334459  0.646673  0.730812  1
  O  O166  1  0.001801  0.720506  0.758742  1
  O  O167  1  0.001571  0.992653  0.713373  1
  O  O168  1  0.501705  0.538261  0.781606  1
  O  O169  1  0.001661  0.720611  0.713360  1
  O  O170  1  0.500929  0.450116  0.834677  1
  H  H171  1  0.501434  0.077904  0.741764  1
  H  H172  1  0.500929  0.450116  0.679708  1
  H  H173  1  0.502187  0.450013  0.784351  1
  H  H174  1  0.500929  0.450116  0.846375  1
