# generated using pymatgen
data_Si19(HO10)4
_symmetry_space_group_name_H-M   'P 1'
_cell_length_a   10.15581638
_cell_length_b   7.43612829
_cell_length_c   47.90047176
_cell_angle_alpha   90.00000000
_cell_angle_beta   120.00000000
_cell_angle_gamma   90.00000000
_symmetry_Int_Tables_number   1
_chemical_formula_structural   Si19(HO10)4
_chemical_formula_sum   'Si19 H4 O40'
_cell_volume   3132.79614893
_cell_formula_units_Z   1
loop_
 _symmetry_equiv_pos_site_id
 _symmetry_equiv_pos_as_xyz
  1  'x, y, z'
loop_
 _atom_site_type_symbol
 _atom_site_label
 _atom_site_symmetry_multiplicity
 _atom_site_fract_x
 _atom_site_fract_y
 _atom_site_fract_z
 _atom_site_occupancy
  O  O1  1  0.528238  0.045975  0.140577  1
  O  O2  1  0.365204  0.290565  0.139320  1
  O  O3  1  0.668532  0.831461  0.233821  1
  O  O4  1  0.648660  0.499563  0.233782  1
  O  O5  1  0.660633  0.163562  0.238281  1
  O  O6  1  0.335117  0.834661  0.312360  1
  O  O7  1  0.330284  0.165588  0.305744  1
  O  O8  1  0.350611  0.498953  0.310258  1
  O  O9  1  0.371521  0.714695  0.268898  1
  O  O10  1  0.109797  0.382714  0.295082  1
  O  O11  1  0.528238  0.045975  0.356349  1
  O  O12  1  0.468386  0.954899  0.242052  1
  O  O13  1  0.631080  0.288665  0.188073  1
  O  O14  1  0.890977  0.615669  0.270946  1
  O  O15  1  0.635320  0.710580  0.275795  1
  O  O16  1  0.884234  0.361170  0.239766  1
  O  O17  1  0.473784  0.042143  0.187315  1
  O  O18  1  0.525234  0.958247  0.300605  1
  O  O19  1  0.365204  0.290565  0.355092  1
  O  O20  1  0.117300  0.638540  0.264932  1
  O  O21  1  0.668532  0.831461  0.449593  1
  O  O22  1  0.648660  0.499563  0.449554  1
  O  O23  1  0.660633  0.163562  0.454053  1
  O  O24  1  0.335117  0.834661  0.528132  1
  O  O25  1  0.330284  0.165588  0.521516  1
  O  O26  1  0.350611  0.498953  0.526031  1
  O  O27  1  0.371521  0.714695  0.484670  1
  O  O28  1  0.109797  0.382714  0.510854  1
  O  O29  1  0.528238  0.045975  0.572121  1
  O  O30  1  0.468386  0.954899  0.457824  1
  O  O31  1  0.631080  0.288665  0.403845  1
  O  O32  1  0.890977  0.615669  0.486718  1
  O  O33  1  0.635320  0.710580  0.491567  1
  O  O34  1  0.884234  0.361170  0.455538  1
  O  O35  1  0.473784  0.042143  0.403087  1
  O  O36  1  0.525234  0.958247  0.516377  1
  O  O37  1  0.365204  0.290565  0.570864  1
  O  O38  1  0.117300  0.638540  0.480704  1
  O  O39  1  0.631080  0.288665  0.619617  1
  O  O40  1  0.473784  0.042143  0.618859  1
  Si  Si41  1  0.556546  0.994590  0.224048  1
  Si  Si42  1  0.718954  0.664889  0.256603  1
  Si  Si43  1  0.709601  0.326406  0.224576  1
  Si  Si44  1  0.288968  0.674303  0.288659  1
  Si  Si45  1  0.439376  -0.000000  0.319397  1
  Si  Si46  1  0.280664  0.332165  0.317968  1
  Si  Si47  1  0.500350  0.167274  0.164173  1
  Si  Si48  1  0.502922  0.837029  0.271750  1
  Si  Si49  1  0.003522  0.498725  0.265160  1
  Si  Si50  1  0.556546  0.994590  0.439820  1
  Si  Si51  1  0.718954  0.664889  0.472375  1
  Si  Si52  1  0.709601  0.326406  0.440348  1
  Si  Si53  1  0.288968  0.674303  0.504431  1
  Si  Si54  1  0.439376  -0.000000  0.535169  1
  Si  Si55  1  0.280664  0.332165  0.533740  1
  Si  Si56  1  0.500350  0.167274  0.379945  1
  Si  Si57  1  0.502922  0.837029  0.487522  1
  Si  Si58  1  0.003522  0.498725  0.480932  1
  Si  Si59  1  0.500350  0.167274  0.595717  1
  H  H60  1  0.528238  0.045975  0.121788  1
  H  H61  1  0.365204  0.290565  0.120531  1
  H  H62  1  0.631080  0.288665  0.638406  1
  H  H63  1  0.473784  0.042143  0.637648  1
