# generated using pymatgen
data_Si13H2O27
_symmetry_space_group_name_H-M   'P 1'
_cell_length_a   10.15581638
_cell_length_b   7.43612829
_cell_length_c   53.66199109
_cell_angle_alpha   90.00000000
_cell_angle_beta   120.00000000
_cell_angle_gamma   90.00000000
_symmetry_Int_Tables_number   1
_chemical_formula_structural   Si13H2O27
_chemical_formula_sum   'Si26 H4 O54'
_cell_volume   3509.61217765
_cell_formula_units_Z   2
loop_
 _symmetry_equiv_pos_site_id
 _symmetry_equiv_pos_as_xyz
  1  'x, y, z'
loop_
 _atom_site_type_symbol
 _atom_site_label
 _atom_site_symmetry_multiplicity
 _atom_site_fract_x
 _atom_site_fract_y
 _atom_site_fract_z
 _atom_site_occupancy
  O  O1  1  0.668532  0.831461  0.165874  1
  O  O2  1  0.648660  0.499563  0.165839  1
  O  O3  1  0.660633  0.163562  0.169855  1
  O  O4  1  0.335117  0.834661  0.235981  1
  O  O5  1  0.330284  0.165588  0.230075  1
  O  O6  1  0.350611  0.498953  0.234105  1
  O  O7  1  0.371521  0.714695  0.197186  1
  O  O8  1  0.109797  0.382714  0.220558  1
  O  O9  1  0.528238  0.045975  0.275247  1
  O  O10  1  0.468386  0.954899  0.173222  1
  O  O11  1  0.631080  0.288665  0.125039  1
  O  O12  1  0.890977  0.615669  0.199013  1
  O  O13  1  0.635320  0.710580  0.203342  1
  O  O14  1  0.884234  0.361170  0.171182  1
  O  O15  1  0.473784  0.042143  0.124362  1
  O  O16  1  0.525234  0.958247  0.225488  1
  O  O17  1  0.365204  0.290565  0.274125  1
  O  O18  1  0.117300  0.638540  0.193645  1
  O  O19  1  0.668532  0.831461  0.358480  1
  O  O20  1  0.648660  0.499563  0.358445  1
  O  O21  1  0.660633  0.163562  0.362461  1
  O  O22  1  0.335117  0.834661  0.428586  1
  O  O23  1  0.330284  0.165588  0.422680  1
  O  O24  1  0.350611  0.498953  0.426711  1
  O  O25  1  0.371521  0.714695  0.389791  1
  O  O26  1  0.109797  0.382714  0.413163  1
  O  O27  1  0.528238  0.045975  0.467853  1
  O  O28  1  0.468386  0.954899  0.365827  1
  O  O29  1  0.631080  0.288665  0.317644  1
  O  O30  1  0.890977  0.615669  0.391619  1
  O  O31  1  0.635320  0.710580  0.395947  1
  O  O32  1  0.884234  0.361170  0.363787  1
  O  O33  1  0.473784  0.042143  0.316967  1
  O  O34  1  0.525234  0.958247  0.418093  1
  O  O35  1  0.365204  0.290565  0.466731  1
  O  O36  1  0.117300  0.638540  0.386250  1
  O  O37  1  0.668532  0.831461  0.551085  1
  O  O38  1  0.648660  0.499563  0.551050  1
  O  O39  1  0.660633  0.163562  0.555066  1
  O  O40  1  0.335117  0.834661  0.621192  1
  O  O41  1  0.330284  0.165588  0.615286  1
  O  O42  1  0.350611  0.498953  0.619316  1
  O  O43  1  0.371521  0.714695  0.582396  1
  O  O44  1  0.109797  0.382714  0.605769  1
  O  O45  1  0.528238  0.045975  0.660458  1
  O  O46  1  0.468386  0.954899  0.558432  1
  O  O47  1  0.631080  0.288665  0.510249  1
  O  O48  1  0.890977  0.615669  0.584224  1
  O  O49  1  0.635320  0.710580  0.588553  1
  O  O50  1  0.884234  0.361170  0.556392  1
  O  O51  1  0.473784  0.042143  0.509572  1
  O  O52  1  0.525234  0.958247  0.610698  1
  O  O53  1  0.365204  0.290565  0.659336  1
  O  O54  1  0.117300  0.638540  0.578856  1
  Si  Si55  1  0.556546  0.994590  0.157151  1
  Si  Si56  1  0.718954  0.664889  0.186211  1
  Si  Si57  1  0.709601  0.326406  0.157622  1
  Si  Si58  1  0.288968  0.674303  0.214824  1
  Si  Si59  1  0.439376  -0.000000  0.242262  1
  Si  Si60  1  0.280664  0.332165  0.240987  1
  Si  Si61  1  0.502922  0.837029  0.199731  1
  Si  Si62  1  0.003522  0.498725  0.193848  1
  Si  Si63  1  0.556546  0.994590  0.349756  1
  Si  Si64  1  0.718954  0.664889  0.378816  1
  Si  Si65  1  0.709601  0.326406  0.350228  1
  Si  Si66  1  0.288968  0.674303  0.407430  1
  Si  Si67  1  0.439376  -0.000000  0.434868  1
  Si  Si68  1  0.280664  0.332165  0.433592  1
  Si  Si69  1  0.500350  0.167274  0.296309  1
  Si  Si70  1  0.502922  0.837029  0.392336  1
  Si  Si71  1  0.003522  0.498725  0.386454  1
  Si  Si72  1  0.556546  0.994590  0.542361  1
  Si  Si73  1  0.718954  0.664889  0.571421  1
  Si  Si74  1  0.709601  0.326406  0.542833  1
  Si  Si75  1  0.288968  0.674303  0.600035  1
  Si  Si76  1  0.439376  0.000000  0.627473  1
  Si  Si77  1  0.280664  0.332165  0.626198  1
  Si  Si78  1  0.500350  0.167274  0.488915  1
  Si  Si79  1  0.502922  0.837029  0.584942  1
  Si  Si80  1  0.003522  0.498725  0.579059  1
  H  H81  1  0.631080  0.288665  0.108267  1
  H  H82  1  0.473784  0.042143  0.107590  1
  H  H83  1  0.528238  0.045975  0.677229  1
  H  H84  1  0.365204  0.290565  0.676108  1
