# generated using pymatgen
data_Si35H2O71
_symmetry_space_group_name_H-M   'P 1'
_cell_length_a   13.85795342
_cell_length_b   12.35340462
_cell_length_c   74.30807257
_cell_angle_alpha   109.12820000
_cell_angle_beta   90.00000000
_cell_angle_gamma   90.00000000
_symmetry_Int_Tables_number   1
_chemical_formula_structural   Si35H2O71
_chemical_formula_sum   'Si140 H8 O284'
_cell_volume   12018.6589719
_cell_formula_units_Z   4
loop_
 _symmetry_equiv_pos_site_id
 _symmetry_equiv_pos_as_xyz
  1  'x, y, z'
loop_
 _atom_site_type_symbol
 _atom_site_label
 _atom_site_symmetry_multiplicity
 _atom_site_fract_x
 _atom_site_fract_y
 _atom_site_fract_z
 _atom_site_occupancy
  O  O1  1  0.263631  0.795805  0.151927  1
  O  O2  1  0.259121  0.395384  0.148766  1
  O  O3  1  0.240259  0.002813  0.154079  1
  O  O4  1  0.250482  0.192595  0.148638  1
  O  O5  1  0.407575  0.287244  0.151221  1
  O  O6  1  0.337670  0.213470  0.119206  1
  O  O7  1  0.337473  0.787205  0.088754  1
  O  O8  1  0.334370  0.124549  0.083419  1
  O  O9  1  0.334718  0.875394  0.124523  1
  O  O10  1  0.375538  0.000000  0.104020  1
  O  O11  1  0.406078  0.929686  0.156616  1
  O  O12  1  0.735242  0.795799  0.152205  1
  O  O13  1  0.741164  0.395055  0.148717  1
  O  O14  1  0.758211  0.003264  0.154508  1
  O  O15  1  0.746793  0.192600  0.148945  1
  O  O16  1  0.590569  0.288822  0.150826  1
  O  O17  1  0.663567  0.212849  0.119139  1
  O  O18  1  0.663610  0.787034  0.088808  1
  O  O19  1  0.666363  0.124404  0.083331  1
  O  O20  1  0.666130  0.875622  0.124634  1
  O  O21  1  0.625519  -0.000000  0.103962  1
  O  O22  1  0.500518  0.140862  0.101101  1
  O  O23  1  0.592398  0.928968  0.156516  1
  O  O24  1  0.500543  0.859231  0.106798  1
  O  O25  1  0.163652  0.787264  0.251178  1
  O  O26  1  0.499729  0.445591  0.176048  1
  O  O27  1  0.499630  0.056834  0.184591  1
  O  O28  1  0.000000  0.760271  0.193692  1
  O  O29  1  0.098445  0.769912  0.166284  1
  O  O30  1  0.400127  0.230742  0.203787  1
  O  O31  1  0.235242  0.204322  0.218115  1
  O  O32  1  0.225029  0.615356  0.162682  1
  O  O33  1  0.272888  0.384266  0.207073  1
  O  O34  1  0.246678  0.813109  0.187149  1
  O  O35  1  0.252091  0.186254  0.182841  1
  O  O36  1  0.097665  0.466778  0.165320  1
  O  O37  1  0.402416  0.532651  0.205055  1
  O  O38  1  0.250270  0.503142  0.185237  1
  O  O39  1  0.241213  0.604993  0.221606  1
  O  O40  1  0.258359  0.997008  0.215891  1
  O  O41  1  0.096433  0.149044  0.163467  1
  O  O42  1  0.401600  0.850462  0.206757  1
  O  O43  1  0.247010  0.807511  0.221405  1
  O  O44  1  0.166025  0.124867  0.245721  1
  O  O45  1  0.092572  0.071014  0.213798  1
  O  O46  1  0.090718  0.711357  0.219475  1
  O  O47  1  0.499360  0.840623  0.178216  1
  O  O48  1  0.499653  0.667488  0.191569  1
  O  O49  1  0.000000  0.141003  0.263571  1
  O  O50  1  0.125601  -0.000000  0.266354  1
  O  O51  1  0.834623  0.124745  0.245860  1
  O  O52  1  0.837509  0.786912  0.251119  1
  O  O53  1  0.000000  0.554603  0.194278  1
  O  O54  1  0.900162  0.769304  0.166524  1
  O  O55  1  0.598345  0.230497  0.204076  1
  O  O56  1  0.763907  0.204516  0.218448  1
  O  O57  1  0.772845  0.615808  0.163249  1
  O  O58  1  0.725087  0.384874  0.207680  1
  O  O59  1  0.752155  0.813934  0.187468  1
  O  O60  1  0.746579  0.187194  0.183227  1
  O  O61  1  0.902367  0.467451  0.165271  1
  O  O62  1  0.597696  0.533344  0.205013  1
  O  O63  1  0.750252  0.496926  0.185088  1
  O  O64  1  0.759135  0.604861  0.221557  1
  O  O65  1  0.740439  0.997458  0.216241  1
  O  O66  1  0.901442  0.149814  0.163608  1
  O  O67  1  0.596590  0.851215  0.206867  1
  O  O68  1  0.750661  0.807627  0.221662  1
  O  O69  1  0.500850  0.239903  0.176633  1
  O  O70  1  0.906319  0.070633  0.213792  1
  O  O71  1  0.907711  0.712916  0.219133  1
  O  O72  1  0.000000  0.159576  0.192138  1
  O  O73  1  0.000000  0.332722  0.178781  1
  O  O74  1  0.000000  0.943371  0.185753  1
  O  O75  1  0.165988  0.875576  0.286988  1
  O  O76  1  -0.000000  0.445346  0.338508  1
  O  O77  1  0.000000  0.667179  0.354000  1
  O  O78  1  0.000000  0.239582  0.339053  1
  O  O79  1  0.163598  0.213128  0.281571  1
  O  O80  1  0.099286  0.230672  0.366400  1
  O  O81  1  0.400987  0.769683  0.328836  1
  O  O82  1  0.235897  0.795686  0.314479  1
  O  O83  1  0.226717  0.384330  0.369683  1
  O  O84  1  0.274530  0.615230  0.325240  1
  O  O85  1  0.247303  0.186352  0.345481  1
  O  O86  1  0.252803  0.813028  0.349717  1
  O  O87  1  0.097707  0.532679  0.367519  1
  O  O88  1  0.402397  0.466745  0.327777  1
  O  O89  1  0.249902  0.502440  0.347723  1
  O  O90  1  0.241049  0.395104  0.311242  1
  O  O91  1  0.258977  0.002861  0.316727  1
  O  O92  1  0.097497  0.850692  0.369209  1
  O  O93  1  0.402436  0.149359  0.325966  1
  O  O94  1  0.247910  0.192554  0.311271  1
  O  O95  1  -0.000000  0.859229  0.269146  1
  O  O96  1  0.093131  0.929087  0.318966  1
  O  O97  1  0.091276  0.288055  0.313357  1
  O  O98  1  0.000000  0.056664  0.347038  1
  O  O99  1  0.499974  0.159385  0.354565  1
  O  O100  1  0.499987  0.943295  0.348211  1
  O  O101  1  0.000000  0.840346  0.340613  1
  O  O102  1  0.837589  0.213230  0.281641  1
  O  O103  1  0.500534  0.759990  0.356092  1
  O  O104  1  0.900913  0.230739  0.366292  1
  O  O105  1  0.599154  0.769958  0.328770  1
  O  O106  1  0.764352  0.795624  0.314393  1
  O  O107  1  0.773348  0.384109  0.369537  1
  O  O108  1  0.725427  0.615205  0.325135  1
  O  O109  1  0.752908  0.185973  0.345336  1
  O  O110  1  0.747390  0.812812  0.349625  1
  O  O111  1  0.902512  0.532623  0.367487  1
  O  O112  1  0.597771  0.466740  0.327753  1
  O  O113  1  0.750392  0.502795  0.347666  1
  O  O114  1  0.759203  0.395170  0.311203  1
  O  O115  1  0.741055  0.002577  0.316546  1
  O  O116  1  0.902467  0.850306  0.369186  1
  O  O117  1  0.597356  0.148909  0.325931  1
  O  O118  1  0.751411  0.192476  0.311151  1
  O  O119  1  0.834957  0.875063  0.286920  1
  O  O120  1  0.906884  0.929390  0.318993  1
  O  O121  1  0.908241  0.287628  0.313574  1
  O  O122  1  0.500146  0.554447  0.356737  1
  O  O123  1  0.500167  0.332488  0.341236  1
  O  O124  1  0.875468  0.000000  0.266402  1
  O  O125  1  0.264328  0.204354  0.380733  1
  O  O126  1  0.263631  0.795805  0.476724  1
  O  O127  1  0.259026  0.604921  0.384080  1
  O  O128  1  0.259121  0.395384  0.473564  1
  O  O129  1  0.241113  0.996998  0.378454  1
  O  O130  1  0.240259  0.002813  0.478877  1
  O  O131  1  0.251680  0.807558  0.383984  1
  O  O132  1  0.250482  0.192595  0.473435  1
  O  O133  1  0.408411  0.712267  0.381664  1
  O  O134  1  0.407575  0.287244  0.476019  1
  O  O135  1  0.337670  0.213470  0.444003  1
  O  O136  1  0.337473  0.787205  0.413552  1
  O  O137  1  0.334370  0.124549  0.408217  1
  O  O138  1  0.334718  0.875394  0.449321  1
  O  O139  1  0.375538  0.000000  0.428817  1
  O  O140  1  0.406929  0.070801  0.376248  1
  O  O141  1  0.406078  0.929686  0.481414  1
  O  O142  1  0.735971  0.204158  0.380596  1
  O  O143  1  0.735242  0.795799  0.477003  1
  O  O144  1  0.741246  0.604779  0.384034  1
  O  O145  1  0.741164  0.395055  0.473514  1
  O  O146  1  0.759093  0.996752  0.378337  1
  O  O147  1  0.758211  0.003264  0.479305  1
  O  O148  1  0.747977  0.807378  0.383900  1
  O  O149  1  0.746793  0.192600  0.473742  1
  O  O150  1  0.591362  0.711892  0.381818  1
  O  O151  1  0.590569  0.288822  0.475623  1
  O  O152  1  0.663567  0.212849  0.443936  1
  O  O153  1  0.663610  0.787034  0.413605  1
  O  O154  1  0.666363  0.124404  0.408129  1
  O  O155  1  0.666130  0.875622  0.449432  1
  O  O156  1  0.625519  -0.000000  0.428759  1
  O  O157  1  0.500518  0.140862  0.425898  1
  O  O158  1  0.592398  0.928968  0.481314  1
  O  O159  1  0.593287  0.070796  0.376206  1
  O  O160  1  0.500543  0.859231  0.431596  1
  O  O161  1  0.163652  0.787264  0.575976  1
  O  O162  1  0.499729  0.445591  0.500846  1
  O  O163  1  0.499630  0.056834  0.509389  1
  O  O164  1  0.000000  0.760271  0.518490  1
  O  O165  1  0.098445  0.769912  0.491082  1
  O  O166  1  0.400127  0.230742  0.528584  1
  O  O167  1  0.235242  0.204322  0.542912  1
  O  O168  1  0.225029  0.615356  0.487479  1
  O  O169  1  0.272888  0.384266  0.531871  1
  O  O170  1  0.246678  0.813109  0.511947  1
  O  O171  1  0.252091  0.186254  0.507638  1
  O  O172  1  0.097665  0.466778  0.490118  1
  O  O173  1  0.402416  0.532651  0.529852  1
  O  O174  1  0.250270  0.503142  0.510035  1
  O  O175  1  0.241213  0.604993  0.546404  1
  O  O176  1  0.258359  0.997008  0.540689  1
  O  O177  1  0.096433  0.149044  0.488265  1
  O  O178  1  0.401600  0.850462  0.531555  1
  O  O179  1  0.247010  0.807511  0.546203  1
  O  O180  1  0.166025  0.124867  0.570519  1
  O  O181  1  0.092572  0.071014  0.538595  1
  O  O182  1  0.090718  0.711357  0.544273  1
  O  O183  1  0.499360  0.840623  0.503014  1
  O  O184  1  0.499653  0.667488  0.516367  1
  O  O185  1  0.000000  0.141003  0.588369  1
  O  O186  1  0.125601  -0.000000  0.591151  1
  O  O187  1  0.834623  0.124745  0.570658  1
  O  O188  1  0.837509  0.786912  0.575917  1
  O  O189  1  -0.000000  0.554603  0.519076  1
  O  O190  1  0.900162  0.769304  0.491322  1
  O  O191  1  0.598345  0.230497  0.528873  1
  O  O192  1  0.763907  0.204516  0.543246  1
  O  O193  1  0.772845  0.615808  0.488047  1
  O  O194  1  0.725087  0.384874  0.532478  1
  O  O195  1  0.752155  0.813934  0.512265  1
  O  O196  1  0.746579  0.187194  0.508025  1
  O  O197  1  0.902367  0.467451  0.490069  1
  O  O198  1  0.597696  0.533344  0.529810  1
  O  O199  1  0.750252  0.496926  0.509886  1
  O  O200  1  0.759135  0.604861  0.546354  1
  O  O201  1  0.740439  0.997458  0.541038  1
  O  O202  1  0.901442  0.149814  0.488406  1
  O  O203  1  0.596590  0.851215  0.531665  1
  O  O204  1  0.750661  0.807627  0.546459  1
  O  O205  1  0.500850  0.239903  0.501431  1
  O  O206  1  0.906319  0.070633  0.538590  1
  O  O207  1  0.907711  0.712916  0.543930  1
  O  O208  1  0.000000  0.159576  0.516936  1
  O  O209  1  -0.000000  0.332722  0.503579  1
  O  O210  1  0.000000  0.943371  0.510550  1
  O  O211  1  0.165988  0.875576  0.611786  1
  O  O212  1  -0.000000  0.445346  0.663305  1
  O  O213  1  -0.000000  0.667179  0.678798  1
  O  O214  1  -0.000000  0.239582  0.663851  1
  O  O215  1  0.163598  0.213128  0.606369  1
  O  O216  1  0.099286  0.230672  0.691197  1
  O  O217  1  0.400987  0.769683  0.653634  1
  O  O218  1  0.235897  0.795686  0.639277  1
  O  O219  1  0.226717  0.384330  0.694481  1
  O  O220  1  0.274530  0.615230  0.650038  1
  O  O221  1  0.247303  0.186352  0.670279  1
  O  O222  1  0.252803  0.813028  0.674515  1
  O  O223  1  0.097707  0.532679  0.692317  1
  O  O224  1  0.402397  0.466745  0.652575  1
  O  O225  1  0.249902  0.502440  0.672520  1
  O  O226  1  0.241049  0.395104  0.636040  1
  O  O227  1  0.258977  0.002861  0.641525  1
  O  O228  1  0.097497  0.850692  0.694006  1
  O  O229  1  0.402436  0.149359  0.650764  1
  O  O230  1  0.247910  0.192554  0.636069  1
  O  O231  1  0.000000  0.859229  0.593944  1
  O  O232  1  0.093131  0.929087  0.643763  1
  O  O233  1  0.091276  0.288055  0.638155  1
  O  O234  1  0.000000  0.056664  0.671836  1
  O  O235  1  0.499974  0.159385  0.679363  1
  O  O236  1  0.499987  0.943295  0.673008  1
  O  O237  1  0.000000  0.840346  0.665411  1
  O  O238  1  0.837589  0.213230  0.606439  1
  O  O239  1  0.500534  0.759990  0.680889  1
  O  O240  1  0.900913  0.230739  0.691090  1
  O  O241  1  0.599154  0.769958  0.653568  1
  O  O242  1  0.764352  0.795624  0.639191  1
  O  O243  1  0.773348  0.384109  0.694334  1
  O  O244  1  0.725427  0.615205  0.649933  1
  O  O245  1  0.752908  0.185973  0.670134  1
  O  O246  1  0.747390  0.812812  0.674423  1
  O  O247  1  0.902512  0.532623  0.692285  1
  O  O248  1  0.597771  0.466740  0.652550  1
  O  O249  1  0.750392  0.502795  0.672464  1
  O  O250  1  0.759203  0.395170  0.636000  1
  O  O251  1  0.741055  0.002577  0.641343  1
  O  O252  1  0.902467  0.850306  0.693984  1
  O  O253  1  0.597356  0.148909  0.650729  1
  O  O254  1  0.751411  0.192476  0.635949  1
  O  O255  1  0.834957  0.875063  0.611718  1
  O  O256  1  0.906884  0.929390  0.643790  1
  O  O257  1  0.908241  0.287628  0.638371  1
  O  O258  1  0.500146  0.554447  0.681535  1
  O  O259  1  0.500167  0.332488  0.666033  1
  O  O260  1  0.875468  -0.000000  0.591199  1
  O  O261  1  0.264328  0.204354  0.705530  1
  O  O262  1  0.259026  0.604921  0.708878  1
  O  O263  1  0.241113  0.996998  0.703252  1
  O  O264  1  0.251680  0.807558  0.708781  1
  O  O265  1  0.408411  0.712267  0.706462  1
  O  O266  1  0.337670  0.213470  0.768801  1
  O  O267  1  0.337473  0.787205  0.738350  1
  O  O268  1  0.334370  0.124549  0.733014  1
  O  O269  1  0.334718  0.875394  0.774118  1
  O  O270  1  0.375538  -0.000000  0.753615  1
  O  O271  1  0.406929  0.070801  0.701045  1
  O  O272  1  0.735971  0.204158  0.705394  1
  O  O273  1  0.741246  0.604779  0.708832  1
  O  O274  1  0.759093  0.996752  0.703135  1
  O  O275  1  0.747977  0.807378  0.708698  1
  O  O276  1  0.591362  0.711892  0.706615  1
  O  O277  1  0.663567  0.212849  0.768734  1
  O  O278  1  0.663610  0.787034  0.738403  1
  O  O279  1  0.666363  0.124404  0.732927  1
  O  O280  1  0.666130  0.875622  0.774229  1
  O  O281  1  0.625519  0.000000  0.753557  1
  O  O282  1  0.500518  0.140862  0.750696  1
  O  O283  1  0.593287  0.070796  0.701003  1
  O  O284  1  0.500543  0.859231  0.756393  1
  Si  Si285  1  0.308232  0.896299  0.145874  1
  Si  Si286  1  0.309559  0.274470  0.140658  1
  Si  Si287  1  0.388142  0.121309  0.101822  1
  Si  Si288  1  0.388205  0.879086  0.106129  1
  Si  Si289  1  0.691037  0.896220  0.146062  1
  Si  Si290  1  0.689840  0.274571  0.140665  1
  Si  Si291  1  0.612883  0.120944  0.101751  1
  Si  Si292  1  0.612918  0.879031  0.106183  1
  Si  Si293  1  0.210513  0.746820  0.166424  1
  Si  Si294  1  0.288039  0.253109  0.203549  1
  Si  Si295  1  0.208804  0.495185  0.165185  1
  Si  Si296  1  0.290927  0.505338  0.205063  1
  Si  Si297  1  0.209180  0.131566  0.162326  1
  Si  Si298  1  0.288885  0.868033  0.207714  1
  Si  Si299  1  0.191088  0.104008  0.224291  1
  Si  Si300  1  0.189939  0.725499  0.229656  1
  Si  Si301  1  0.112912  0.121266  0.264173  1
  Si  Si302  1  0.499933  0.548934  0.195232  1
  Si  Si303  1  0.499378  0.936713  0.168588  1
  Si  Si304  1  0.499295  0.801409  0.196407  1
  Si  Si305  1  0.499717  0.316163  0.163535  1
  Si  Si306  1  0.499538  0.190551  0.193562  1
  Si  Si307  1  0.788062  0.746951  0.166762  1
  Si  Si308  1  0.710499  0.253433  0.203959  1
  Si  Si309  1  0.790870  0.494728  0.165260  1
  Si  Si310  1  0.708842  0.504981  0.205149  1
  Si  Si311  1  0.788720  0.132254  0.162659  1
  Si  Si312  1  0.709335  0.868711  0.207986  1
  Si  Si313  1  0.808382  0.103961  0.224499  1
  Si  Si314  1  0.809592  0.725755  0.229662  1
  Si  Si315  1  0.888186  0.121222  0.264259  1
  Si  Si316  1  0.000000  0.063467  0.201765  1
  Si  Si317  1  0.000000  0.198807  0.173948  1
  Si  Si318  1  0.000000  0.684023  0.206792  1
  Si  Si319  1  0.000000  0.809658  0.176768  1
  Si  Si320  1  0.000000  0.451223  0.175100  1
  Si  Si321  1  0.211418  0.253243  0.366192  1
  Si  Si322  1  0.288951  0.746736  0.328992  1
  Si  Si323  1  0.209126  0.505208  0.367569  1
  Si  Si324  1  0.291178  0.494935  0.327676  1
  Si  Si325  1  0.210239  0.868144  0.370252  1
  Si  Si326  1  0.289719  0.131732  0.324931  1
  Si  Si327  1  0.191425  0.896093  0.308382  1
  Si  Si328  1  0.190220  0.274484  0.303097  1
  Si  Si329  1  0.112889  0.879214  0.268547  1
  Si  Si330  1  -0.000000  0.315960  0.325975  1
  Si  Si331  1  0.000000  0.548691  0.357692  1
  Si  Si332  1  0.000000  0.190418  0.356004  1
  Si  Si333  1  0.000000  0.936590  0.331013  1
  Si  Si334  1  0.499988  0.198549  0.336371  1
  Si  Si335  1  -0.000000  0.801075  0.358801  1
  Si  Si336  1  0.788778  0.253028  0.366043  1
  Si  Si337  1  0.711171  0.746731  0.328898  1
  Si  Si338  1  0.791074  0.505164  0.367499  1
  Si  Si339  1  0.708956  0.495021  0.327619  1
  Si  Si340  1  0.789735  0.867810  0.370179  1
  Si  Si341  1  0.710081  0.131353  0.324816  1
  Si  Si342  1  0.808912  0.895990  0.308299  1
  Si  Si343  1  0.809914  0.274439  0.303107  1
  Si  Si344  1  0.888183  0.878845  0.268501  1
  Si  Si345  1  0.500034  0.063393  0.364212  1
  Si  Si346  1  0.500122  0.451012  0.337567  1
  Si  Si347  1  0.500119  0.809632  0.339196  1
  Si  Si348  1  0.500137  0.683923  0.369221  1
  Si  Si349  1  0.308630  0.103800  0.386825  1
  Si  Si350  1  0.308232  0.896299  0.470672  1
  Si  Si351  1  0.309948  0.725696  0.392090  1
  Si  Si352  1  0.309559  0.274470  0.465456  1
  Si  Si353  1  0.388142  0.121309  0.426620  1
  Si  Si354  1  0.388205  0.879086  0.430927  1
  Si  Si355  1  0.691751  0.103694  0.386723  1
  Si  Si356  1  0.691037  0.896220  0.470860  1
  Si  Si357  1  0.690285  0.725496  0.392091  1
  Si  Si358  1  0.689840  0.274571  0.465463  1
  Si  Si359  1  0.612883  0.120944  0.426549  1
  Si  Si360  1  0.612918  0.879031  0.430980  1
  Si  Si361  1  0.210513  0.746820  0.491222  1
  Si  Si362  1  0.288039  0.253109  0.528347  1
  Si  Si363  1  0.208804  0.495185  0.489982  1
  Si  Si364  1  0.290927  0.505338  0.529861  1
  Si  Si365  1  0.209180  0.131566  0.487124  1
  Si  Si366  1  0.288885  0.868033  0.532512  1
  Si  Si367  1  0.191088  0.104008  0.549089  1
  Si  Si368  1  0.189939  0.725499  0.554453  1
  Si  Si369  1  0.112912  0.121266  0.588971  1
  Si  Si370  1  0.499933  0.548934  0.520030  1
  Si  Si371  1  0.499378  0.936713  0.493385  1
  Si  Si372  1  0.499295  0.801409  0.521204  1
  Si  Si373  1  0.499717  0.316163  0.488333  1
  Si  Si374  1  0.499538  0.190551  0.518360  1
  Si  Si375  1  0.788062  0.746951  0.491560  1
  Si  Si376  1  0.710499  0.253433  0.528757  1
  Si  Si377  1  0.790870  0.494728  0.490057  1
  Si  Si378  1  0.708842  0.504981  0.529947  1
  Si  Si379  1  0.788720  0.132254  0.487457  1
  Si  Si380  1  0.709335  0.868711  0.532784  1
  Si  Si381  1  0.808382  0.103961  0.549296  1
  Si  Si382  1  0.809592  0.725755  0.554459  1
  Si  Si383  1  0.888186  0.121222  0.589057  1
  Si  Si384  1  -0.000000  0.063467  0.526562  1
  Si  Si385  1  0.000000  0.198807  0.498746  1
  Si  Si386  1  0.000000  0.684023  0.531590  1
  Si  Si387  1  0.000000  0.809658  0.501566  1
  Si  Si388  1  0.000000  0.451223  0.499898  1
  Si  Si389  1  0.211418  0.253243  0.690990  1
  Si  Si390  1  0.288951  0.746736  0.653790  1
  Si  Si391  1  0.209126  0.505208  0.692366  1
  Si  Si392  1  0.291178  0.494935  0.652474  1
  Si  Si393  1  0.210239  0.868144  0.695050  1
  Si  Si394  1  0.289719  0.131732  0.649729  1
  Si  Si395  1  0.191425  0.896093  0.633180  1
  Si  Si396  1  0.190220  0.274484  0.627895  1
  Si  Si397  1  0.112889  0.879214  0.593345  1
  Si  Si398  1  0.000000  0.315960  0.650773  1
  Si  Si399  1  0.000000  0.548691  0.682490  1
  Si  Si400  1  -0.000000  0.190418  0.680802  1
  Si  Si401  1  0.000000  0.936590  0.655810  1
  Si  Si402  1  0.499988  0.198549  0.661169  1
  Si  Si403  1  -0.000000  0.801075  0.683598  1
  Si  Si404  1  0.788778  0.253028  0.690840  1
  Si  Si405  1  0.711171  0.746731  0.653695  1
  Si  Si406  1  0.791074  0.505164  0.692296  1
  Si  Si407  1  0.708956  0.495021  0.652417  1
  Si  Si408  1  0.789735  0.867810  0.694976  1
  Si  Si409  1  0.710081  0.131353  0.649614  1
  Si  Si410  1  0.808912  0.895990  0.633096  1
  Si  Si411  1  0.809914  0.274439  0.627905  1
  Si  Si412  1  0.888183  0.878845  0.593299  1
  Si  Si413  1  0.500034  0.063393  0.689010  1
  Si  Si414  1  0.500122  0.451012  0.662364  1
  Si  Si415  1  0.500119  0.809632  0.663994  1
  Si  Si416  1  0.500137  0.683923  0.694019  1
  Si  Si417  1  0.308630  0.103800  0.711623  1
  Si  Si418  1  0.309948  0.725696  0.716888  1
  Si  Si419  1  0.388142  0.121309  0.751418  1
  Si  Si420  1  0.388205  0.879086  0.755724  1
  Si  Si421  1  0.691751  0.103694  0.711520  1
  Si  Si422  1  0.690285  0.725496  0.716889  1
  Si  Si423  1  0.612883  0.120944  0.751347  1
  Si  Si424  1  0.612918  0.879031  0.755778  1
  H  H425  1  0.337473  0.787205  0.076642  1
  H  H426  1  0.334370  0.124549  0.071307  1
  H  H427  1  0.663610  0.787034  0.076696  1
  H  H428  1  0.666363  0.124404  0.071220  1
  H  H429  1  0.337670  0.213470  0.780913  1
  H  H430  1  0.334718  0.875394  0.786230  1
  H  H431  1  0.663567  0.212849  0.780846  1
  H  H432  1  0.666130  0.875622  0.786341  1
