# generated using pymatgen
data_Si14H2O29
_symmetry_space_group_name_H-M   'P 1'
_cell_length_a   14.33040949
_cell_length_b   8.45279806
_cell_length_c   52.94344836
_cell_angle_alpha   90.00000000
_cell_angle_beta   90.00000000
_cell_angle_gamma   90.00000000
_symmetry_Int_Tables_number   1
_chemical_formula_structural   Si14H2O29
_chemical_formula_sum   'Si56 H8 O116'
_cell_volume   6413.14883246
_cell_formula_units_Z   4
loop_
 _symmetry_equiv_pos_site_id
 _symmetry_equiv_pos_as_xyz
  1  'x, y, z'
loop_
 _atom_site_type_symbol
 _atom_site_label
 _atom_site_symmetry_multiplicity
 _atom_site_fract_x
 _atom_site_fract_y
 _atom_site_fract_z
 _atom_site_occupancy
  O  O1  1  0.559447  0.721511  0.261729  1
  O  O2  1  0.440654  0.721726  0.369634  1
  O  O3  1  0.056819  0.779517  0.189602  1
  O  O4  1  0.444403  0.279919  0.190234  1
  O  O5  1  0.057276  0.220088  0.369988  1
  O  O6  1  0.945364  0.227813  0.261630  1
  O  O7  1  0.403455  0.608130  0.245018  1
  O  O8  1  0.596296  0.604967  0.386485  1
  O  O9  1  0.901480  0.895789  0.206701  1
  O  O10  1  0.599238  0.392453  0.207354  1
  O  O11  1  0.902793  0.105934  0.387472  1
  O  O12  1  0.095488  0.107752  0.244256  1
  O  O13  1  0.289795  0.497545  0.211549  1
  O  O14  1  0.212235  0.995291  0.390674  1
  O  O15  1  0.783114  0.989928  0.240369  1
  O  O16  1  0.714819  0.495230  0.240999  1
  O  O17  1  0.286032  0.496051  0.390762  1
  O  O18  1  0.214349  0.003684  0.211229  1
  O  O19  1  0.281115  0.305074  0.175140  1
  O  O20  1  0.217231  0.191689  0.355317  1
  O  O21  1  0.782686  0.194482  0.275057  1
  O  O22  1  0.725012  0.700899  0.275871  1
  O  O23  1  0.276341  0.693365  0.355182  1
  O  O24  1  0.220495  0.809893  0.175185  1
  O  O25  1  0.584357  0.765686  0.305076  1
  O  O26  1  0.916143  0.734441  0.125511  1
  O  O27  1  0.415410  0.765418  0.326328  1
  O  O28  1  0.086228  0.731242  0.146156  1
  O  O29  1  0.417015  0.226093  0.146176  1
  O  O30  1  0.084251  0.274266  0.325567  1
  O  O31  1  0.583309  0.224282  0.126044  1
  O  O32  1  0.917617  0.272342  0.305571  1
  O  O33  1  0.469805  0.566370  0.291706  1
  O  O34  1  0.033298  0.935576  0.112301  1
  O  O35  1  0.530315  0.566248  0.339724  1
  O  O36  1  0.970556  0.937052  0.160209  1
  O  O37  1  0.530457  0.426383  0.160456  1
  O  O38  1  0.972361  0.071559  0.340331  1
  O  O39  1  0.471718  0.425801  0.111440  1
  O  O40  1  0.030999  0.070606  0.291558  1
  O  O41  1  0.454071  0.561645  0.200605  1
  O  O42  1  0.045387  0.932224  0.380211  1
  O  O43  1  0.949711  0.942553  0.251911  1
  O  O44  1  0.548677  0.437701  0.251949  1
  O  O45  1  0.450959  0.438419  0.379360  1
  O  O46  1  0.049513  0.062657  0.199778  1
  O  O47  1  0.656650  0.978347  0.272799  1
  O  O48  1  0.340820  0.974888  0.358674  1
  O  O49  1  0.162080  0.527957  0.179923  1
  O  O50  1  0.342353  0.027187  0.180158  1
  O  O51  1  0.156973  0.471581  0.359424  1
  O  O52  1  0.843711  0.476182  0.272312  1
  O  O53  1  0.161157  0.288397  0.209662  1
  O  O54  1  0.338689  0.211325  0.388704  1
  O  O55  1  0.657737  0.207500  0.241670  1
  O  O56  1  0.843280  0.709620  0.241194  1
  O  O57  1  0.159781  0.712756  0.389503  1
  O  O58  1  0.338437  0.783626  0.209538  1
  O  O59  1  0.559447  0.721511  0.621078  1
  O  O60  1  0.940980  0.778090  0.441865  1
  O  O61  1  0.056819  0.779517  0.548951  1
  O  O62  1  0.444403  0.279919  0.549583  1
  O  O63  1  0.556913  0.276216  0.441024  1
  O  O64  1  0.945364  0.227813  0.620979  1
  O  O65  1  0.403455  0.608130  0.604367  1
  O  O66  1  0.096932  0.893313  0.424943  1
  O  O67  1  0.901480  0.895789  0.566050  1
  O  O68  1  0.599238  0.392453  0.566703  1
  O  O69  1  0.402866  0.391852  0.423701  1
  O  O70  1  0.095488  0.107752  0.603605  1
  O  O71  1  0.289795  0.497545  0.570898  1
  O  O72  1  0.712846  0.501843  0.420288  1
  O  O73  1  0.783114  0.989928  0.599718  1
  O  O74  1  0.714819  0.495230  0.600348  1
  O  O75  1  0.784289  0.011299  0.421310  1
  O  O76  1  0.214349  0.003684  0.570578  1
  O  O77  1  0.281115  0.305074  0.534489  1
  O  O78  1  0.719484  0.298395  0.454932  1
  O  O79  1  0.782686  0.194482  0.634406  1
  O  O80  1  0.725012  0.700899  0.635220  1
  O  O81  1  0.776492  0.807219  0.456275  1
  O  O82  1  0.220495  0.809893  0.534534  1
  O  O83  1  0.584357  0.765686  0.664425  1
  O  O84  1  0.916143  0.734441  0.484860  1
  O  O85  1  0.415410  0.765418  0.685677  1
  O  O86  1  0.086228  0.731242  0.505505  1
  O  O87  1  0.417015  0.226093  0.505525  1
  O  O88  1  0.084251  0.274266  0.684916  1
  O  O89  1  0.583309  0.224282  0.485393  1
  O  O90  1  0.917617  0.272342  0.664920  1
  O  O91  1  0.469805  0.566370  0.651055  1
  O  O92  1  0.033298  0.935576  0.471650  1
  O  O93  1  0.530315  0.566248  0.699073  1
  O  O94  1  0.970556  0.937052  0.519558  1
  O  O95  1  0.530457  0.426383  0.519805  1
  O  O96  1  0.972361  0.071559  0.699680  1
  O  O97  1  0.471718  0.425801  0.470789  1
  O  O98  1  0.030999  0.070606  0.650907  1
  O  O99  1  0.454071  0.561645  0.559954  1
  O  O100  1  0.546016  0.564831  0.431199  1
  O  O101  1  0.949711  0.942553  0.611260  1
  O  O102  1  0.548677  0.437701  0.611298  1
  O  O103  1  0.952134  0.061290  0.432098  1
  O  O104  1  0.049513  0.062657  0.559127  1
  O  O105  1  0.656650  0.978347  0.632148  1
  O  O106  1  0.840285  0.524496  0.452764  1
  O  O107  1  0.162080  0.527957  0.539272  1
  O  O108  1  0.342353  0.027187  0.539507  1
  O  O109  1  0.651672  0.019389  0.452391  1
  O  O110  1  0.843711  0.476182  0.631661  1
  O  O111  1  0.161157  0.288397  0.569011  1
  O  O112  1  0.844346  0.294212  0.421686  1
  O  O113  1  0.657737  0.207500  0.601019  1
  O  O114  1  0.843280  0.709620  0.600543  1
  O  O115  1  0.660510  0.784854  0.421673  1
  O  O116  1  0.338437  0.783626  0.568887  1
  Si  Si117  1  0.637979  0.804331  0.279043  1
  Si  Si118  1  0.361307  0.802244  0.352285  1
  Si  Si119  1  0.135358  0.701557  0.172004  1
  Si  Si120  1  0.367901  0.200803  0.172181  1
  Si  Si121  1  0.130478  0.300713  0.351600  1
  Si  Si122  1  0.870847  0.302512  0.279570  1
  Si  Si123  1  0.486620  0.576789  0.262546  1
  Si  Si124  1  0.513355  0.576592  0.368868  1
  Si  Si125  1  0.984967  0.925559  0.189351  1
  Si  Si126  1  0.515792  0.424320  0.190150  1
  Si  Si127  1  0.987516  0.072024  0.370631  1
  Si  Si128  1  0.011917  0.081022  0.262688  1
  Si  Si129  1  0.222540  0.398864  0.194056  1
  Si  Si130  1  0.280013  0.091119  0.373231  1
  Si  Si131  1  0.716538  0.094054  0.257487  1
  Si  Si132  1  0.782759  0.600876  0.257530  1
  Si  Si133  1  0.219018  0.593696  0.373591  1
  Si  Si134  1  0.279631  0.902896  0.194023  1
  Si  Si135  1  0.370684  0.616061  0.217520  1
  Si  Si136  1  0.127138  0.883964  0.397202  1
  Si  Si137  1  0.869282  0.879608  0.234158  1
  Si  Si138  1  0.632041  0.377596  0.234894  1
  Si  Si139  1  0.368361  0.381063  0.396421  1
  Si  Si140  1  0.133018  0.120799  0.216693  1
  Si  Si141  1  0.004472  0.840393  0.136567  1
  Si  Si142  1  0.499914  0.661061  0.315751  1
  Si  Si143  1  0.002120  0.171082  0.315145  1
  Si  Si144  1  0.500555  0.326962  0.136118  1
  Si  Si145  1  0.637979  0.804331  0.638392  1
  Si  Si146  1  0.861280  0.697588  0.458925  1
  Si  Si147  1  0.135358  0.701557  0.531353  1
  Si  Si148  1  0.367901  0.200803  0.531530  1
  Si  Si149  1  0.630382  0.191023  0.459394  1
  Si  Si150  1  0.870847  0.302512  0.638919  1
  Si  Si151  1  0.486620  0.576789  0.621895  1
  Si  Si152  1  0.014582  0.921885  0.442753  1
  Si  Si153  1  0.984967  0.925559  0.548700  1
  Si  Si154  1  0.515792  0.424320  0.549499  1
  Si  Si155  1  0.487300  0.425620  0.440649  1
  Si  Si156  1  0.011917  0.081022  0.622037  1
  Si  Si157  1  0.222540  0.398864  0.553405  1
  Si  Si158  1  0.782971  0.405553  0.437406  1
  Si  Si159  1  0.716538  0.094054  0.616836  1
  Si  Si160  1  0.782759  0.600876  0.616879  1
  Si  Si161  1  0.717095  0.907064  0.438136  1
  Si  Si162  1  0.279631  0.902896  0.553372  1
  Si  Si163  1  0.370684  0.616061  0.576869  1
  Si  Si164  1  0.627448  0.613476  0.414150  1
  Si  Si165  1  0.869282  0.879608  0.593507  1
  Si  Si166  1  0.632041  0.377596  0.594243  1
  Si  Si167  1  0.869327  0.123097  0.414894  1
  Si  Si168  1  0.133018  0.120799  0.576042  1
  Si  Si169  1  0.004472  0.840393  0.495916  1
  Si  Si170  1  0.499914  0.661061  0.675100  1
  Si  Si171  1  0.002120  0.171082  0.674494  1
  Si  Si172  1  0.500555  0.326962  0.495467  1
  H  H173  1  0.916143  0.734441  0.108512  1
  H  H174  1  0.583309  0.224282  0.109045  1
  H  H175  1  0.033298  0.935576  0.095302  1
  H  H176  1  0.471718  0.425801  0.094440  1
  H  H177  1  0.415410  0.765418  0.702676  1
  H  H178  1  0.084251  0.274266  0.701915  1
  H  H179  1  0.530315  0.566248  0.716072  1
  H  H180  1  0.972361  0.071559  0.716679  1
