# generated using pymatgen
data_Si9H2O19
_symmetry_space_group_name_H-M   'P 1'
_cell_length_a   14.33040949
_cell_length_b   8.45279806
_cell_length_c   42.85384701
_cell_angle_alpha   90.00000000
_cell_angle_beta   90.00000000
_cell_angle_gamma   90.00000000
_symmetry_Int_Tables_number   1
_chemical_formula_structural   Si9H2O19
_chemical_formula_sum   'Si36 H8 O76'
_cell_volume   5190.9746614
_cell_formula_units_Z   4
loop_
 _symmetry_equiv_pos_site_id
 _symmetry_equiv_pos_as_xyz
  1  'x, y, z'
loop_
 _atom_site_type_symbol
 _atom_site_label
 _atom_site_symmetry_multiplicity
 _atom_site_fract_x
 _atom_site_fract_y
 _atom_site_fract_z
 _atom_site_occupancy
  O  O1  1  0.559447  0.721511  0.205661  1
  O  O2  1  0.440654  0.721726  0.338972  1
  O  O3  1  0.057276  0.220088  0.339409  1
  O  O4  1  0.945364  0.227813  0.205540  1
  O  O5  1  0.403455  0.608130  0.185017  1
  O  O6  1  0.596296  0.604967  0.359790  1
  O  O7  1  0.901480  0.895789  0.137677  1
  O  O8  1  0.599238  0.392453  0.138485  1
  O  O9  1  0.902793  0.105934  0.361010  1
  O  O10  1  0.095488  0.107752  0.184075  1
  O  O11  1  0.212235  0.995291  0.364966  1
  O  O12  1  0.783114  0.989928  0.179273  1
  O  O13  1  0.714819  0.495230  0.180051  1
  O  O14  1  0.286032  0.496051  0.365074  1
  O  O15  1  0.217231  0.191689  0.321284  1
  O  O16  1  0.782686  0.194482  0.222128  1
  O  O17  1  0.725012  0.700899  0.223134  1
  O  O18  1  0.276341  0.693365  0.321117  1
  O  O19  1  0.584357  0.765686  0.259215  1
  O  O20  1  0.415410  0.765418  0.285470  1
  O  O21  1  0.084251  0.274266  0.284530  1
  O  O22  1  0.917617  0.272342  0.259826  1
  O  O23  1  0.469805  0.566370  0.242697  1
  O  O24  1  0.530315  0.566248  0.302020  1
  O  O25  1  0.972361  0.071559  0.302769  1
  O  O26  1  0.030999  0.070606  0.242513  1
  O  O27  1  0.045387  0.932224  0.352040  1
  O  O28  1  0.949711  0.942553  0.193533  1
  O  O29  1  0.548677  0.437701  0.193579  1
  O  O30  1  0.450959  0.438419  0.350988  1
  O  O31  1  0.656650  0.978347  0.219338  1
  O  O32  1  0.340820  0.974888  0.325432  1
  O  O33  1  0.156973  0.471581  0.326359  1
  O  O34  1  0.843711  0.476182  0.218736  1
  O  O35  1  0.338689  0.211325  0.362532  1
  O  O36  1  0.657737  0.207500  0.180880  1
  O  O37  1  0.843280  0.709620  0.180292  1
  O  O38  1  0.159781  0.712756  0.363519  1
  O  O39  1  0.940980  0.778090  0.428210  1
  O  O40  1  0.056819  0.779517  0.560507  1
  O  O41  1  0.444403  0.279919  0.561288  1
  O  O42  1  0.556913  0.276216  0.427170  1
  O  O43  1  0.403455  0.608130  0.628971  1
  O  O44  1  0.096932  0.893313  0.407303  1
  O  O45  1  0.901480  0.895789  0.581632  1
  O  O46  1  0.599238  0.392453  0.582440  1
  O  O47  1  0.402866  0.391852  0.405769  1
  O  O48  1  0.095488  0.107752  0.628030  1
  O  O49  1  0.289795  0.497545  0.587622  1
  O  O50  1  0.712846  0.501843  0.401552  1
  O  O51  1  0.784289  0.011299  0.402814  1
  O  O52  1  0.214349  0.003684  0.587226  1
  O  O53  1  0.281115  0.305074  0.542640  1
  O  O54  1  0.719484  0.298395  0.444353  1
  O  O55  1  0.776492  0.807219  0.446012  1
  O  O56  1  0.220495  0.809893  0.542697  1
  O  O57  1  0.916143  0.734441  0.481327  1
  O  O58  1  0.086228  0.731242  0.506833  1
  O  O59  1  0.417015  0.226093  0.506858  1
  O  O60  1  0.583309  0.224282  0.481986  1
  O  O61  1  0.033298  0.935576  0.465007  1
  O  O62  1  0.970556  0.937052  0.524195  1
  O  O63  1  0.530457  0.426383  0.524500  1
  O  O64  1  0.471718  0.425801  0.463943  1
  O  O65  1  0.454071  0.561645  0.574101  1
  O  O66  1  0.546016  0.564831  0.415032  1
  O  O67  1  0.952134  0.061290  0.416143  1
  O  O68  1  0.049513  0.062657  0.573080  1
  O  O69  1  0.840285  0.524496  0.441674  1
  O  O70  1  0.162080  0.527957  0.548549  1
  O  O71  1  0.342353  0.027187  0.548840  1
  O  O72  1  0.651672  0.019389  0.441214  1
  O  O73  1  0.161157  0.288397  0.585290  1
  O  O74  1  0.844346  0.294212  0.403280  1
  O  O75  1  0.660510  0.784854  0.403263  1
  O  O76  1  0.338437  0.783626  0.585138  1
  Si  Si77  1  0.637979  0.804331  0.227052  1
  Si  Si78  1  0.361307  0.802244  0.317538  1
  Si  Si79  1  0.130478  0.300713  0.316693  1
  Si  Si80  1  0.870847  0.302512  0.227703  1
  Si  Si81  1  0.486620  0.576789  0.206671  1
  Si  Si82  1  0.513355  0.576592  0.338026  1
  Si  Si83  1  0.987516  0.072024  0.340203  1
  Si  Si84  1  0.011917  0.081022  0.206846  1
  Si  Si85  1  0.280013  0.091119  0.343416  1
  Si  Si86  1  0.716538  0.094054  0.200421  1
  Si  Si87  1  0.782759  0.600876  0.200474  1
  Si  Si88  1  0.219018  0.593696  0.343861  1
  Si  Si89  1  0.127138  0.883964  0.373030  1
  Si  Si90  1  0.869282  0.879608  0.171599  1
  Si  Si91  1  0.632041  0.377596  0.172509  1
  Si  Si92  1  0.368361  0.381063  0.372066  1
  Si  Si93  1  0.499914  0.661061  0.272402  1
  Si  Si94  1  0.002120  0.171082  0.271654  1
  Si  Si95  1  0.861280  0.697588  0.449286  1
  Si  Si96  1  0.135358  0.701557  0.538767  1
  Si  Si97  1  0.367901  0.200803  0.538985  1
  Si  Si98  1  0.630382  0.191023  0.449866  1
  Si  Si99  1  0.014582  0.921885  0.429306  1
  Si  Si100  1  0.984967  0.925559  0.560198  1
  Si  Si101  1  0.515792  0.424320  0.561185  1
  Si  Si102  1  0.487300  0.425620  0.426707  1
  Si  Si103  1  0.222540  0.398864  0.566011  1
  Si  Si104  1  0.782971  0.405553  0.422701  1
  Si  Si105  1  0.717095  0.907064  0.423602  1
  Si  Si106  1  0.279631  0.902896  0.565970  1
  Si  Si107  1  0.370684  0.616061  0.594999  1
  Si  Si108  1  0.627448  0.613476  0.393969  1
  Si  Si109  1  0.869327  0.123097  0.394888  1
  Si  Si110  1  0.133018  0.120799  0.593977  1
  Si  Si111  1  0.004472  0.840393  0.494987  1
  Si  Si112  1  0.500555  0.326962  0.494432  1
  H  H113  1  0.403455  0.608130  0.164015  1
  H  H114  1  0.901480  0.895789  0.116676  1
  H  H115  1  0.599238  0.392453  0.117483  1
  H  H116  1  0.095488  0.107752  0.163073  1
  H  H117  1  0.403455  0.608130  0.649973  1
  H  H118  1  0.901480  0.895789  0.602634  1
  H  H119  1  0.599238  0.392453  0.603441  1
  H  H120  1  0.095488  0.107752  0.649031  1
