# generated using pymatgen
data_Si18H2O37
_symmetry_space_group_name_H-M   'P 1'
_cell_length_a   11.40919207
_cell_length_b   26.79127551
_cell_length_c   76.16607615
_cell_angle_alpha   134.99934521
_cell_angle_beta   90.00000000
_cell_angle_gamma   90.00000000
_symmetry_Int_Tables_number   1
_chemical_formula_structural   Si18H2O37
_chemical_formula_sum   'Si144 H16 O296'
_cell_volume   16462.6532131
_cell_formula_units_Z   8
loop_
 _symmetry_equiv_pos_site_id
 _symmetry_equiv_pos_as_xyz
  1  'x, y, z'
loop_
 _atom_site_type_symbol
 _atom_site_label
 _atom_site_symmetry_multiplicity
 _atom_site_fract_x
 _atom_site_fract_y
 _atom_site_fract_z
 _atom_site_occupancy
  O  O1  1  0.499963  0.738120  0.119483  1
  O  O2  1  0.339258  0.668928  0.151996  1
  O  O3  1  0.000000  0.937068  0.251456  1
  O  O4  1  0.814656  0.964219  0.241260  1
  O  O5  1  0.814655  0.868917  0.241258  1
  O  O6  1  0.185237  0.964211  0.241255  1
  O  O7  1  0.185238  0.868917  0.241256  1
  O  O8  1  0.290573  0.731765  0.104653  1
  O  O9  1  0.709359  0.731758  0.104654  1
  O  O10  1  0.499943  0.930571  0.248224  1
  O  O11  1  0.708418  0.921036  0.202104  1
  O  O12  1  0.708400  0.754674  0.202102  1
  O  O13  1  0.291500  0.921040  0.202102  1
  O  O14  1  0.291482  0.754676  0.202100  1
  O  O15  1  0.648940  0.801589  0.184062  1
  O  O16  1  0.350961  0.801593  0.184061  1
  O  O17  1  0.499959  0.869748  0.184177  1
  O  O18  1  0.499943  0.733896  0.184175  1
  O  O19  1  0.660648  0.805343  0.151999  1
  O  O20  1  0.339274  0.805348  0.151998  1
  O  O21  1  0.654777  0.670785  0.118994  1
  O  O22  1  0.345131  0.670790  0.118993  1
  O  O23  1  0.660630  0.668923  0.151998  1
  O  O24  1  0.499945  0.605420  0.119481  1
  O  O25  1  0.314644  0.368921  0.259100  1
  O  O26  1  0.685226  0.368914  0.259101  1
  O  O27  1  0.290551  0.552160  0.104653  1
  O  O28  1  0.709335  0.552154  0.104654  1
  O  O29  1  -0.000000  0.105420  0.249803  1
  O  O30  1  0.790560  0.052157  0.238136  1
  O  O31  1  0.209343  0.052157  0.238134  1
  O  O32  1  0.613903  0.004447  0.243873  1
  O  O33  1  0.385991  0.004451  0.243874  1
  O  O34  1  0.208406  0.254675  0.241427  1
  O  O35  1  0.791486  0.254675  0.241429  1
  O  O36  1  0.000000  0.233896  0.249017  1
  O  O37  1  0.160636  0.168925  0.248876  1
  O  O38  1  0.839264  0.168926  0.248877  1
  O  O39  1  0.790545  0.768413  0.238131  1
  O  O40  1  0.209329  0.768409  0.238128  1
  O  O41  1  0.613898  0.839202  0.243873  1
  O  O42  1  0.385988  0.839197  0.243871  1
  O  O43  1  0.160627  0.694827  0.248870  1
  O  O44  1  0.839253  0.694829  0.248872  1
  O  O45  1  0.000000  0.762055  0.249797  1
  O  O46  1  0.314674  0.535967  0.259101  1
  O  O47  1  0.685258  0.535950  0.259102  1
  O  O48  1  0.290569  0.448018  0.212231  1
  O  O49  1  0.709350  0.448013  0.212233  1
  O  O50  1  0.113922  0.495720  0.241703  1
  O  O51  1  0.113891  0.339196  0.241702  1
  O  O52  1  0.886010  0.495724  0.241702  1
  O  O53  1  0.885980  0.339203  0.241704  1
  O  O54  1  0.000000  0.437336  0.251589  1
  O  O55  1  0.208402  0.579133  0.241422  1
  O  O56  1  0.791485  0.579135  0.241426  1
  O  O57  1  0.000000  0.630425  0.249012  1
  O  O58  1  0.499958  0.394752  0.197404  1
  O  O59  1  0.499944  0.262055  0.197404  1
  O  O60  1  0.290549  0.268414  0.212232  1
  O  O61  1  0.709333  0.268409  0.212233  1
  O  O62  1  0.708405  0.079133  0.114784  1
  O  O63  1  0.708421  0.245493  0.114785  1
  O  O64  1  0.291487  0.079136  0.114784  1
  O  O65  1  0.291499  0.245497  0.114784  1
  O  O66  1  0.648942  0.198578  0.132825  1
  O  O67  1  0.350963  0.198583  0.132825  1
  O  O68  1  0.499947  0.130425  0.132710  1
  O  O69  1  0.499959  0.266274  0.132710  1
  O  O70  1  0.660633  0.194826  0.164888  1
  O  O71  1  0.339258  0.194831  0.164888  1
  O  O72  1  0.654775  0.329384  0.197893  1
  O  O73  1  0.345128  0.329388  0.197893  1
  O  O74  1  0.339273  0.331247  0.164888  1
  O  O75  1  0.660645  0.331243  0.164888  1
  O  O76  1  0.499963  0.738120  0.368204  1
  O  O77  1  0.339258  0.668928  0.400717  1
  O  O78  1  0.000000  0.937068  0.500177  1
  O  O79  1  0.814656  0.964219  0.489981  1
  O  O80  1  0.814655  0.868917  0.489978  1
  O  O81  1  0.185237  0.964211  0.489975  1
  O  O82  1  0.185238  0.868917  0.489977  1
  O  O83  1  0.290573  0.731765  0.353374  1
  O  O84  1  0.709359  0.731758  0.353375  1
  O  O85  1  0.499943  0.930571  0.496945  1
  O  O86  1  0.708418  0.921036  0.450824  1
  O  O87  1  0.708400  0.754674  0.450822  1
  O  O88  1  0.291500  0.921040  0.450823  1
  O  O89  1  0.291482  0.754676  0.450821  1
  O  O90  1  0.648940  0.801589  0.432783  1
  O  O91  1  0.350961  0.801593  0.432781  1
  O  O92  1  0.499959  0.869748  0.432898  1
  O  O93  1  0.499943  0.733896  0.432896  1
  O  O94  1  0.660648  0.805343  0.400720  1
  O  O95  1  0.339274  0.805348  0.400719  1
  O  O96  1  0.654777  0.670785  0.367715  1
  O  O97  1  0.345131  0.670790  0.367713  1
  O  O98  1  0.660630  0.668923  0.400719  1
  O  O99  1  0.499945  0.605420  0.368202  1
  O  O100  1  0.499935  0.437069  0.282803  1
  O  O101  1  0.314641  0.464223  0.306505  1
  O  O102  1  0.314644  0.368921  0.507821  1
  O  O103  1  0.685222  0.464207  0.306506  1
  O  O104  1  0.685226  0.368914  0.507822  1
  O  O105  1  0.290551  0.552160  0.353373  1
  O  O106  1  0.709335  0.552154  0.353375  1
  O  O107  1  0.113889  0.504448  0.323904  1
  O  O108  1  0.113922  0.660970  0.323902  1
  O  O109  1  0.885976  0.504451  0.323902  1
  O  O110  1  0.886010  0.660972  0.323903  1
  O  O111  1  0.000000  0.562835  0.314016  1
  O  O112  1  0.000000  0.430571  0.282803  1
  O  O113  1  0.208415  0.421038  0.324181  1
  O  O114  1  0.791497  0.421038  0.324183  1
  O  O115  1  0.000000  0.369748  0.316594  1
  O  O116  1  -0.000000  0.105420  0.498523  1
  O  O117  1  0.163380  0.000000  0.282802  1
  O  O118  1  0.790560  0.052157  0.486857  1
  O  O119  1  0.790571  0.231762  0.327478  1
  O  O120  1  0.209343  0.052157  0.486855  1
  O  O121  1  0.209357  0.231761  0.327476  1
  O  O122  1  0.613903  0.004447  0.492594  1
  O  O123  1  0.613921  0.160969  0.321734  1
  O  O124  1  0.385991  0.004451  0.492595  1
  O  O125  1  0.386009  0.160974  0.321735  1
  O  O126  1  0.499957  0.062835  0.282804  1
  O  O127  1  0.208406  0.254675  0.490148  1
  O  O128  1  0.791486  0.254675  0.490150  1
  O  O129  1  0.148942  0.301589  0.282804  1
  O  O130  1  0.850963  0.301592  0.282807  1
  O  O131  1  -0.000000  0.233896  0.497738  1
  O  O132  1  0.160647  0.305345  0.316735  1
  O  O133  1  0.160636  0.168925  0.497596  1
  O  O134  1  0.839273  0.305346  0.316737  1
  O  O135  1  0.839264  0.168926  0.497598  1
  O  O136  1  0.154780  0.170787  0.282806  1
  O  O137  1  0.845134  0.170788  0.282808  1
  O  O138  1  0.000000  0.238120  0.315811  1
  O  O139  1  0.836532  0.000000  0.282805  1
  O  O140  1  0.790562  0.948017  0.327474  1
  O  O141  1  0.790545  0.768413  0.486852  1
  O  O142  1  0.209344  0.948015  0.327472  1
  O  O143  1  0.209329  0.768409  0.486848  1
  O  O144  1  0.613920  0.995720  0.321731  1
  O  O145  1  0.613898  0.839202  0.492594  1
  O  O146  1  0.386007  0.995725  0.321736  1
  O  O147  1  0.385988  0.839197  0.492592  1
  O  O148  1  0.499938  0.937336  0.282803  1
  O  O149  1  0.208417  0.745496  0.324177  1
  O  O150  1  0.791497  0.745496  0.324179  1
  O  O151  1  0.148938  0.698579  0.282799  1
  O  O152  1  0.850959  0.698583  0.282802  1
  O  O153  1  0.000000  0.766275  0.316589  1
  O  O154  1  0.160627  0.694827  0.497590  1
  O  O155  1  0.160639  0.831244  0.316729  1
  O  O156  1  0.839253  0.694829  0.497593  1
  O  O157  1  0.839268  0.831247  0.316732  1
  O  O158  1  0.154769  0.829386  0.282800  1
  O  O159  1  0.845122  0.829387  0.282802  1
  O  O160  1  -0.000000  0.762055  0.498517  1
  O  O161  1  0.000000  0.894752  0.315805  1
  O  O162  1  0.336525  0.500087  0.282800  1
  O  O163  1  0.663373  0.500084  0.282805  1
  O  O164  1  0.499963  0.563102  0.282803  1
  O  O165  1  0.314674  0.535967  0.507821  1
  O  O166  1  0.314675  0.631257  0.306505  1
  O  O167  1  0.685258  0.535950  0.507822  1
  O  O168  1  0.685254  0.631251  0.306506  1
  O  O169  1  0.290569  0.448018  0.460952  1
  O  O170  1  0.709350  0.448013  0.460953  1
  O  O171  1  0.113922  0.495720  0.490423  1
  O  O172  1  0.113891  0.339196  0.490423  1
  O  O173  1  0.886010  0.495724  0.490423  1
  O  O174  1  0.885980  0.339203  0.490425  1
  O  O175  1  0.000000  0.437336  0.500310  1
  O  O176  1  0.000000  0.569600  0.282803  1
  O  O177  1  0.208402  0.579133  0.490143  1
  O  O178  1  0.791485  0.579135  0.490147  1
  O  O179  1  -0.000000  0.630425  0.497733  1
  O  O180  1  0.499958  0.394752  0.446125  1
  O  O181  1  0.499944  0.262055  0.446124  1
  O  O182  1  -0.000000  0.063102  0.314151  1
  O  O183  1  0.814674  0.035962  0.324353  1
  O  O184  1  0.814675  0.131254  0.324350  1
  O  O185  1  0.185258  0.035954  0.324347  1
  O  O186  1  0.185253  0.131253  0.324348  1
  O  O187  1  0.290549  0.268414  0.460953  1
  O  O188  1  0.709333  0.268409  0.460954  1
  O  O189  1  0.499957  0.069600  0.317383  1
  O  O190  1  0.708405  0.079133  0.363505  1
  O  O191  1  0.708421  0.245493  0.363506  1
  O  O192  1  0.291487  0.079136  0.363504  1
  O  O193  1  0.291499  0.245497  0.363505  1
  O  O194  1  0.648942  0.198578  0.381545  1
  O  O195  1  0.350963  0.198583  0.381545  1
  O  O196  1  0.499947  0.130425  0.381430  1
  O  O197  1  0.499959  0.266274  0.381430  1
  O  O198  1  0.660633  0.194826  0.413609  1
  O  O199  1  0.339258  0.194831  0.413608  1
  O  O200  1  0.654775  0.329384  0.446614  1
  O  O201  1  0.345128  0.329388  0.446613  1
  O  O202  1  0.339273  0.331247  0.413609  1
  O  O203  1  0.660645  0.331243  0.413609  1
  O  O204  1  0.499963  0.738120  0.616924  1
  O  O205  1  0.339258  0.668928  0.649438  1
  O  O206  1  0.290573  0.731765  0.602094  1
  O  O207  1  0.709359  0.731758  0.602096  1
  O  O208  1  0.708418  0.921036  0.699545  1
  O  O209  1  0.708400  0.754674  0.699543  1
  O  O210  1  0.291500  0.921040  0.699543  1
  O  O211  1  0.291482  0.754676  0.699541  1
  O  O212  1  0.648940  0.801589  0.681503  1
  O  O213  1  0.350961  0.801593  0.681502  1
  O  O214  1  0.499959  0.869748  0.681618  1
  O  O215  1  0.499943  0.733896  0.681617  1
  O  O216  1  0.660648  0.805343  0.649441  1
  O  O217  1  0.339274  0.805348  0.649439  1
  O  O218  1  0.654777  0.670785  0.616435  1
  O  O219  1  0.345131  0.670790  0.616434  1
  O  O220  1  0.660630  0.668923  0.649439  1
  O  O221  1  0.499945  0.605420  0.616922  1
  O  O222  1  0.499935  0.437069  0.531524  1
  O  O223  1  0.314641  0.464223  0.555226  1
  O  O224  1  0.685222  0.464207  0.555227  1
  O  O225  1  0.290551  0.552160  0.602094  1
  O  O226  1  0.709335  0.552154  0.602095  1
  O  O227  1  0.113889  0.504448  0.572625  1
  O  O228  1  0.113922  0.660970  0.572623  1
  O  O229  1  0.885976  0.504451  0.572623  1
  O  O230  1  0.886010  0.660972  0.572624  1
  O  O231  1  -0.000000  0.562835  0.562737  1
  O  O232  1  -0.000000  0.430571  0.531524  1
  O  O233  1  0.208415  0.421038  0.572901  1
  O  O234  1  0.791497  0.421038  0.572904  1
  O  O235  1  0.000000  0.369748  0.565315  1
  O  O236  1  0.163380  0.000000  0.531523  1
  O  O237  1  0.790571  0.231762  0.576199  1
  O  O238  1  0.209357  0.231761  0.576197  1
  O  O239  1  0.613921  0.160969  0.570455  1
  O  O240  1  0.386009  0.160974  0.570456  1
  O  O241  1  0.499957  0.062835  0.531525  1
  O  O242  1  0.148942  0.301589  0.531525  1
  O  O243  1  0.850963  0.301592  0.531527  1
  O  O244  1  0.160647  0.305345  0.565456  1
  O  O245  1  0.839273  0.305346  0.565457  1
  O  O246  1  0.154780  0.170787  0.531527  1
  O  O247  1  0.845134  0.170788  0.531528  1
  O  O248  1  0.000000  0.238120  0.564531  1
  O  O249  1  0.836532  0.000000  0.531526  1
  O  O250  1  0.790562  0.948017  0.576194  1
  O  O251  1  0.209344  0.948015  0.576192  1
  O  O252  1  0.613920  0.995720  0.570452  1
  O  O253  1  0.386007  0.995725  0.570456  1
  O  O254  1  0.499938  0.937336  0.531524  1
  O  O255  1  0.208417  0.745496  0.572898  1
  O  O256  1  0.791497  0.745496  0.572900  1
  O  O257  1  0.148938  0.698579  0.531520  1
  O  O258  1  0.850959  0.698583  0.531523  1
  O  O259  1  0.000000  0.766275  0.565310  1
  O  O260  1  0.160639  0.831244  0.565449  1
  O  O261  1  0.839268  0.831247  0.565452  1
  O  O262  1  0.154769  0.829386  0.531520  1
  O  O263  1  0.845122  0.829387  0.531523  1
  O  O264  1  0.000000  0.894752  0.564525  1
  O  O265  1  0.336525  0.500087  0.531521  1
  O  O266  1  0.663373  0.500084  0.531526  1
  O  O267  1  0.499963  0.563102  0.531524  1
  O  O268  1  0.314675  0.631257  0.555226  1
  O  O269  1  0.685254  0.631251  0.555227  1
  O  O270  1  0.290569  0.448018  0.709673  1
  O  O271  1  0.709350  0.448013  0.709674  1
  O  O272  1  0.000000  0.569600  0.531523  1
  O  O273  1  0.499958  0.394752  0.694846  1
  O  O274  1  0.499944  0.262055  0.694845  1
  O  O275  1  0.000000  0.063102  0.562871  1
  O  O276  1  0.814674  0.035962  0.573073  1
  O  O277  1  0.814675  0.131254  0.573071  1
  O  O278  1  0.185258  0.035954  0.573068  1
  O  O279  1  0.185253  0.131253  0.573069  1
  O  O280  1  0.290549  0.268414  0.709673  1
  O  O281  1  0.709333  0.268409  0.709674  1
  O  O282  1  0.499957  0.069600  0.566104  1
  O  O283  1  0.708405  0.079133  0.612225  1
  O  O284  1  0.708421  0.245493  0.612226  1
  O  O285  1  0.291487  0.079136  0.612225  1
  O  O286  1  0.291499  0.245497  0.612226  1
  O  O287  1  0.648942  0.198578  0.630266  1
  O  O288  1  0.350963  0.198583  0.630266  1
  O  O289  1  0.499947  0.130425  0.630151  1
  O  O290  1  0.499959  0.266274  0.630151  1
  O  O291  1  0.660633  0.194826  0.662329  1
  O  O292  1  0.339258  0.194831  0.662329  1
  O  O293  1  0.654775  0.329384  0.695334  1
  O  O294  1  0.345128  0.329388  0.695334  1
  O  O295  1  0.339273  0.331247  0.662329  1
  O  O296  1  0.660645  0.331243  0.662330  1
  Si  Si297  1  0.735044  0.985827  0.230820  1
  Si  Si298  1  0.735034  0.805335  0.230817  1
  Si  Si299  1  0.264859  0.985826  0.230817  1
  Si  Si300  1  0.264851  0.805333  0.230815  1
  Si  Si301  1  0.635126  0.852100  0.180459  1
  Si  Si302  1  0.635112  0.736590  0.180457  1
  Si  Si303  1  0.364791  0.852103  0.180458  1
  Si  Si304  1  0.364777  0.736593  0.180456  1
  Si  Si305  1  0.635359  0.737429  0.123480  1
  Si  Si306  1  0.364564  0.737434  0.123480  1
  Si  Si307  1  0.864318  0.942441  0.254130  1
  Si  Si308  1  0.135580  0.942441  0.254128  1
  Si  Si309  1  0.499941  0.884694  0.254102  1
  Si  Si310  1  0.635343  0.622177  0.123479  1
  Si  Si311  1  0.364549  0.622181  0.123478  1
  Si  Si312  1  0.235032  0.305335  0.237912  1
  Si  Si313  1  0.764848  0.305333  0.237914  1
  Si  Si314  1  0.135116  0.236592  0.254076  1
  Si  Si315  1  0.864781  0.236592  0.254078  1
  Si  Si316  1  0.135350  0.122179  0.254141  1
  Si  Si317  1  0.864555  0.122179  0.254142  1
  Si  Si318  1  0.499948  0.000000  0.254103  1
  Si  Si319  1  0.135337  0.762742  0.254135  1
  Si  Si320  1  0.864542  0.762743  0.254137  1
  Si  Si321  1  0.235050  0.514348  0.237910  1
  Si  Si322  1  0.764865  0.514343  0.237912  1
  Si  Si323  1  0.135110  0.648070  0.254070  1
  Si  Si324  1  0.864775  0.648072  0.254073  1
  Si  Si325  1  0.635355  0.377992  0.193407  1
  Si  Si326  1  0.364560  0.377995  0.193407  1
  Si  Si327  1  0.000000  0.500088  0.254104  1
  Si  Si328  1  0.000000  0.384694  0.254104  1
  Si  Si329  1  0.635115  0.148070  0.136428  1
  Si  Si330  1  0.635126  0.263578  0.136429  1
  Si  Si331  1  0.364780  0.148072  0.136428  1
  Si  Si332  1  0.364790  0.263580  0.136429  1
  Si  Si333  1  0.635343  0.262741  0.193407  1
  Si  Si334  1  0.364548  0.262745  0.193406  1
  Si  Si335  1  0.735044  0.985827  0.479540  1
  Si  Si336  1  0.735034  0.805335  0.479538  1
  Si  Si337  1  0.264859  0.985826  0.479538  1
  Si  Si338  1  0.264851  0.805333  0.479536  1
  Si  Si339  1  0.635126  0.852100  0.429179  1
  Si  Si340  1  0.635112  0.736590  0.429178  1
  Si  Si341  1  0.364791  0.852103  0.429178  1
  Si  Si342  1  0.364777  0.736593  0.429177  1
  Si  Si343  1  0.635359  0.737429  0.372201  1
  Si  Si344  1  0.364564  0.737434  0.372200  1
  Si  Si345  1  0.864318  0.942441  0.502851  1
  Si  Si346  1  0.135580  0.942441  0.502848  1
  Si  Si347  1  0.499941  0.884694  0.502823  1
  Si  Si348  1  0.235035  0.485830  0.327695  1
  Si  Si349  1  0.764850  0.485824  0.327695  1
  Si  Si350  1  0.135125  0.352102  0.311534  1
  Si  Si351  1  0.864789  0.352102  0.311536  1
  Si  Si352  1  0.635343  0.622177  0.372200  1
  Si  Si353  1  0.364549  0.622181  0.372199  1
  Si  Si354  1  0.364306  0.442445  0.282802  1
  Si  Si355  1  0.635567  0.442438  0.282804  1
  Si  Si356  1  0.000000  0.500084  0.311502  1
  Si  Si357  1  0.235032  0.305335  0.486633  1
  Si  Si358  1  0.764848  0.305333  0.486634  1
  Si  Si359  1  0.135116  0.236592  0.502797  1
  Si  Si360  1  0.864781  0.236592  0.502798  1
  Si  Si361  1  0.135359  0.237431  0.311471  1
  Si  Si362  1  0.135350  0.122179  0.502861  1
  Si  Si363  1  0.864563  0.237432  0.311472  1
  Si  Si364  1  0.864555  0.122179  0.502863  1
  Si  Si365  1  0.499948  0.000000  0.502824  1
  Si  Si366  1  0.499962  0.115477  0.311505  1
  Si  Si367  1  0.235055  0.694839  0.327693  1
  Si  Si368  1  0.764870  0.694835  0.327694  1
  Si  Si369  1  0.135122  0.763579  0.311529  1
  Si  Si370  1  0.864786  0.763580  0.311531  1
  Si  Si371  1  0.135337  0.762742  0.502855  1
  Si  Si372  1  0.135349  0.877993  0.311465  1
  Si  Si373  1  0.864542  0.762743  0.502857  1
  Si  Si374  1  0.864554  0.877994  0.311467  1
  Si  Si375  1  0.235050  0.514348  0.486631  1
  Si  Si376  1  0.764865  0.514343  0.486632  1
  Si  Si377  1  0.135110  0.648070  0.502791  1
  Si  Si378  1  0.864775  0.648072  0.502794  1
  Si  Si379  1  0.635355  0.377992  0.442128  1
  Si  Si380  1  0.364560  0.377995  0.442127  1
  Si  Si381  1  0.364331  0.557733  0.282802  1
  Si  Si382  1  0.635592  0.557727  0.282804  1
  Si  Si383  1  0.000000  0.500088  0.502824  1
  Si  Si384  1  0.000000  0.615477  0.311502  1
  Si  Si385  1  -0.000000  0.384694  0.502824  1
  Si  Si386  1  0.735049  0.014346  0.334789  1
  Si  Si387  1  0.735055  0.194836  0.334790  1
  Si  Si388  1  0.264863  0.014345  0.334788  1
  Si  Si389  1  0.264870  0.194837  0.334789  1
  Si  Si390  1  0.635115  0.148070  0.385149  1
  Si  Si391  1  0.635126  0.263578  0.385150  1
  Si  Si392  1  0.364780  0.148072  0.385149  1
  Si  Si393  1  0.364790  0.263580  0.385149  1
  Si  Si394  1  0.635343  0.262741  0.442127  1
  Si  Si395  1  0.364548  0.262745  0.442127  1
  Si  Si396  1  0.864333  0.057730  0.311479  1
  Si  Si397  1  0.135594  0.057729  0.311477  1
  Si  Si398  1  0.499957  0.000000  0.311504  1
  Si  Si399  1  0.635126  0.852100  0.677900  1
  Si  Si400  1  0.635112  0.736590  0.677899  1
  Si  Si401  1  0.364791  0.852103  0.677899  1
  Si  Si402  1  0.364777  0.736593  0.677897  1
  Si  Si403  1  0.635359  0.737429  0.620922  1
  Si  Si404  1  0.364564  0.737434  0.620921  1
  Si  Si405  1  0.235035  0.485830  0.576416  1
  Si  Si406  1  0.764850  0.485824  0.576416  1
  Si  Si407  1  0.135125  0.352102  0.560255  1
  Si  Si408  1  0.864789  0.352102  0.560256  1
  Si  Si409  1  0.635343  0.622177  0.620920  1
  Si  Si410  1  0.364549  0.622181  0.620919  1
  Si  Si411  1  0.364306  0.442445  0.531523  1
  Si  Si412  1  0.635567  0.442438  0.531524  1
  Si  Si413  1  0.000000  0.500084  0.560223  1
  Si  Si414  1  0.135359  0.237431  0.560191  1
  Si  Si415  1  0.864563  0.237432  0.560193  1
  Si  Si416  1  0.499962  0.115477  0.560225  1
  Si  Si417  1  0.235055  0.694839  0.576414  1
  Si  Si418  1  0.764870  0.694835  0.576415  1
  Si  Si419  1  0.135122  0.763579  0.560249  1
  Si  Si420  1  0.864786  0.763580  0.560251  1
  Si  Si421  1  0.135349  0.877993  0.560185  1
  Si  Si422  1  0.864554  0.877994  0.560187  1
  Si  Si423  1  0.635355  0.377992  0.690849  1
  Si  Si424  1  0.364560  0.377995  0.690848  1
  Si  Si425  1  0.364331  0.557733  0.531523  1
  Si  Si426  1  0.635592  0.557727  0.531525  1
  Si  Si427  1  0.000000  0.615477  0.560223  1
  Si  Si428  1  0.735049  0.014346  0.583510  1
  Si  Si429  1  0.735055  0.194836  0.583511  1
  Si  Si430  1  0.264863  0.014345  0.583509  1
  Si  Si431  1  0.264870  0.194837  0.583510  1
  Si  Si432  1  0.635115  0.148070  0.633870  1
  Si  Si433  1  0.635126  0.263578  0.633870  1
  Si  Si434  1  0.364780  0.148072  0.633869  1
  Si  Si435  1  0.364790  0.263580  0.633870  1
  Si  Si436  1  0.635343  0.262741  0.690848  1
  Si  Si437  1  0.364548  0.262745  0.690848  1
  Si  Si438  1  0.864333  0.057730  0.560200  1
  Si  Si439  1  0.135594  0.057729  0.560197  1
  Si  Si440  1  0.499957  0.000000  0.560224  1
  H  H441  1  0.290573  0.731765  0.092837  1
  H  H442  1  0.709359  0.731758  0.092838  1
  H  H443  1  0.290551  0.552160  0.092836  1
  H  H444  1  0.709335  0.552154  0.092838  1
  H  H445  1  0.708405  0.079133  0.102968  1
  H  H446  1  0.708421  0.245493  0.102969  1
  H  H447  1  0.291487  0.079136  0.102967  1
  H  H448  1  0.291499  0.245497  0.102968  1
  H  H449  1  0.708418  0.921036  0.711361  1
  H  H450  1  0.708400  0.754674  0.711359  1
  H  H451  1  0.291500  0.921040  0.711360  1
  H  H452  1  0.291482  0.754676  0.711358  1
  H  H453  1  0.290569  0.448018  0.721489  1
  H  H454  1  0.709350  0.448013  0.721490  1
  H  H455  1  0.290549  0.268414  0.721490  1
  H  H456  1  0.709333  0.268409  0.721491  1
