# generated using pymatgen
data_Si45H2O91
_symmetry_space_group_name_H-M   'P 1'
_cell_length_a   13.93702836
_cell_length_b   12.36391025
_cell_length_c   84.61646817
_cell_angle_alpha   115.65100000
_cell_angle_beta   90.00000000
_cell_angle_gamma   90.00000000
_symmetry_Int_Tables_number   1
_chemical_formula_structural   Si45H2O91
_chemical_formula_sum   'Si180 H8 O364'
_cell_volume   13143.8135652
_cell_formula_units_Z   4
loop_
 _symmetry_equiv_pos_site_id
 _symmetry_equiv_pos_as_xyz
  1  'x, y, z'
loop_
 _atom_site_type_symbol
 _atom_site_label
 _atom_site_symmetry_multiplicity
 _atom_site_fract_x
 _atom_site_fract_y
 _atom_site_fract_z
 _atom_site_occupancy
  O  O1  1  0.288095  0.685895  0.076201  1
  O  O2  1  0.711671  0.685774  0.076187  1
  O  O3  1  0.405469  0.730292  0.150898  1
  O  O4  1  0.094401  0.269483  0.126189  1
  O  O5  1  0.251355  0.274547  0.109718  1
  O  O6  1  0.213458  0.098478  0.118611  1
  O  O7  1  0.247411  0.696559  0.135799  1
  O  O8  1  0.252463  0.305462  0.141331  1
  O  O9  1  0.248266  0.868349  0.105760  1
  O  O10  1  0.406737  0.762149  0.102176  1
  O  O11  1  0.252514  0.660900  0.104188  1
  O  O12  1  0.287463  0.314832  0.082520  1
  O  O13  1  0.406748  0.047600  0.153950  1
  O  O14  1  0.092543  0.954247  0.123006  1
  O  O15  1  0.249350  0.997647  0.138464  1
  O  O16  1  0.095335  0.630660  0.118799  1
  O  O17  1  0.243393  0.484456  0.112080  1
  O  O18  1  0.405335  0.380529  0.108158  1
  O  O19  1  0.499894  0.340234  0.131178  1
  O  O20  1  0.499888  0.175993  0.142141  1
  O  O21  1  0.499926  0.730038  0.125320  1
  O  O22  1  0.499914  0.544924  0.131319  1
  O  O23  1  0.499874  0.937805  0.126064  1
  O  O24  1  0.905425  0.269489  0.126190  1
  O  O25  1  0.594362  0.730302  0.150899  1
  O  O26  1  0.748487  0.274611  0.109718  1
  O  O27  1  0.786334  0.098520  0.118604  1
  O  O28  1  0.747351  0.305514  0.141329  1
  O  O29  1  0.752406  0.696613  0.135796  1
  O  O30  1  0.751570  0.868330  0.105725  1
  O  O31  1  0.593071  0.762185  0.102171  1
  O  O32  1  0.747302  0.660944  0.104183  1
  O  O33  1  0.712338  0.314886  0.082521  1
  O  O34  1  0.907064  0.954261  0.123031  1
  O  O35  1  0.592859  0.047617  0.153976  1
  O  O36  1  0.749888  0.997517  0.138411  1
  O  O37  1  0.904467  0.630656  0.118797  1
  O  O38  1  0.000000  0.063476  0.150993  1
  O  O39  1  0.756375  0.484517  0.112080  1
  O  O40  1  0.594462  0.380511  0.108157  1
  O  O41  1  0.000000  0.661120  0.145915  1
  O  O42  1  0.000000  0.271524  0.151849  1
  O  O43  1  -0.000000  0.825389  0.134878  1
  O  O44  1  0.000000  0.455651  0.145596  1
  O  O45  1  0.248116  0.726400  0.167376  1
  O  O46  1  0.248596  0.273711  0.228040  1
  O  O47  1  0.250963  0.132208  0.171142  1
  O  O48  1  0.250760  0.868111  0.224329  1
  O  O49  1  0.093034  0.239074  0.174972  1
  O  O50  1  0.093016  0.760778  0.220509  1
  O  O51  1  0.247253  0.339973  0.172885  1
  O  O52  1  0.247434  0.659991  0.222505  1
  O  O53  1  0.212713  0.314238  0.200852  1
  O  O54  1  0.212104  0.686491  0.194601  1
  O  O55  1  0.256180  0.483760  0.230458  1
  O  O56  1  0.256529  0.516989  0.165117  1
  O  O57  1  0.094446  0.379322  0.226445  1
  O  O58  1  0.094333  0.619838  0.168871  1
  O  O59  1  0.286045  0.097815  0.237002  1
  O  O60  1  0.288226  0.902992  0.158780  1
  O  O61  1  0.404510  0.370653  0.158324  1
  O  O62  1  0.751186  0.273689  0.228033  1
  O  O63  1  0.751730  0.726461  0.167375  1
  O  O64  1  0.713685  0.097785  0.236988  1
  O  O65  1  0.749072  0.868122  0.224336  1
  O  O66  1  0.748881  0.132193  0.171106  1
  O  O67  1  0.906789  0.760751  0.220510  1
  O  O68  1  0.906775  0.239125  0.174968  1
  O  O69  1  0.752347  0.659974  0.222499  1
  O  O70  1  0.752558  0.340026  0.172882  1
  O  O71  1  0.787697  0.686551  0.194601  1
  O  O72  1  0.787050  0.314114  0.200838  1
  O  O73  1  0.743241  0.517052  0.165117  1
  O  O74  1  0.743603  0.483710  0.230443  1
  O  O75  1  0.905466  0.619824  0.168870  1
  O  O76  1  0.905330  0.379281  0.226437  1
  O  O77  1  0.711578  0.903037  0.158774  1
  O  O78  1  0.595290  0.370655  0.158322  1
  O  O79  1  0.405423  0.268328  0.244539  1
  O  O80  1  0.094357  0.729117  0.269242  1
  O  O81  1  0.251814  0.725584  0.285699  1
  O  O82  1  0.211256  0.902315  0.277164  1
  O  O83  1  0.247283  0.305064  0.259668  1
  O  O84  1  0.252354  0.696129  0.254136  1
  O  O85  1  0.247976  0.131983  0.289709  1
  O  O86  1  0.406702  0.237665  0.293310  1
  O  O87  1  0.252718  0.339047  0.291199  1
  O  O88  1  0.288095  0.685895  0.312932  1
  O  O89  1  0.407102  0.953417  0.241335  1
  O  O90  1  0.092784  0.046696  0.272276  1
  O  O91  1  0.251401  0.998766  0.257104  1
  O  O92  1  0.095270  0.369681  0.276656  1
  O  O93  1  0.243071  0.516303  0.283497  1
  O  O94  1  0.405448  0.618682  0.287159  1
  O  O95  1  0.499886  0.660109  0.264221  1
  O  O96  1  0.499899  0.824382  0.253171  1
  O  O97  1  0.499913  0.270626  0.270235  1
  O  O98  1  0.499858  0.454501  0.263897  1
  O  O99  1  0.499899  0.062421  0.269315  1
  O  O100  1  0.404437  0.629630  0.237124  1
  O  O101  1  0.905430  0.729166  0.269240  1
  O  O102  1  0.594365  0.268377  0.244538  1
  O  O103  1  0.747965  0.725558  0.285690  1
  O  O104  1  0.788474  0.902288  0.277150  1
  O  O105  1  0.747459  0.696057  0.254126  1
  O  O106  1  0.752524  0.304992  0.259660  1
  O  O107  1  0.751857  0.131997  0.289716  1
  O  O108  1  0.593104  0.237643  0.293310  1
  O  O109  1  0.747068  0.339038  0.291195  1
  O  O110  1  0.711671  0.685774  0.312917  1
  O  O111  1  0.907009  0.046670  0.272273  1
  O  O112  1  0.592690  0.953387  0.241332  1
  O  O113  1  0.748347  0.998951  0.257113  1
  O  O114  1  0.904523  0.369665  0.276653  1
  O  O115  1  0.756708  0.516247  0.283480  1
  O  O116  1  0.594327  0.618639  0.287150  1
  O  O117  1  0.000000  0.339285  0.249492  1
  O  O118  1  -0.000000  0.543799  0.249607  1
  O  O119  1  0.000000  0.729193  0.243702  1
  O  O120  1  0.000000  0.936772  0.244369  1
  O  O121  1  0.000000  0.175066  0.260438  1
  O  O122  1  0.595352  0.629614  0.237122  1
  O  O123  1  0.405469  0.730292  0.387629  1
  O  O124  1  0.094401  0.269483  0.362919  1
  O  O125  1  0.251355  0.274547  0.346449  1
  O  O126  1  0.213458  0.098478  0.355342  1
  O  O127  1  0.247411  0.696559  0.372529  1
  O  O128  1  0.252463  0.305462  0.378062  1
  O  O129  1  0.248266  0.868349  0.342491  1
  O  O130  1  0.406737  0.762149  0.338906  1
  O  O131  1  0.252514  0.660900  0.340918  1
  O  O132  1  0.287463  0.314832  0.319251  1
  O  O133  1  0.406748  0.047600  0.390681  1
  O  O134  1  0.092543  0.954247  0.359737  1
  O  O135  1  0.249350  0.997647  0.375194  1
  O  O136  1  0.095335  0.630660  0.355530  1
  O  O137  1  0.243393  0.484456  0.348810  1
  O  O138  1  0.405335  0.380529  0.344888  1
  O  O139  1  0.499894  0.340234  0.367909  1
  O  O140  1  0.499888  0.175993  0.378872  1
  O  O141  1  0.499926  0.730038  0.362051  1
  O  O142  1  0.499914  0.544924  0.368049  1
  O  O143  1  0.499874  0.937805  0.362794  1
  O  O144  1  0.905425  0.269489  0.362920  1
  O  O145  1  0.594362  0.730302  0.387630  1
  O  O146  1  0.748487  0.274611  0.346449  1
  O  O147  1  0.786334  0.098520  0.355335  1
  O  O148  1  0.747351  0.305514  0.378060  1
  O  O149  1  0.752406  0.696613  0.372527  1
  O  O150  1  0.751570  0.868330  0.342456  1
  O  O151  1  0.593071  0.762185  0.338901  1
  O  O152  1  0.747302  0.660944  0.340914  1
  O  O153  1  0.712338  0.314886  0.319251  1
  O  O154  1  0.907064  0.954261  0.359761  1
  O  O155  1  0.592859  0.047617  0.390707  1
  O  O156  1  0.749888  0.997517  0.375141  1
  O  O157  1  0.904467  0.630656  0.355528  1
  O  O158  1  0.000000  0.063476  0.387724  1
  O  O159  1  0.756375  0.484517  0.348811  1
  O  O160  1  0.594462  0.380511  0.344887  1
  O  O161  1  0.000000  0.661120  0.382645  1
  O  O162  1  0.000000  0.271524  0.388580  1
  O  O163  1  0.000000  0.825389  0.371609  1
  O  O164  1  0.000000  0.455651  0.382327  1
  O  O165  1  0.248116  0.726400  0.404107  1
  O  O166  1  0.248596  0.273711  0.464771  1
  O  O167  1  0.250963  0.132208  0.407873  1
  O  O168  1  0.250760  0.868111  0.461059  1
  O  O169  1  0.093034  0.239074  0.411703  1
  O  O170  1  0.093016  0.760778  0.457240  1
  O  O171  1  0.247253  0.339973  0.409616  1
  O  O172  1  0.247434  0.659991  0.459236  1
  O  O173  1  0.212713  0.314238  0.437583  1
  O  O174  1  0.212104  0.686491  0.431332  1
  O  O175  1  0.256180  0.483760  0.467189  1
  O  O176  1  0.256529  0.516989  0.401848  1
  O  O177  1  0.094446  0.379322  0.463176  1
  O  O178  1  0.094333  0.619838  0.405602  1
  O  O179  1  0.286045  0.097815  0.473732  1
  O  O180  1  0.288226  0.902992  0.395510  1
  O  O181  1  0.404510  0.370653  0.395055  1
  O  O182  1  0.751186  0.273689  0.464764  1
  O  O183  1  0.751730  0.726461  0.404106  1
  O  O184  1  0.713685  0.097785  0.473718  1
  O  O185  1  0.749072  0.868122  0.461067  1
  O  O186  1  0.748881  0.132193  0.407837  1
  O  O187  1  0.906789  0.760751  0.457240  1
  O  O188  1  0.906775  0.239125  0.411699  1
  O  O189  1  0.752347  0.659974  0.459229  1
  O  O190  1  0.752558  0.340026  0.409613  1
  O  O191  1  0.787697  0.686551  0.431332  1
  O  O192  1  0.787050  0.314114  0.437569  1
  O  O193  1  0.743241  0.517052  0.401848  1
  O  O194  1  0.743603  0.483710  0.467174  1
  O  O195  1  0.905466  0.619824  0.405601  1
  O  O196  1  0.905330  0.379281  0.463167  1
  O  O197  1  0.711578  0.903037  0.395504  1
  O  O198  1  0.595290  0.370655  0.395053  1
  O  O199  1  0.405423  0.268328  0.481270  1
  O  O200  1  0.094357  0.729117  0.505972  1
  O  O201  1  0.251814  0.725584  0.522430  1
  O  O202  1  0.211256  0.902315  0.513895  1
  O  O203  1  0.247283  0.305064  0.496399  1
  O  O204  1  0.252354  0.696129  0.490867  1
  O  O205  1  0.247976  0.131983  0.526440  1
  O  O206  1  0.406702  0.237665  0.530041  1
  O  O207  1  0.252718  0.339047  0.527930  1
  O  O208  1  0.288095  0.685895  0.549663  1
  O  O209  1  0.407102  0.953417  0.478066  1
  O  O210  1  0.092784  0.046696  0.509006  1
  O  O211  1  0.251401  0.998766  0.493835  1
  O  O212  1  0.095270  0.369681  0.513386  1
  O  O213  1  0.243071  0.516303  0.520228  1
  O  O214  1  0.405448  0.618682  0.523890  1
  O  O215  1  0.499886  0.660109  0.500952  1
  O  O216  1  0.499899  0.824382  0.489902  1
  O  O217  1  0.499913  0.270626  0.506966  1
  O  O218  1  0.499858  0.454501  0.500628  1
  O  O219  1  0.499899  0.062421  0.506046  1
  O  O220  1  0.404437  0.629630  0.473855  1
  O  O221  1  0.905430  0.729166  0.505971  1
  O  O222  1  0.594365  0.268377  0.481269  1
  O  O223  1  0.747965  0.725558  0.522421  1
  O  O224  1  0.788474  0.902288  0.513881  1
  O  O225  1  0.747459  0.696057  0.490857  1
  O  O226  1  0.752524  0.304992  0.496390  1
  O  O227  1  0.751857  0.131997  0.526447  1
  O  O228  1  0.593104  0.237643  0.530041  1
  O  O229  1  0.747068  0.339038  0.527926  1
  O  O230  1  0.711671  0.685774  0.549648  1
  O  O231  1  0.907009  0.046670  0.509004  1
  O  O232  1  0.592690  0.953387  0.478063  1
  O  O233  1  0.748347  0.998951  0.493844  1
  O  O234  1  0.904523  0.369665  0.513384  1
  O  O235  1  0.756708  0.516247  0.520211  1
  O  O236  1  0.594327  0.618639  0.523881  1
  O  O237  1  0.000000  0.339285  0.486223  1
  O  O238  1  0.000000  0.543799  0.486338  1
  O  O239  1  0.000000  0.729193  0.480433  1
  O  O240  1  0.000000  0.936772  0.481100  1
  O  O241  1  0.000000  0.175066  0.497169  1
  O  O242  1  0.595352  0.629614  0.473853  1
  O  O243  1  0.405469  0.730292  0.624359  1
  O  O244  1  0.094401  0.269483  0.599650  1
  O  O245  1  0.251355  0.274547  0.583180  1
  O  O246  1  0.213458  0.098478  0.592072  1
  O  O247  1  0.247411  0.696559  0.609260  1
  O  O248  1  0.252463  0.305462  0.614792  1
  O  O249  1  0.248266  0.868349  0.579222  1
  O  O250  1  0.406737  0.762149  0.575637  1
  O  O251  1  0.252514  0.660900  0.577649  1
  O  O252  1  0.287463  0.314832  0.555981  1
  O  O253  1  0.406748  0.047600  0.627412  1
  O  O254  1  0.092543  0.954247  0.596468  1
  O  O255  1  0.249350  0.997647  0.611925  1
  O  O256  1  0.095335  0.630660  0.592261  1
  O  O257  1  0.243393  0.484456  0.585541  1
  O  O258  1  0.405335  0.380529  0.581619  1
  O  O259  1  0.499894  0.340234  0.604640  1
  O  O260  1  0.499888  0.175993  0.615603  1
  O  O261  1  0.499926  0.730038  0.598782  1
  O  O262  1  0.499914  0.544924  0.604780  1
  O  O263  1  0.499874  0.937805  0.599525  1
  O  O264  1  0.905425  0.269489  0.599651  1
  O  O265  1  0.594362  0.730302  0.624360  1
  O  O266  1  0.748487  0.274611  0.583179  1
  O  O267  1  0.786334  0.098520  0.592065  1
  O  O268  1  0.747351  0.305514  0.614791  1
  O  O269  1  0.752406  0.696613  0.609257  1
  O  O270  1  0.751570  0.868330  0.579187  1
  O  O271  1  0.593071  0.762185  0.575632  1
  O  O272  1  0.747302  0.660944  0.577644  1
  O  O273  1  0.712338  0.314886  0.555982  1
  O  O274  1  0.907064  0.954261  0.596492  1
  O  O275  1  0.592859  0.047617  0.627437  1
  O  O276  1  0.749888  0.997517  0.611872  1
  O  O277  1  0.904467  0.630656  0.592259  1
  O  O278  1  0.000000  0.063476  0.624455  1
  O  O279  1  0.756375  0.484517  0.585541  1
  O  O280  1  0.594462  0.380511  0.581618  1
  O  O281  1  0.000000  0.661120  0.619376  1
  O  O282  1  0.000000  0.271524  0.625311  1
  O  O283  1  0.000000  0.825389  0.608340  1
  O  O284  1  0.000000  0.455651  0.619058  1
  O  O285  1  0.248116  0.726400  0.640838  1
  O  O286  1  0.248596  0.273711  0.701501  1
  O  O287  1  0.250963  0.132208  0.644603  1
  O  O288  1  0.250760  0.868111  0.697790  1
  O  O289  1  0.093034  0.239074  0.648433  1
  O  O290  1  0.093016  0.760778  0.693970  1
  O  O291  1  0.247253  0.339973  0.646347  1
  O  O292  1  0.247434  0.659991  0.695966  1
  O  O293  1  0.212713  0.314238  0.674314  1
  O  O294  1  0.212104  0.686491  0.668062  1
  O  O295  1  0.256180  0.483760  0.703920  1
  O  O296  1  0.256529  0.516989  0.638578  1
  O  O297  1  0.094446  0.379322  0.699907  1
  O  O298  1  0.094333  0.619838  0.642332  1
  O  O299  1  0.286045  0.097815  0.710463  1
  O  O300  1  0.288226  0.902992  0.632241  1
  O  O301  1  0.404510  0.370653  0.631785  1
  O  O302  1  0.751186  0.273689  0.701494  1
  O  O303  1  0.751730  0.726461  0.640837  1
  O  O304  1  0.713685  0.097785  0.710449  1
  O  O305  1  0.749072  0.868122  0.697798  1
  O  O306  1  0.748881  0.132193  0.644568  1
  O  O307  1  0.906789  0.760751  0.693971  1
  O  O308  1  0.906775  0.239125  0.648429  1
  O  O309  1  0.752347  0.659974  0.695960  1
  O  O310  1  0.752558  0.340026  0.646344  1
  O  O311  1  0.787697  0.686551  0.668063  1
  O  O312  1  0.787050  0.314114  0.674300  1
  O  O313  1  0.743241  0.517052  0.638579  1
  O  O314  1  0.743603  0.483710  0.703905  1
  O  O315  1  0.905466  0.619824  0.642332  1
  O  O316  1  0.905330  0.379281  0.699898  1
  O  O317  1  0.711578  0.903037  0.632235  1
  O  O318  1  0.595290  0.370655  0.631784  1
  O  O319  1  0.405423  0.268328  0.718001  1
  O  O320  1  0.094357  0.729117  0.742703  1
  O  O321  1  0.251814  0.725584  0.759160  1
  O  O322  1  0.211256  0.902315  0.750625  1
  O  O323  1  0.247283  0.305064  0.733130  1
  O  O324  1  0.252354  0.696129  0.727598  1
  O  O325  1  0.247976  0.131983  0.763170  1
  O  O326  1  0.406702  0.237665  0.766771  1
  O  O327  1  0.252718  0.339047  0.764661  1
  O  O328  1  0.288095  0.685895  0.786393  1
  O  O329  1  0.407102  0.953417  0.714796  1
  O  O330  1  0.092784  0.046696  0.745737  1
  O  O331  1  0.251401  0.998766  0.730566  1
  O  O332  1  0.095270  0.369681  0.750117  1
  O  O333  1  0.243071  0.516303  0.756958  1
  O  O334  1  0.405448  0.618682  0.760620  1
  O  O335  1  0.499886  0.660109  0.737682  1
  O  O336  1  0.499899  0.824382  0.726633  1
  O  O337  1  0.499913  0.270626  0.743696  1
  O  O338  1  0.499858  0.454501  0.737359  1
  O  O339  1  0.499899  0.062421  0.742776  1
  O  O340  1  0.404437  0.629630  0.710586  1
  O  O341  1  0.905430  0.729166  0.742702  1
  O  O342  1  0.594365  0.268377  0.718000  1
  O  O343  1  0.747965  0.725558  0.759152  1
  O  O344  1  0.788474  0.902288  0.750612  1
  O  O345  1  0.747459  0.696057  0.727588  1
  O  O346  1  0.752524  0.304992  0.733121  1
  O  O347  1  0.751857  0.131997  0.763177  1
  O  O348  1  0.593104  0.237643  0.766772  1
  O  O349  1  0.747068  0.339038  0.764656  1
  O  O350  1  0.711671  0.685774  0.786379  1
  O  O351  1  0.907009  0.046670  0.745734  1
  O  O352  1  0.592690  0.953387  0.714793  1
  O  O353  1  0.748347  0.998951  0.730575  1
  O  O354  1  0.904523  0.369665  0.750115  1
  O  O355  1  0.756708  0.516247  0.756941  1
  O  O356  1  0.594327  0.618639  0.760611  1
  O  O357  1  0.000000  0.339285  0.722954  1
  O  O358  1  0.000000  0.543799  0.723068  1
  O  O359  1  0.000000  0.729193  0.717164  1
  O  O360  1  0.000000  0.936772  0.717830  1
  O  O361  1  0.000000  0.175066  0.733900  1
  O  O362  1  0.595352  0.629614  0.710584  1
  O  O363  1  0.287463  0.314832  0.792712  1
  O  O364  1  0.712338  0.314886  0.792713  1
  Si  Si365  1  0.499840  0.054697  0.143991  1
  Si  Si366  1  0.499900  0.407551  0.119210  1
  Si  Si367  1  0.296568  0.765828  0.153980  1
  Si  Si368  1  0.203536  0.235072  0.123169  1
  Si  Si369  1  0.298783  0.743276  0.096523  1
  Si  Si370  1  0.298938  0.020545  0.156160  1
  Si  Si371  1  0.200899  0.979980  0.120890  1
  Si  Si372  1  0.207978  0.615310  0.117163  1
  Si  Si373  1  0.296960  0.361577  0.102752  1
  Si  Si374  1  0.499898  0.315318  0.147843  1
  Si  Si375  1  0.499912  0.799272  0.113636  1
  Si  Si376  1  0.499917  0.684725  0.139937  1
  Si  Si377  1  0.796284  0.235119  0.123168  1
  Si  Si378  1  0.703259  0.765876  0.153979  1
  Si  Si379  1  0.701013  0.743253  0.096509  1
  Si  Si380  1  0.798780  0.979997  0.120880  1
  Si  Si381  1  0.700745  0.020564  0.156150  1
  Si  Si382  1  0.791819  0.615352  0.117160  1
  Si  Si383  1  0.702840  0.361619  0.102752  1
  Si  Si384  1  -0.000000  0.946749  0.133035  1
  Si  Si385  1  0.000000  0.686152  0.129254  1
  Si  Si386  1  0.000000  0.315777  0.137118  1
  Si  Si387  1  0.000000  0.592994  0.157781  1
  Si  Si388  1  0.202543  0.639560  0.174369  1
  Si  Si389  1  0.202891  0.360719  0.221078  1
  Si  Si390  1  0.201132  0.257487  0.180540  1
  Si  Si391  1  0.201056  0.742742  0.214914  1
  Si  Si392  1  0.291770  0.614504  0.235512  1
  Si  Si393  1  0.291891  0.386092  0.159980  1
  Si  Si394  1  0.000000  0.201931  0.163486  1
  Si  Si395  1  0.798750  0.742748  0.214915  1
  Si  Si396  1  0.798663  0.257470  0.180527  1
  Si  Si397  1  0.707905  0.386139  0.159977  1
  Si  Si398  1  0.708014  0.614463  0.235503  1
  Si  Si399  1  0.797259  0.639604  0.174369  1
  Si  Si400  1  0.796887  0.360669  0.221066  1
  Si  Si401  1  0.000000  0.798148  0.231982  1
  Si  Si402  1  0.499904  0.200791  0.281841  1
  Si  Si403  1  0.499874  0.591864  0.276071  1
  Si  Si404  1  0.499897  0.945798  0.251342  1
  Si  Si405  1  0.499893  0.314629  0.255473  1
  Si  Si406  1  0.296218  0.234325  0.241518  1
  Si  Si407  1  0.203180  0.765082  0.272326  1
  Si  Si408  1  0.298680  0.256924  0.298931  1
  Si  Si409  1  0.298620  0.979610  0.239367  1
  Si  Si410  1  0.200514  0.020171  0.274633  1
  Si  Si411  1  0.207872  0.385307  0.278330  1
  Si  Si412  1  0.297311  0.638728  0.292695  1
  Si  Si413  1  0.499899  0.685168  0.247563  1
  Si  Si414  1  0.000000  0.053760  0.262283  1
  Si  Si415  1  0.796592  0.765067  0.272318  1
  Si  Si416  1  0.703557  0.234312  0.241510  1
  Si  Si417  1  0.701126  0.256932  0.298931  1
  Si  Si418  1  0.799273  0.020180  0.274631  1
  Si  Si419  1  0.701166  0.979617  0.239365  1
  Si  Si420  1  0.791919  0.385266  0.278323  1
  Si  Si421  1  0.702468  0.638672  0.292682  1
  Si  Si422  1  0.000000  0.314413  0.266160  1
  Si  Si423  1  0.000000  0.683592  0.258284  1
  Si  Si424  1  0.000000  0.406425  0.237500  1
  Si  Si425  1  0.499840  0.054697  0.380722  1
  Si  Si426  1  0.499900  0.407551  0.355941  1
  Si  Si427  1  0.296568  0.765828  0.390711  1
  Si  Si428  1  0.203536  0.235072  0.359900  1
  Si  Si429  1  0.298783  0.743276  0.333254  1
  Si  Si430  1  0.298938  0.020545  0.392891  1
  Si  Si431  1  0.200899  0.979980  0.357621  1
  Si  Si432  1  0.207978  0.615310  0.353894  1
  Si  Si433  1  0.296960  0.361577  0.339483  1
  Si  Si434  1  0.499898  0.315318  0.384574  1
  Si  Si435  1  0.499912  0.799272  0.350367  1
  Si  Si436  1  0.499917  0.684725  0.376668  1
  Si  Si437  1  0.796284  0.235119  0.359899  1
  Si  Si438  1  0.703259  0.765876  0.390709  1
  Si  Si439  1  0.701013  0.743253  0.333239  1
  Si  Si440  1  0.798780  0.979997  0.357610  1
  Si  Si441  1  0.700745  0.020564  0.392881  1
  Si  Si442  1  0.791819  0.615352  0.353890  1
  Si  Si443  1  0.702840  0.361619  0.339483  1
  Si  Si444  1  0.000000  0.946749  0.369766  1
  Si  Si445  1  0.000000  0.686152  0.365985  1
  Si  Si446  1  0.000000  0.315777  0.373849  1
  Si  Si447  1  0.000000  0.592994  0.394512  1
  Si  Si448  1  0.202543  0.639560  0.411100  1
  Si  Si449  1  0.202891  0.360719  0.457809  1
  Si  Si450  1  0.201132  0.257487  0.417271  1
  Si  Si451  1  0.201056  0.742742  0.451645  1
  Si  Si452  1  0.291770  0.614504  0.472242  1
  Si  Si453  1  0.291891  0.386092  0.396710  1
  Si  Si454  1  0.000000  0.201931  0.400217  1
  Si  Si455  1  0.798750  0.742748  0.451645  1
  Si  Si456  1  0.798663  0.257470  0.417258  1
  Si  Si457  1  0.707905  0.386139  0.396708  1
  Si  Si458  1  0.708014  0.614463  0.472233  1
  Si  Si459  1  0.797259  0.639604  0.411100  1
  Si  Si460  1  0.796887  0.360669  0.457797  1
  Si  Si461  1  0.000000  0.798148  0.468713  1
  Si  Si462  1  0.499904  0.200791  0.518572  1
  Si  Si463  1  0.499874  0.591864  0.512802  1
  Si  Si464  1  0.499897  0.945798  0.488073  1
  Si  Si465  1  0.499893  0.314629  0.492204  1
  Si  Si466  1  0.296218  0.234325  0.478248  1
  Si  Si467  1  0.203180  0.765082  0.509057  1
  Si  Si468  1  0.298680  0.256924  0.535661  1
  Si  Si469  1  0.298620  0.979610  0.476097  1
  Si  Si470  1  0.200514  0.020171  0.511363  1
  Si  Si471  1  0.207872  0.385307  0.515061  1
  Si  Si472  1  0.297311  0.638728  0.529426  1
  Si  Si473  1  0.499899  0.685168  0.484293  1
  Si  Si474  1  0.000000  0.053760  0.499013  1
  Si  Si475  1  0.796592  0.765067  0.509048  1
  Si  Si476  1  0.703557  0.234312  0.478241  1
  Si  Si477  1  0.701126  0.256932  0.535662  1
  Si  Si478  1  0.799273  0.020180  0.511362  1
  Si  Si479  1  0.701166  0.979617  0.476096  1
  Si  Si480  1  0.791919  0.385266  0.515053  1
  Si  Si481  1  0.702468  0.638672  0.529412  1
  Si  Si482  1  0.000000  0.314413  0.502891  1
  Si  Si483  1  0.000000  0.683592  0.495015  1
  Si  Si484  1  -0.000000  0.406425  0.474231  1
  Si  Si485  1  0.499840  0.054697  0.617453  1
  Si  Si486  1  0.499900  0.407551  0.592672  1
  Si  Si487  1  0.296568  0.765828  0.627442  1
  Si  Si488  1  0.203536  0.235072  0.596630  1
  Si  Si489  1  0.298783  0.743276  0.569984  1
  Si  Si490  1  0.298938  0.020545  0.629621  1
  Si  Si491  1  0.200899  0.979980  0.594351  1
  Si  Si492  1  0.207978  0.615310  0.590625  1
  Si  Si493  1  0.296960  0.361577  0.576214  1
  Si  Si494  1  0.499898  0.315318  0.621304  1
  Si  Si495  1  0.499912  0.799272  0.587098  1
  Si  Si496  1  0.499917  0.684725  0.613399  1
  Si  Si497  1  0.796284  0.235119  0.596630  1
  Si  Si498  1  0.703259  0.765876  0.627440  1
  Si  Si499  1  0.701013  0.743253  0.569970  1
  Si  Si500  1  0.798780  0.979997  0.594341  1
  Si  Si501  1  0.700745  0.020564  0.629611  1
  Si  Si502  1  0.791819  0.615352  0.590621  1
  Si  Si503  1  0.702840  0.361619  0.576214  1
  Si  Si504  1  -0.000000  0.946749  0.606496  1
  Si  Si505  1  0.000000  0.686152  0.602715  1
  Si  Si506  1  0.000000  0.315777  0.610580  1
  Si  Si507  1  0.000000  0.592994  0.631243  1
  Si  Si508  1  0.202543  0.639560  0.647831  1
  Si  Si509  1  0.202891  0.360719  0.694540  1
  Si  Si510  1  0.201132  0.257487  0.654002  1
  Si  Si511  1  0.201056  0.742742  0.688376  1
  Si  Si512  1  0.291770  0.614504  0.708973  1
  Si  Si513  1  0.291891  0.386092  0.633441  1
  Si  Si514  1  0.000000  0.201931  0.636948  1
  Si  Si515  1  0.798750  0.742748  0.688376  1
  Si  Si516  1  0.798663  0.257470  0.653988  1
  Si  Si517  1  0.707905  0.386139  0.633439  1
  Si  Si518  1  0.708014  0.614463  0.708964  1
  Si  Si519  1  0.797259  0.639604  0.647831  1
  Si  Si520  1  0.796887  0.360669  0.694527  1
  Si  Si521  1  0.000000  0.798148  0.705443  1
  Si  Si522  1  0.499904  0.200791  0.755302  1
  Si  Si523  1  0.499874  0.591864  0.749533  1
  Si  Si524  1  0.499897  0.945798  0.724804  1
  Si  Si525  1  0.499893  0.314629  0.728934  1
  Si  Si526  1  0.296218  0.234325  0.714979  1
  Si  Si527  1  0.203180  0.765082  0.745788  1
  Si  Si528  1  0.298680  0.256924  0.772392  1
  Si  Si529  1  0.298620  0.979610  0.712828  1
  Si  Si530  1  0.200514  0.020171  0.748094  1
  Si  Si531  1  0.207872  0.385307  0.751792  1
  Si  Si532  1  0.297311  0.638728  0.766156  1
  Si  Si533  1  0.499899  0.685168  0.721024  1
  Si  Si534  1  0.000000  0.053760  0.735744  1
  Si  Si535  1  0.796592  0.765067  0.745779  1
  Si  Si536  1  0.703557  0.234312  0.714972  1
  Si  Si537  1  0.701126  0.256932  0.772393  1
  Si  Si538  1  0.799273  0.020180  0.748093  1
  Si  Si539  1  0.701166  0.979617  0.712826  1
  Si  Si540  1  0.791919  0.385266  0.751784  1
  Si  Si541  1  0.702468  0.638672  0.766143  1
  Si  Si542  1  0.000000  0.314413  0.739622  1
  Si  Si543  1  0.000000  0.683592  0.731745  1
  Si  Si544  1  0.000000  0.406425  0.710962  1
  H  H545  1  0.288095  0.685895  0.065565  1
  H  H546  1  0.711671  0.685774  0.065550  1
  H  H547  1  0.287463  0.314832  0.071884  1
  H  H548  1  0.712338  0.314886  0.071884  1
  H  H549  1  0.288095  0.685895  0.797030  1
  H  H550  1  0.711671  0.685774  0.797015  1
  H  H551  1  0.287463  0.314832  0.803348  1
  H  H552  1  0.712338  0.314886  0.803349  1
