# generated using pymatgen
data_Si18H2O37
_symmetry_space_group_name_H-M   'P 1'
_cell_length_a   8.96036688
_cell_length_b   9.13716697
_cell_length_c   45.98198165
_cell_angle_alpha   90.00000000
_cell_angle_beta   90.00000000
_cell_angle_gamma   90.00000000
_symmetry_Int_Tables_number   1
_chemical_formula_structural   Si18H2O37
_chemical_formula_sum   'Si36 H4 O74'
_cell_volume   3764.65373628
_cell_formula_units_Z   2
loop_
 _symmetry_equiv_pos_site_id
 _symmetry_equiv_pos_as_xyz
  1  'x, y, z'
loop_
 _atom_site_type_symbol
 _atom_site_label
 _atom_site_symmetry_multiplicity
 _atom_site_fract_x
 _atom_site_fract_y
 _atom_site_fract_z
 _atom_site_occupancy
  O  O1  1  0.318872  0.862559  0.205244  1
  O  O2  1  0.181271  0.862562  0.380545  1
  O  O3  1  0.818873  0.137165  0.205244  1
  O  O4  1  0.681271  0.137168  0.380545  1
  O  O5  1  0.108715  0.730376  0.230491  1
  O  O6  1  0.391426  0.730374  0.405791  1
  O  O7  1  0.608715  0.269347  0.230491  1
  O  O8  1  0.891426  0.269355  0.405791  1
  O  O9  1  0.068994  0.783613  0.179009  1
  O  O10  1  0.431148  0.783613  0.354310  1
  O  O11  1  0.568994  0.216110  0.179009  1
  O  O12  1  0.931149  0.216117  0.354310  1
  O  O13  1  0.068663  0.001832  0.215408  1
  O  O14  1  0.431484  0.001830  0.390708  1
  O  O15  1  0.568664  0.997891  0.215408  1
  O  O16  1  0.931483  0.997899  0.390709  1
  O  O17  1  0.178654  0.358344  0.347376  1
  O  O18  1  0.321490  0.358341  0.172077  1
  O  O19  1  0.678655  0.641387  0.347376  1
  O  O20  1  0.821490  0.641382  0.172076  1
  O  O21  1  0.926161  0.487689  0.344461  1
  O  O22  1  0.573985  0.487682  0.169160  1
  O  O23  1  0.426162  0.512040  0.344461  1
  O  O24  1  0.073985  0.512041  0.169160  1
  O  O25  1  0.997040  0.309480  0.303612  1
  O  O26  1  0.503101  0.309477  0.128311  1
  O  O27  1  0.497041  0.690246  0.303611  1
  O  O28  1  0.003102  0.690249  0.128311  1
  O  O29  1  0.489510  0.781445  0.247382  1
  O  O30  1  0.989509  0.218278  0.247382  1
  O  O31  1  0.288772  0.615224  0.265500  1
  O  O32  1  0.788772  0.384499  0.265500  1
  O  O33  1  0.538677  0.516024  0.261017  1
  O  O34  1  0.038677  0.483699  0.261016  1
  O  O35  1  0.072630  0.263928  0.195692  1
  O  O36  1  0.427512  0.263926  0.370992  1
  O  O37  1  0.572630  0.735795  0.195691  1
  O  O38  1  0.927512  0.735803  0.370992  1
  O  O39  1  0.205339  0.482052  0.216846  1
  O  O40  1  0.294802  0.482052  0.392146  1
  O  O41  1  0.705339  0.517670  0.216846  1
  O  O42  1  0.794802  0.517677  0.392146  1
  O  O43  1  0.318872  0.862559  0.555845  1
  O  O44  1  0.818873  0.137165  0.555845  1
  O  O45  1  0.108715  0.730376  0.581091  1
  O  O46  1  0.608715  0.269347  0.581091  1
  O  O47  1  0.068994  0.783613  0.529610  1
  O  O48  1  0.568994  0.216110  0.529610  1
  O  O49  1  0.068663  0.001832  0.566009  1
  O  O50  1  0.568664  0.997891  0.566009  1
  O  O51  1  0.321490  0.358341  0.522677  1
  O  O52  1  0.821490  0.641382  0.522677  1
  O  O53  1  0.573985  0.487682  0.519761  1
  O  O54  1  0.073985  0.512041  0.519761  1
  O  O55  1  0.997040  0.309480  0.654212  1
  O  O56  1  0.503101  0.309477  0.478912  1
  O  O57  1  0.497041  0.690246  0.654212  1
  O  O58  1  0.003102  0.690249  0.478912  1
  O  O59  1  0.010633  0.781451  0.422683  1
  O  O60  1  0.489510  0.781445  0.597983  1
  O  O61  1  0.510633  0.218278  0.422683  1
  O  O62  1  0.989509  0.218278  0.597983  1
  O  O63  1  0.211367  0.615225  0.440800  1
  O  O64  1  0.288772  0.615224  0.616101  1
  O  O65  1  0.711367  0.384504  0.440800  1
  O  O66  1  0.788772  0.384499  0.616101  1
  O  O67  1  0.961460  0.516030  0.436317  1
  O  O68  1  0.538677  0.516024  0.611617  1
  O  O69  1  0.461460  0.483698  0.436317  1
  O  O70  1  0.038677  0.483699  0.611617  1
  O  O71  1  0.072630  0.263928  0.546292  1
  O  O72  1  0.572630  0.735795  0.546292  1
  O  O73  1  0.205339  0.482052  0.567446  1
  O  O74  1  0.705339  0.517670  0.567446  1
  Si  Si75  1  0.142857  0.853165  0.206930  1
  Si  Si76  1  0.357287  0.853166  0.382230  1
  Si  Si77  1  0.642857  0.146557  0.206930  1
  Si  Si78  1  0.857287  0.146564  0.382230  1
  Si  Si79  1  0.455918  0.659798  0.270959  1
  Si  Si80  1  0.955917  0.339926  0.270959  1
  Si  Si81  1  0.170619  0.400719  0.187287  1
  Si  Si82  1  0.329525  0.400719  0.362587  1
  Si  Si83  1  0.670619  0.599004  0.187287  1
  Si  Si84  1  0.829525  0.599011  0.362588  1
  Si  Si85  1  0.012395  0.342187  0.337048  1
  Si  Si86  1  0.487748  0.342181  0.161748  1
  Si  Si87  1  0.512396  0.657543  0.337048  1
  Si  Si88  1  0.987748  0.657542  0.161748  1
  Si  Si89  1  0.156310  0.577764  0.244174  1
  Si  Si90  1  0.343830  0.577764  0.419474  1
  Si  Si91  1  0.656309  0.421959  0.244174  1
  Si  Si92  1  0.843829  0.421966  0.419474  1
  Si  Si93  1  0.986141  0.152308  0.215618  1
  Si  Si94  1  0.514003  0.152308  0.390918  1
  Si  Si95  1  0.486141  0.847414  0.215617  1
  Si  Si96  1  0.014003  0.847421  0.390918  1
  Si  Si97  1  0.142857  0.853165  0.557530  1
  Si  Si98  1  0.642857  0.146557  0.557530  1
  Si  Si99  1  0.044223  0.659803  0.446259  1
  Si  Si100  1  0.455918  0.659798  0.621559  1
  Si  Si101  1  0.544222  0.339926  0.446259  1
  Si  Si102  1  0.955917  0.339926  0.621559  1
  Si  Si103  1  0.170619  0.400719  0.537888  1
  Si  Si104  1  0.670619  0.599004  0.537888  1
  Si  Si105  1  0.487748  0.342181  0.512349  1
  Si  Si106  1  0.987748  0.657542  0.512349  1
  Si  Si107  1  0.156310  0.577764  0.594775  1
  Si  Si108  1  0.656309  0.421959  0.594774  1
  Si  Si109  1  0.986141  0.152308  0.566218  1
  Si  Si110  1  0.486141  0.847414  0.566218  1
  H  H111  1  0.503101  0.309477  0.108738  1
  H  H112  1  0.003102  0.690249  0.108739  1
  H  H113  1  0.997040  0.309480  0.673785  1
  H  H114  1  0.497041  0.690246  0.673785  1
