# generated using pymatgen
data_Si9(HO5)4
_symmetry_space_group_name_H-M   'P 1'
_cell_length_a   14.33040949
_cell_length_b   8.45279806
_cell_length_c   33.84053779
_cell_angle_alpha   90.00000000
_cell_angle_beta   90.00000000
_cell_angle_gamma   90.00000000
_symmetry_Int_Tables_number   1
_chemical_formula_structural   Si9(HO5)4
_chemical_formula_sum   'Si18 H8 O40'
_cell_volume   4099.17397021
_cell_formula_units_Z   2
loop_
 _symmetry_equiv_pos_site_id
 _symmetry_equiv_pos_as_xyz
  1  'x, y, z'
loop_
 _atom_site_type_symbol
 _atom_site_label
 _atom_site_symmetry_multiplicity
 _atom_site_fract_x
 _atom_site_fract_y
 _atom_site_fract_z
 _atom_site_occupancy
  O  O1  1  0.559447  0.721511  0.408126  1
  O  O2  1  0.056819  0.779517  0.295284  1
  O  O3  1  0.444403  0.279919  0.296273  1
  O  O4  1  0.945364  0.227813  0.407972  1
  O  O5  1  0.403455  0.608130  0.381983  1
  O  O6  1  0.901480  0.895789  0.322035  1
  O  O7  1  0.599238  0.392453  0.323058  1
  O  O8  1  0.095488  0.107752  0.380791  1
  O  O9  1  0.289795  0.497545  0.329621  1
  O  O10  1  0.783114  0.989928  0.374709  1
  O  O11  1  0.714819  0.495230  0.375695  1
  O  O12  1  0.214349  0.003684  0.329119  1
  O  O13  1  0.281115  0.305074  0.272658  1
  O  O14  1  0.782686  0.194482  0.428979  1
  O  O15  1  0.725012  0.700899  0.430252  1
  O  O16  1  0.220495  0.809893  0.272729  1
  O  O17  1  0.584357  0.765686  0.475944  1
  O  O18  1  0.916143  0.734441  0.195014  1
  O  O19  1  0.415410  0.765418  0.509192  1
  O  O20  1  0.086228  0.731242  0.227313  1
  O  O21  1  0.417015  0.226093  0.227345  1
  O  O22  1  0.917617  0.272342  0.476718  1
  O  O23  1  0.469805  0.566370  0.455026  1
  O  O24  1  0.033298  0.935576  0.174347  1
  O  O25  1  0.530315  0.566248  0.530149  1
  O  O26  1  0.970556  0.937052  0.249300  1
  O  O27  1  0.530457  0.426383  0.249685  1
  O  O28  1  0.030999  0.070606  0.454794  1
  O  O29  1  0.454071  0.561645  0.312498  1
  O  O30  1  0.949711  0.942553  0.392767  1
  O  O31  1  0.548677  0.437701  0.392826  1
  O  O32  1  0.049513  0.062657  0.311205  1
  O  O33  1  0.656650  0.978347  0.425446  1
  O  O34  1  0.162080  0.527957  0.280141  1
  O  O35  1  0.342353  0.027187  0.280509  1
  O  O36  1  0.843711  0.476182  0.424683  1
  O  O37  1  0.161157  0.288397  0.326668  1
  O  O38  1  0.657737  0.207500  0.376744  1
  O  O39  1  0.843280  0.709620  0.376000  1
  O  O40  1  0.338437  0.783626  0.326474  1
  Si  Si41  1  0.637979  0.804331  0.435214  1
  Si  Si42  1  0.135358  0.701557  0.267753  1
  Si  Si43  1  0.367901  0.200803  0.268029  1
  Si  Si44  1  0.870847  0.302512  0.436039  1
  Si  Si45  1  0.486620  0.576789  0.409405  1
  Si  Si46  1  0.984967  0.925559  0.294892  1
  Si  Si47  1  0.515792  0.424320  0.296142  1
  Si  Si48  1  0.011917  0.081022  0.409627  1
  Si  Si49  1  0.222540  0.398864  0.302253  1
  Si  Si50  1  0.716538  0.094054  0.401490  1
  Si  Si51  1  0.782759  0.600876  0.401558  1
  Si  Si52  1  0.279631  0.902896  0.302201  1
  Si  Si53  1  0.370684  0.616061  0.338962  1
  Si  Si54  1  0.869282  0.879608  0.364992  1
  Si  Si55  1  0.632041  0.377596  0.366144  1
  Si  Si56  1  0.133018  0.120799  0.337668  1
  Si  Si57  1  0.004472  0.840393  0.212312  1
  Si  Si58  1  0.499914  0.661061  0.492644  1
  H  H59  1  0.916143  0.734441  0.168419  1
  H  H60  1  0.415410  0.765418  0.535787  1
  H  H61  1  0.417015  0.226093  0.200749  1
  H  H62  1  0.917617  0.272342  0.503313  1
  H  H63  1  0.033298  0.935576  0.147752  1
  H  H64  1  0.530315  0.566248  0.556745  1
  H  H65  1  0.530457  0.426383  0.223090  1
  H  H66  1  0.030999  0.070606  0.481389  1
