# generated using pymatgen
data_Si15H2O31
_symmetry_space_group_name_H-M   'P 1'
_cell_length_a   13.93702836
_cell_length_b   12.36391025
_cell_length_c   44.55383293
_cell_angle_alpha   115.65100000
_cell_angle_beta   90.00000000
_cell_angle_gamma   90.00000000
_symmetry_Int_Tables_number   1
_chemical_formula_structural   Si15H2O31
_chemical_formula_sum   'Si60 H8 O124'
_cell_volume   6920.72460991
_cell_formula_units_Z   4
loop_
 _symmetry_equiv_pos_site_id
 _symmetry_equiv_pos_as_xyz
  1  'x, y, z'
loop_
 _atom_site_type_symbol
 _atom_site_label
 _atom_site_symmetry_multiplicity
 _atom_site_fract_x
 _atom_site_fract_y
 _atom_site_fract_z
 _atom_site_occupancy
  O  O1  1  0.288095  0.685895  0.144721  1
  O  O2  1  0.711671  0.685774  0.144693  1
  O  O3  1  0.405469  0.730292  0.286585  1
  O  O4  1  0.094401  0.269483  0.239657  1
  O  O5  1  0.251355  0.274547  0.208377  1
  O  O6  1  0.213458  0.098478  0.225265  1
  O  O7  1  0.247411  0.696559  0.257908  1
  O  O8  1  0.252463  0.305462  0.268415  1
  O  O9  1  0.248266  0.868349  0.200859  1
  O  O10  1  0.406737  0.762149  0.194051  1
  O  O11  1  0.252514  0.660900  0.197873  1
  O  O12  1  0.287463  0.314832  0.156722  1
  O  O13  1  0.406748  0.047600  0.292382  1
  O  O14  1  0.092543  0.954247  0.233613  1
  O  O15  1  0.249350  0.997647  0.262969  1
  O  O16  1  0.095335  0.630660  0.225623  1
  O  O17  1  0.243393  0.484456  0.212861  1
  O  O18  1  0.405335  0.380529  0.205413  1
  O  O19  1  0.499894  0.340234  0.249133  1
  O  O20  1  0.499888  0.175993  0.269954  1
  O  O21  1  0.499926  0.730038  0.238008  1
  O  O22  1  0.499914  0.544924  0.249400  1
  O  O23  1  0.499874  0.937805  0.239419  1
  O  O24  1  0.905425  0.269489  0.239659  1
  O  O25  1  0.594362  0.730302  0.286587  1
  O  O26  1  0.748487  0.274611  0.208376  1
  O  O27  1  0.786334  0.098520  0.225252  1
  O  O28  1  0.747351  0.305514  0.268412  1
  O  O29  1  0.752406  0.696613  0.257903  1
  O  O30  1  0.751570  0.868330  0.200793  1
  O  O31  1  0.593071  0.762185  0.194042  1
  O  O32  1  0.747302  0.660944  0.197864  1
  O  O33  1  0.712338  0.314886  0.156723  1
  O  O34  1  0.907064  0.954261  0.233659  1
  O  O35  1  0.592859  0.047617  0.292431  1
  O  O36  1  0.749888  0.997517  0.262869  1
  O  O37  1  0.904467  0.630656  0.225619  1
  O  O38  1  0.000000  0.063476  0.286766  1
  O  O39  1  0.756375  0.484517  0.212862  1
  O  O40  1  0.594462  0.380511  0.205411  1
  O  O41  1  0.000000  0.661120  0.277120  1
  O  O42  1  0.000000  0.271524  0.288391  1
  O  O43  1  0.000000  0.825389  0.256160  1
  O  O44  1  0.000000  0.455651  0.276516  1
  O  O45  1  0.248116  0.726400  0.317881  1
  O  O46  1  0.248596  0.273711  0.433093  1
  O  O47  1  0.250963  0.132208  0.325032  1
  O  O48  1  0.250760  0.868111  0.426044  1
  O  O49  1  0.093034  0.239074  0.332306  1
  O  O50  1  0.093016  0.760778  0.418790  1
  O  O51  1  0.247253  0.339973  0.328343  1
  O  O52  1  0.247434  0.659991  0.422580  1
  O  O53  1  0.212713  0.314238  0.381458  1
  O  O54  1  0.212104  0.686491  0.369585  1
  O  O55  1  0.256180  0.483760  0.437685  1
  O  O56  1  0.256529  0.516989  0.313590  1
  O  O57  1  0.094446  0.379322  0.430064  1
  O  O58  1  0.094333  0.619838  0.320719  1
  O  O59  1  0.286045  0.097815  0.450113  1
  O  O60  1  0.288226  0.902992  0.301554  1
  O  O61  1  0.404510  0.370653  0.300688  1
  O  O62  1  0.751186  0.273689  0.433079  1
  O  O63  1  0.751730  0.726461  0.317878  1
  O  O64  1  0.713685  0.097785  0.450086  1
  O  O65  1  0.749072  0.868122  0.426058  1
  O  O66  1  0.748881  0.132193  0.324964  1
  O  O67  1  0.906789  0.760751  0.418791  1
  O  O68  1  0.906775  0.239125  0.332298  1
  O  O69  1  0.752347  0.659974  0.422569  1
  O  O70  1  0.752558  0.340026  0.328337  1
  O  O71  1  0.787697  0.686551  0.369586  1
  O  O72  1  0.787050  0.314114  0.381431  1
  O  O73  1  0.743241  0.517052  0.313591  1
  O  O74  1  0.743603  0.483710  0.437657  1
  O  O75  1  0.905466  0.619824  0.320718  1
  O  O76  1  0.905330  0.379281  0.430048  1
  O  O77  1  0.711578  0.903037  0.301542  1
  O  O78  1  0.595290  0.370655  0.300685  1
  O  O79  1  0.405423  0.268328  0.464428  1
  O  O80  1  0.094357  0.729117  0.511343  1
  O  O81  1  0.251814  0.725584  0.542598  1
  O  O82  1  0.211256  0.902315  0.526389  1
  O  O83  1  0.247283  0.305064  0.493161  1
  O  O84  1  0.252354  0.696129  0.482655  1
  O  O85  1  0.247976  0.131983  0.550214  1
  O  O86  1  0.406702  0.237665  0.557053  1
  O  O87  1  0.252718  0.339047  0.553045  1
  O  O88  1  0.288095  0.685895  0.594319  1
  O  O89  1  0.407102  0.953417  0.458342  1
  O  O90  1  0.092784  0.046696  0.517105  1
  O  O91  1  0.251401  0.998766  0.488292  1
  O  O92  1  0.095270  0.369681  0.525423  1
  O  O93  1  0.243071  0.516303  0.538416  1
  O  O94  1  0.405448  0.618682  0.545371  1
  O  O95  1  0.499886  0.660109  0.501807  1
  O  O96  1  0.499899  0.824382  0.480822  1
  O  O97  1  0.499913  0.270626  0.513229  1
  O  O98  1  0.499858  0.454501  0.501193  1
  O  O99  1  0.499899  0.062421  0.511482  1
  O  O100  1  0.404437  0.629630  0.450345  1
  O  O101  1  0.905430  0.729166  0.511340  1
  O  O102  1  0.594365  0.268377  0.464426  1
  O  O103  1  0.747965  0.725558  0.542582  1
  O  O104  1  0.788474  0.902288  0.526363  1
  O  O105  1  0.747459  0.696057  0.482636  1
  O  O106  1  0.752524  0.304992  0.493145  1
  O  O107  1  0.751857  0.131997  0.550227  1
  O  O108  1  0.593104  0.237643  0.557054  1
  O  O109  1  0.747068  0.339038  0.553036  1
  O  O110  1  0.711671  0.685774  0.594291  1
  O  O111  1  0.907009  0.046670  0.517100  1
  O  O112  1  0.592690  0.953387  0.458337  1
  O  O113  1  0.748347  0.998951  0.488309  1
  O  O114  1  0.904523  0.369665  0.525419  1
  O  O115  1  0.756708  0.516247  0.538384  1
  O  O116  1  0.594327  0.618639  0.545354  1
  O  O117  1  0.000000  0.339285  0.473835  1
  O  O118  1  0.000000  0.543799  0.474053  1
  O  O119  1  0.000000  0.729193  0.462839  1
  O  O120  1  0.000000  0.936772  0.464104  1
  O  O121  1  0.000000  0.175066  0.494623  1
  O  O122  1  0.595352  0.629614  0.450342  1
  O  O123  1  0.287463  0.314832  0.606320  1
  O  O124  1  0.712338  0.314886  0.606321  1
  Si  Si125  1  0.499840  0.054697  0.273468  1
  Si  Si126  1  0.499900  0.407551  0.226404  1
  Si  Si127  1  0.296568  0.765828  0.292439  1
  Si  Si128  1  0.203536  0.235072  0.233922  1
  Si  Si129  1  0.298783  0.743276  0.183316  1
  Si  Si130  1  0.298938  0.020545  0.296578  1
  Si  Si131  1  0.200899  0.979980  0.229593  1
  Si  Si132  1  0.207978  0.615310  0.222516  1
  Si  Si133  1  0.296960  0.361577  0.195147  1
  Si  Si134  1  0.499898  0.315318  0.280783  1
  Si  Si135  1  0.499912  0.799272  0.215817  1
  Si  Si136  1  0.499917  0.684725  0.265769  1
  Si  Si137  1  0.796284  0.235119  0.233920  1
  Si  Si138  1  0.703259  0.765876  0.292436  1
  Si  Si139  1  0.701013  0.743253  0.183289  1
  Si  Si140  1  0.798780  0.979997  0.229574  1
  Si  Si141  1  0.700745  0.020564  0.296559  1
  Si  Si142  1  0.791819  0.615352  0.222509  1
  Si  Si143  1  0.702840  0.361619  0.195147  1
  Si  Si144  1  -0.000000  0.946749  0.252659  1
  Si  Si145  1  -0.000000  0.686152  0.245479  1
  Si  Si146  1  0.000000  0.315777  0.260414  1
  Si  Si147  1  0.000000  0.592994  0.299658  1
  Si  Si148  1  0.202543  0.639560  0.331161  1
  Si  Si149  1  0.202891  0.360719  0.419871  1
  Si  Si150  1  0.201132  0.257487  0.342881  1
  Si  Si151  1  0.201056  0.742742  0.408164  1
  Si  Si152  1  0.291770  0.614504  0.447283  1
  Si  Si153  1  0.291891  0.386092  0.303833  1
  Si  Si154  1  0.000000  0.201931  0.310492  1
  Si  Si155  1  0.798750  0.742748  0.408165  1
  Si  Si156  1  0.798663  0.257470  0.342856  1
  Si  Si157  1  0.707905  0.386139  0.303828  1
  Si  Si158  1  0.708014  0.614463  0.447266  1
  Si  Si159  1  0.797259  0.639604  0.331162  1
  Si  Si160  1  0.796887  0.360669  0.419848  1
  Si  Si161  1  0.000000  0.798148  0.440579  1
  Si  Si162  1  0.499904  0.200791  0.535271  1
  Si  Si163  1  0.499874  0.591864  0.524314  1
  Si  Si164  1  0.499897  0.945798  0.477348  1
  Si  Si165  1  0.499893  0.314629  0.485193  1
  Si  Si166  1  0.296218  0.234325  0.458689  1
  Si  Si167  1  0.203180  0.765082  0.517201  1
  Si  Si168  1  0.298680  0.256924  0.567728  1
  Si  Si169  1  0.298620  0.979610  0.454604  1
  Si  Si170  1  0.200514  0.020171  0.521581  1
  Si  Si171  1  0.207872  0.385307  0.528604  1
  Si  Si172  1  0.297311  0.638728  0.555885  1
  Si  Si173  1  0.499899  0.685168  0.470170  1
  Si  Si174  1  0.000000  0.053760  0.498126  1
  Si  Si175  1  0.796592  0.765067  0.517185  1
  Si  Si176  1  0.703557  0.234312  0.458676  1
  Si  Si177  1  0.701126  0.256932  0.567729  1
  Si  Si178  1  0.799273  0.020180  0.521579  1
  Si  Si179  1  0.701166  0.979617  0.454601  1
  Si  Si180  1  0.791919  0.385266  0.528589  1
  Si  Si181  1  0.702468  0.638672  0.555860  1
  Si  Si182  1  0.000000  0.314413  0.505491  1
  Si  Si183  1  -0.000000  0.683592  0.490532  1
  Si  Si184  1  -0.000000  0.406425  0.451060  1
  H  H185  1  0.288095  0.685895  0.124521  1
  H  H186  1  0.711671  0.685774  0.124493  1
  H  H187  1  0.287463  0.314832  0.136521  1
  H  H188  1  0.712338  0.314886  0.136523  1
  H  H189  1  0.288095  0.685895  0.614519  1
  H  H190  1  0.711671  0.685774  0.614492  1
  H  H191  1  0.287463  0.314832  0.626520  1
  H  H192  1  0.712338  0.314886  0.626521  1
