# generated using pymatgen
data_Si14H2O29
_symmetry_space_group_name_H-M   'P 1'
_cell_length_a   11.40919207
_cell_length_b   26.79127551
_cell_length_c   61.32164967
_cell_angle_alpha   134.99934521
_cell_angle_beta   90.00000000
_cell_angle_gamma   90.00000000
_symmetry_Int_Tables_number   1
_chemical_formula_structural   Si14H2O29
_chemical_formula_sum   'Si112 H16 O232'
_cell_volume   13254.1559724
_cell_formula_units_Z   8
loop_
 _symmetry_equiv_pos_site_id
 _symmetry_equiv_pos_as_xyz
  1  'x, y, z'
loop_
 _atom_site_type_symbol
 _atom_site_label
 _atom_site_symmetry_multiplicity
 _atom_site_fract_x
 _atom_site_fract_y
 _atom_site_fract_z
 _atom_site_occupancy
  O  O1  1  0.000000  0.937068  0.191291  1
  O  O2  1  0.814656  0.964219  0.178627  1
  O  O3  1  0.814655  0.868917  0.178623  1
  O  O4  1  0.185237  0.964211  0.178620  1
  O  O5  1  0.185238  0.868917  0.178622  1
  O  O6  1  0.499943  0.930571  0.187276  1
  O  O7  1  0.708418  0.921036  0.129991  1
  O  O8  1  0.708400  0.754674  0.129989  1
  O  O9  1  0.291500  0.921040  0.129989  1
  O  O10  1  0.291482  0.754676  0.129987  1
  O  O11  1  0.314644  0.368921  0.200785  1
  O  O12  1  0.685226  0.368914  0.200786  1
  O  O13  1  0.000000  0.105420  0.189237  1
  O  O14  1  0.790560  0.052157  0.174746  1
  O  O15  1  0.209343  0.052157  0.174743  1
  O  O16  1  0.613903  0.004447  0.181872  1
  O  O17  1  0.385991  0.004451  0.181873  1
  O  O18  1  0.208406  0.254675  0.178834  1
  O  O19  1  0.791486  0.254675  0.178836  1
  O  O20  1  0.000000  0.233896  0.188261  1
  O  O21  1  0.160636  0.168925  0.188085  1
  O  O22  1  0.839264  0.168926  0.188088  1
  O  O23  1  0.790545  0.768413  0.174740  1
  O  O24  1  0.209329  0.768409  0.174736  1
  O  O25  1  0.613898  0.839202  0.181872  1
  O  O26  1  0.385988  0.839197  0.181869  1
  O  O27  1  0.160627  0.694827  0.188078  1
  O  O28  1  0.839253  0.694829  0.188081  1
  O  O29  1  0.000000  0.762055  0.189229  1
  O  O30  1  0.314674  0.535967  0.200785  1
  O  O31  1  0.685258  0.535950  0.200787  1
  O  O32  1  0.290569  0.448018  0.142570  1
  O  O33  1  0.709350  0.448013  0.142572  1
  O  O34  1  0.113922  0.495720  0.179176  1
  O  O35  1  0.113891  0.339196  0.179175  1
  O  O36  1  0.886010  0.495724  0.179175  1
  O  O37  1  0.885980  0.339203  0.179178  1
  O  O38  1  0.000000  0.437336  0.191456  1
  O  O39  1  0.208402  0.579133  0.178828  1
  O  O40  1  0.791485  0.579135  0.178832  1
  O  O41  1  0.000000  0.630425  0.188255  1
  O  O42  1  0.290549  0.268414  0.142571  1
  O  O43  1  0.709333  0.268409  0.142573  1
  O  O44  1  0.499963  0.738120  0.336300  1
  O  O45  1  0.339258  0.668928  0.376684  1
  O  O46  1  0.000000  0.937068  0.500220  1
  O  O47  1  0.814656  0.964219  0.487556  1
  O  O48  1  0.814655  0.868917  0.487553  1
  O  O49  1  0.185237  0.964211  0.487549  1
  O  O50  1  0.185238  0.868917  0.487551  1
  O  O51  1  0.290573  0.731765  0.317880  1
  O  O52  1  0.709359  0.731758  0.317881  1
  O  O53  1  0.499943  0.930571  0.496206  1
  O  O54  1  0.708418  0.921036  0.438921  1
  O  O55  1  0.708400  0.754674  0.438918  1
  O  O56  1  0.291500  0.921040  0.438919  1
  O  O57  1  0.291482  0.754676  0.438916  1
  O  O58  1  0.648940  0.801589  0.416512  1
  O  O59  1  0.350961  0.801593  0.416510  1
  O  O60  1  0.499959  0.869748  0.416654  1
  O  O61  1  0.499943  0.733896  0.416653  1
  O  O62  1  0.660648  0.805343  0.376688  1
  O  O63  1  0.339274  0.805348  0.376686  1
  O  O64  1  0.654777  0.670785  0.335692  1
  O  O65  1  0.345131  0.670790  0.335691  1
  O  O66  1  0.660630  0.668923  0.376686  1
  O  O67  1  0.499945  0.605420  0.336297  1
  O  O68  1  0.499935  0.437069  0.230226  1
  O  O69  1  0.314641  0.464223  0.259665  1
  O  O70  1  0.314644  0.368921  0.509715  1
  O  O71  1  0.685222  0.464207  0.259667  1
  O  O72  1  0.685226  0.368914  0.509716  1
  O  O73  1  0.290551  0.552160  0.317879  1
  O  O74  1  0.709335  0.552154  0.317881  1
  O  O75  1  0.113889  0.504448  0.281277  1
  O  O76  1  0.113922  0.660970  0.281274  1
  O  O77  1  0.885976  0.504451  0.281274  1
  O  O78  1  0.886010  0.660972  0.281275  1
  O  O79  1  0.000000  0.562835  0.268995  1
  O  O80  1  0.000000  0.430571  0.230226  1
  O  O81  1  0.208415  0.421038  0.281620  1
  O  O82  1  0.791497  0.421038  0.281623  1
  O  O83  1  -0.000000  0.369748  0.272197  1
  O  O84  1  0.000000  0.105420  0.498166  1
  O  O85  1  0.163380  0.000000  0.230224  1
  O  O86  1  0.790560  0.052157  0.483675  1
  O  O87  1  0.790571  0.231762  0.285716  1
  O  O88  1  0.209343  0.052157  0.483673  1
  O  O89  1  0.209357  0.231761  0.285713  1
  O  O90  1  0.613903  0.004447  0.490801  1
  O  O91  1  0.613921  0.160969  0.278581  1
  O  O92  1  0.385991  0.004451  0.490803  1
  O  O93  1  0.386009  0.160974  0.278582  1
  O  O94  1  0.499957  0.062835  0.230227  1
  O  O95  1  0.208406  0.254675  0.487764  1
  O  O96  1  0.791486  0.254675  0.487766  1
  O  O97  1  0.148942  0.301589  0.230227  1
  O  O98  1  0.850963  0.301592  0.230230  1
  O  O99  1  0.000000  0.233896  0.497191  1
  O  O100  1  0.160647  0.305345  0.272372  1
  O  O101  1  0.160636  0.168925  0.497015  1
  O  O102  1  0.839273  0.305346  0.272374  1
  O  O103  1  0.839264  0.168926  0.497017  1
  O  O104  1  0.154780  0.170787  0.230229  1
  O  O105  1  0.845134  0.170788  0.230231  1
  O  O106  1  -0.000000  0.238120  0.271224  1
  O  O107  1  0.836532  -0.000000  0.230228  1
  O  O108  1  0.790562  0.948017  0.285710  1
  O  O109  1  0.790545  0.768413  0.483670  1
  O  O110  1  0.209344  0.948015  0.285707  1
  O  O111  1  0.209329  0.768409  0.483665  1
  O  O112  1  0.613920  0.995720  0.278578  1
  O  O113  1  0.613898  0.839202  0.490802  1
  O  O114  1  0.386007  0.995725  0.278583  1
  O  O115  1  0.385988  0.839197  0.490799  1
  O  O116  1  0.499938  0.937336  0.230226  1
  O  O117  1  0.208417  0.745496  0.281615  1
  O  O118  1  0.791497  0.745496  0.281618  1
  O  O119  1  0.148938  0.698579  0.230221  1
  O  O120  1  0.850959  0.698583  0.230225  1
  O  O121  1  0.000000  0.766275  0.272191  1
  O  O122  1  0.160627  0.694827  0.497008  1
  O  O123  1  0.160639  0.831244  0.272364  1
  O  O124  1  0.839253  0.694829  0.497011  1
  O  O125  1  0.839268  0.831247  0.272368  1
  O  O126  1  0.154769  0.829386  0.230222  1
  O  O127  1  0.845122  0.829387  0.230224  1
  O  O128  1  -0.000000  0.762055  0.498159  1
  O  O129  1  -0.000000  0.894752  0.271216  1
  O  O130  1  0.336525  0.500087  0.230222  1
  O  O131  1  0.663373  0.500084  0.230228  1
  O  O132  1  0.499963  0.563102  0.230226  1
  O  O133  1  0.314674  0.535967  0.509715  1
  O  O134  1  0.314675  0.631257  0.259666  1
  O  O135  1  0.685258  0.535950  0.509716  1
  O  O136  1  0.685254  0.631251  0.259667  1
  O  O137  1  0.290569  0.448018  0.451500  1
  O  O138  1  0.709350  0.448013  0.451502  1
  O  O139  1  0.113922  0.495720  0.488106  1
  O  O140  1  0.113891  0.339196  0.488105  1
  O  O141  1  0.886010  0.495724  0.488105  1
  O  O142  1  0.885980  0.339203  0.488107  1
  O  O143  1  0.000000  0.437336  0.500385  1
  O  O144  1  0.000000  0.569600  0.230225  1
  O  O145  1  0.208402  0.579133  0.487757  1
  O  O146  1  0.791485  0.579135  0.487762  1
  O  O147  1  0.000000  0.630425  0.497185  1
  O  O148  1  0.499958  0.394752  0.433084  1
  O  O149  1  0.499944  0.262055  0.433083  1
  O  O150  1  -0.000000  0.063102  0.269162  1
  O  O151  1  0.814674  0.035962  0.281833  1
  O  O152  1  0.814675  0.131254  0.281830  1
  O  O153  1  0.185258  0.035954  0.281827  1
  O  O154  1  0.185253  0.131253  0.281828  1
  O  O155  1  0.290549  0.268414  0.451501  1
  O  O156  1  0.709333  0.268409  0.451502  1
  O  O157  1  0.499957  0.069600  0.273177  1
  O  O158  1  0.708405  0.079133  0.330463  1
  O  O159  1  0.708421  0.245493  0.330464  1
  O  O160  1  0.291487  0.079136  0.330463  1
  O  O161  1  0.291499  0.245497  0.330464  1
  O  O162  1  0.648942  0.198578  0.352871  1
  O  O163  1  0.350963  0.198583  0.352871  1
  O  O164  1  0.499947  0.130425  0.352728  1
  O  O165  1  0.499959  0.266274  0.352728  1
  O  O166  1  0.660633  0.194826  0.392696  1
  O  O167  1  0.339258  0.194831  0.392696  1
  O  O168  1  0.654775  0.329384  0.433691  1
  O  O169  1  0.345128  0.329388  0.433690  1
  O  O170  1  0.339273  0.331247  0.392696  1
  O  O171  1  0.660645  0.331243  0.392697  1
  O  O172  1  0.290573  0.731765  0.626809  1
  O  O173  1  0.709359  0.731758  0.626811  1
  O  O174  1  0.499935  0.437069  0.539155  1
  O  O175  1  0.314641  0.464223  0.568595  1
  O  O176  1  0.685222  0.464207  0.568596  1
  O  O177  1  0.290551  0.552160  0.626809  1
  O  O178  1  0.709335  0.552154  0.626811  1
  O  O179  1  0.113889  0.504448  0.590206  1
  O  O180  1  0.113922  0.660970  0.590204  1
  O  O181  1  0.885976  0.504451  0.590204  1
  O  O182  1  0.886010  0.660972  0.590205  1
  O  O183  1  0.000000  0.562835  0.577925  1
  O  O184  1  0.000000  0.430571  0.539155  1
  O  O185  1  0.208415  0.421038  0.590550  1
  O  O186  1  0.791497  0.421038  0.590553  1
  O  O187  1  0.000000  0.369748  0.581126  1
  O  O188  1  0.163380  0.000000  0.539154  1
  O  O189  1  0.790571  0.231762  0.594645  1
  O  O190  1  0.209357  0.231761  0.594643  1
  O  O191  1  0.613921  0.160969  0.587511  1
  O  O192  1  0.386009  0.160974  0.587512  1
  O  O193  1  0.499957  0.062835  0.539157  1
  O  O194  1  0.148942  0.301589  0.539157  1
  O  O195  1  0.850963  0.301592  0.539160  1
  O  O196  1  0.160647  0.305345  0.581302  1
  O  O197  1  0.839273  0.305346  0.581304  1
  O  O198  1  0.154780  0.170787  0.539159  1
  O  O199  1  0.845134  0.170788  0.539161  1
  O  O200  1  0.000000  0.238120  0.580154  1
  O  O201  1  0.836532  0.000000  0.539158  1
  O  O202  1  0.790562  0.948017  0.594640  1
  O  O203  1  0.209344  0.948015  0.594637  1
  O  O204  1  0.613920  0.995720  0.587507  1
  O  O205  1  0.386007  0.995725  0.587513  1
  O  O206  1  0.499938  0.937336  0.539155  1
  O  O207  1  0.208417  0.745496  0.590545  1
  O  O208  1  0.791497  0.745496  0.590548  1
  O  O209  1  0.148938  0.698579  0.539151  1
  O  O210  1  0.850959  0.698583  0.539155  1
  O  O211  1  0.000000  0.766275  0.581120  1
  O  O212  1  0.160639  0.831244  0.581293  1
  O  O213  1  0.839268  0.831247  0.581298  1
  O  O214  1  0.154769  0.829386  0.539151  1
  O  O215  1  0.845122  0.829387  0.539154  1
  O  O216  1  0.000000  0.894752  0.580146  1
  O  O217  1  0.336525  0.500087  0.539152  1
  O  O218  1  0.663373  0.500084  0.539158  1
  O  O219  1  0.499963  0.563102  0.539155  1
  O  O220  1  0.314675  0.631257  0.568595  1
  O  O221  1  0.685254  0.631251  0.568597  1
  O  O222  1  0.000000  0.569600  0.539155  1
  O  O223  1  0.000000  0.063102  0.578091  1
  O  O224  1  0.814674  0.035962  0.590763  1
  O  O225  1  0.814675  0.131254  0.590760  1
  O  O226  1  0.185258  0.035954  0.590757  1
  O  O227  1  0.185253  0.131253  0.590757  1
  O  O228  1  0.499957  0.069600  0.582107  1
  O  O229  1  0.708405  0.079133  0.639393  1
  O  O230  1  0.708421  0.245493  0.639394  1
  O  O231  1  0.291487  0.079136  0.639392  1
  O  O232  1  0.291499  0.245497  0.639393  1
  Si  Si233  1  0.735044  0.985827  0.165658  1
  Si  Si234  1  0.735034  0.805335  0.165656  1
  Si  Si235  1  0.264859  0.985826  0.165656  1
  Si  Si236  1  0.264851  0.805333  0.165653  1
  Si  Si237  1  0.864318  0.942441  0.194612  1
  Si  Si238  1  0.135580  0.942441  0.194609  1
  Si  Si239  1  0.499941  0.884694  0.194577  1
  Si  Si240  1  0.235032  0.305335  0.174468  1
  Si  Si241  1  0.764848  0.305333  0.174470  1
  Si  Si242  1  0.135116  0.236592  0.194545  1
  Si  Si243  1  0.864781  0.236592  0.194547  1
  Si  Si244  1  0.135350  0.122179  0.194625  1
  Si  Si245  1  0.864555  0.122179  0.194627  1
  Si  Si246  1  0.499948  -0.000000  0.194578  1
  Si  Si247  1  0.135337  0.762742  0.194617  1
  Si  Si248  1  0.864542  0.762743  0.194620  1
  Si  Si249  1  0.235050  0.514348  0.174466  1
  Si  Si250  1  0.764865  0.514343  0.174467  1
  Si  Si251  1  0.135110  0.648070  0.194538  1
  Si  Si252  1  0.864775  0.648072  0.194541  1
  Si  Si253  1  0.000000  0.500088  0.194579  1
  Si  Si254  1  0.000000  0.384694  0.194579  1
  Si  Si255  1  0.735044  0.985827  0.474588  1
  Si  Si256  1  0.735034  0.805335  0.474585  1
  Si  Si257  1  0.264859  0.985826  0.474585  1
  Si  Si258  1  0.264851  0.805333  0.474583  1
  Si  Si259  1  0.635126  0.852100  0.412036  1
  Si  Si260  1  0.635112  0.736590  0.412034  1
  Si  Si261  1  0.364791  0.852103  0.412035  1
  Si  Si262  1  0.364777  0.736593  0.412033  1
  Si  Si263  1  0.635359  0.737429  0.341265  1
  Si  Si264  1  0.364564  0.737434  0.341264  1
  Si  Si265  1  0.864318  0.942441  0.503541  1
  Si  Si266  1  0.135580  0.942441  0.503538  1
  Si  Si267  1  0.499941  0.884694  0.503507  1
  Si  Si268  1  0.235035  0.485830  0.285985  1
  Si  Si269  1  0.764850  0.485824  0.285985  1
  Si  Si270  1  0.135125  0.352102  0.265912  1
  Si  Si271  1  0.864789  0.352102  0.265914  1
  Si  Si272  1  0.635343  0.622177  0.341263  1
  Si  Si273  1  0.364549  0.622181  0.341262  1
  Si  Si274  1  0.364306  0.442445  0.230224  1
  Si  Si275  1  0.635567  0.442438  0.230226  1
  Si  Si276  1  0.000000  0.500084  0.265872  1
  Si  Si277  1  0.235032  0.305335  0.483397  1
  Si  Si278  1  0.764848  0.305333  0.483399  1
  Si  Si279  1  0.135116  0.236592  0.503475  1
  Si  Si280  1  0.864781  0.236592  0.503476  1
  Si  Si281  1  0.135359  0.237431  0.265833  1
  Si  Si282  1  0.135350  0.122179  0.503555  1
  Si  Si283  1  0.864563  0.237432  0.265835  1
  Si  Si284  1  0.864555  0.122179  0.503557  1
  Si  Si285  1  0.499948  0.000000  0.503508  1
  Si  Si286  1  0.499962  0.115477  0.265875  1
  Si  Si287  1  0.235055  0.694839  0.285983  1
  Si  Si288  1  0.764870  0.694835  0.285984  1
  Si  Si289  1  0.135122  0.763579  0.265905  1
  Si  Si290  1  0.864786  0.763580  0.265908  1
  Si  Si291  1  0.135337  0.762742  0.503547  1
  Si  Si292  1  0.135349  0.877993  0.265826  1
  Si  Si293  1  0.864542  0.762743  0.503550  1
  Si  Si294  1  0.864554  0.877994  0.265828  1
  Si  Si295  1  0.235050  0.514348  0.483395  1
  Si  Si296  1  0.764865  0.514343  0.483397  1
  Si  Si297  1  0.135110  0.648070  0.503467  1
  Si  Si298  1  0.864775  0.648072  0.503470  1
  Si  Si299  1  0.635355  0.377992  0.428119  1
  Si  Si300  1  0.364560  0.377995  0.428118  1
  Si  Si301  1  0.364331  0.557733  0.230224  1
  Si  Si302  1  0.635592  0.557727  0.230227  1
  Si  Si303  1  0.000000  0.500088  0.503509  1
  Si  Si304  1  0.000000  0.615477  0.265872  1
  Si  Si305  1  0.000000  0.384694  0.503509  1
  Si  Si306  1  0.735049  0.014346  0.294796  1
  Si  Si307  1  0.735055  0.194836  0.294798  1
  Si  Si308  1  0.264863  0.014345  0.294795  1
  Si  Si309  1  0.264870  0.194837  0.294796  1
  Si  Si310  1  0.635115  0.148070  0.357347  1
  Si  Si311  1  0.635126  0.263578  0.357348  1
  Si  Si312  1  0.364780  0.148072  0.357347  1
  Si  Si313  1  0.364790  0.263580  0.357347  1
  Si  Si314  1  0.635343  0.262741  0.428118  1
  Si  Si315  1  0.364548  0.262745  0.428118  1
  Si  Si316  1  0.864333  0.057730  0.265844  1
  Si  Si317  1  0.135594  0.057729  0.265840  1
  Si  Si318  1  0.499957  0.000000  0.265874  1
  Si  Si319  1  0.235035  0.485830  0.594915  1
  Si  Si320  1  0.764850  0.485824  0.594915  1
  Si  Si321  1  0.135125  0.352102  0.574842  1
  Si  Si322  1  0.864789  0.352102  0.574843  1
  Si  Si323  1  0.364306  0.442445  0.539154  1
  Si  Si324  1  0.635567  0.442438  0.539156  1
  Si  Si325  1  -0.000000  0.500084  0.574802  1
  Si  Si326  1  0.135359  0.237431  0.574763  1
  Si  Si327  1  0.864563  0.237432  0.574765  1
  Si  Si328  1  0.499962  0.115477  0.574805  1
  Si  Si329  1  0.235055  0.694839  0.594912  1
  Si  Si330  1  0.764870  0.694835  0.594914  1
  Si  Si331  1  0.135122  0.763579  0.574835  1
  Si  Si332  1  0.864786  0.763580  0.574837  1
  Si  Si333  1  0.135349  0.877993  0.574755  1
  Si  Si334  1  0.864554  0.877994  0.574758  1
  Si  Si335  1  0.364331  0.557733  0.539154  1
  Si  Si336  1  0.635592  0.557727  0.539157  1
  Si  Si337  1  0.000000  0.615477  0.574802  1
  Si  Si338  1  0.735049  0.014346  0.603726  1
  Si  Si339  1  0.735055  0.194836  0.603728  1
  Si  Si340  1  0.264863  0.014345  0.603725  1
  Si  Si341  1  0.264870  0.194837  0.603726  1
  Si  Si342  1  0.864333  0.057730  0.574773  1
  Si  Si343  1  0.135594  0.057729  0.574770  1
  Si  Si344  1  0.499957  -0.000000  0.574804  1
  H  H345  1  0.708418  0.921036  0.115314  1
  H  H346  1  0.708400  0.754674  0.115312  1
  H  H347  1  0.291500  0.921040  0.115312  1
  H  H348  1  0.291482  0.754676  0.115310  1
  H  H349  1  0.290569  0.448018  0.127894  1
  H  H350  1  0.709350  0.448013  0.127895  1
  H  H351  1  0.290549  0.268414  0.127895  1
  H  H352  1  0.709333  0.268409  0.127896  1
  H  H353  1  0.290573  0.731765  0.641486  1
  H  H354  1  0.709359  0.731758  0.641488  1
  H  H355  1  0.290551  0.552160  0.641486  1
  H  H356  1  0.709335  0.552154  0.641487  1
  H  H357  1  0.708405  0.079133  0.654070  1
  H  H358  1  0.708421  0.245493  0.654071  1
  H  H359  1  0.291487  0.079136  0.654069  1
  H  H360  1  0.291499  0.245497  0.654070  1
