# generated using pymatgen
data_Si5H2O11
_symmetry_space_group_name_H-M   'P 1'
_cell_length_a   14.33040949
_cell_length_b   8.45279806
_cell_length_c   33.91827465
_cell_angle_alpha   90.00000000
_cell_angle_beta   90.00000000
_cell_angle_gamma   90.00000000
_symmetry_Int_Tables_number   1
_chemical_formula_structural   Si5H2O11
_chemical_formula_sum   'Si20 H8 O44'
_cell_volume   4108.59039598
_cell_formula_units_Z   4
loop_
 _symmetry_equiv_pos_site_id
 _symmetry_equiv_pos_as_xyz
  1  'x, y, z'
loop_
 _atom_site_type_symbol
 _atom_site_label
 _atom_site_symmetry_multiplicity
 _atom_site_fract_x
 _atom_site_fract_y
 _atom_site_fract_z
 _atom_site_occupancy
  O  O1  1  0.559447  0.721511  0.408536  1
  O  O2  1  0.056819  0.779517  0.295952  1
  O  O3  1  0.444403  0.279919  0.296938  1
  O  O4  1  0.945364  0.227813  0.408382  1
  O  O5  1  0.403455  0.608130  0.382452  1
  O  O6  1  0.901480  0.895789  0.322641  1
  O  O7  1  0.599238  0.392453  0.323662  1
  O  O8  1  0.095488  0.107752  0.381262  1
  O  O9  1  0.289795  0.497545  0.330210  1
  O  O10  1  0.783114  0.989928  0.375195  1
  O  O11  1  0.714819  0.495230  0.376178  1
  O  O12  1  0.214349  0.003684  0.329709  1
  O  O13  1  0.281115  0.305074  0.273378  1
  O  O14  1  0.782686  0.194482  0.429340  1
  O  O15  1  0.725012  0.700899  0.430611  1
  O  O16  1  0.220495  0.809893  0.273449  1
  O  O17  1  0.584357  0.765686  0.476197  1
  O  O18  1  0.916143  0.734441  0.195912  1
  O  O19  1  0.415410  0.765418  0.509370  1
  O  O20  1  0.086228  0.731242  0.228137  1
  O  O21  1  0.417015  0.226093  0.228168  1
  O  O22  1  0.084251  0.274266  0.508181  1
  O  O23  1  0.583309  0.224282  0.196744  1
  O  O24  1  0.917617  0.272342  0.476970  1
  O  O25  1  0.469805  0.566370  0.455328  1
  O  O26  1  0.033298  0.935576  0.175292  1
  O  O27  1  0.530315  0.566248  0.530279  1
  O  O28  1  0.970556  0.937052  0.250073  1
  O  O29  1  0.530457  0.426383  0.250458  1
  O  O30  1  0.972361  0.071559  0.531226  1
  O  O31  1  0.471718  0.425801  0.173948  1
  O  O32  1  0.030999  0.070606  0.455096  1
  O  O33  1  0.454071  0.561645  0.313126  1
  O  O34  1  0.949711  0.942553  0.393211  1
  O  O35  1  0.548677  0.437701  0.393270  1
  O  O36  1  0.049513  0.062657  0.311836  1
  O  O37  1  0.656650  0.978347  0.425816  1
  O  O38  1  0.162080  0.527957  0.280843  1
  O  O39  1  0.342353  0.027187  0.281210  1
  O  O40  1  0.843711  0.476182  0.425054  1
  O  O41  1  0.161157  0.288397  0.327263  1
  O  O42  1  0.657737  0.207500  0.377225  1
  O  O43  1  0.843280  0.709620  0.376483  1
  O  O44  1  0.338437  0.783626  0.327070  1
  Si  Si45  1  0.637979  0.804331  0.435561  1
  Si  Si46  1  0.135358  0.701557  0.268484  1
  Si  Si47  1  0.367901  0.200803  0.268760  1
  Si  Si48  1  0.870847  0.302512  0.436384  1
  Si  Si49  1  0.486620  0.576789  0.409811  1
  Si  Si50  1  0.984967  0.925559  0.295561  1
  Si  Si51  1  0.515792  0.424320  0.296808  1
  Si  Si52  1  0.011917  0.081022  0.410033  1
  Si  Si53  1  0.222540  0.398864  0.302905  1
  Si  Si54  1  0.716538  0.094054  0.401914  1
  Si  Si55  1  0.782759  0.600876  0.401982  1
  Si  Si56  1  0.279631  0.902896  0.302853  1
  Si  Si57  1  0.370684  0.616061  0.339530  1
  Si  Si58  1  0.869282  0.879608  0.365500  1
  Si  Si59  1  0.632041  0.377596  0.366649  1
  Si  Si60  1  0.133018  0.120799  0.338238  1
  Si  Si61  1  0.004472  0.840393  0.213170  1
  Si  Si62  1  0.499914  0.661061  0.492859  1
  Si  Si63  1  0.002120  0.171082  0.491914  1
  Si  Si64  1  0.500555  0.326962  0.212469  1
  H  H65  1  0.916143  0.734441  0.169377  1
  H  H66  1  0.415410  0.765418  0.535904  1
  H  H67  1  0.084251  0.274266  0.534715  1
  H  H68  1  0.583309  0.224282  0.170210  1
  H  H69  1  0.033298  0.935576  0.148758  1
  H  H70  1  0.530315  0.566248  0.556813  1
  H  H71  1  0.972361  0.071559  0.557761  1
  H  H72  1  0.471718  0.425801  0.147413  1
