# generated using pymatgen
data_Si17(HO9)4
_symmetry_space_group_name_H-M   'P 1'
_cell_length_a   14.33040949
_cell_length_b   8.45279806
_cell_length_c   39.76653694
_cell_angle_alpha   90.00000000
_cell_angle_beta   90.00000000
_cell_angle_gamma   90.00000000
_symmetry_Int_Tables_number   1
_chemical_formula_structural   Si17(HO9)4
_chemical_formula_sum   'Si34 H8 O72'
_cell_volume   4817.00244112
_cell_formula_units_Z   2
loop_
 _symmetry_equiv_pos_site_id
 _symmetry_equiv_pos_as_xyz
  1  'x, y, z'
loop_
 _atom_site_type_symbol
 _atom_site_label
 _atom_site_symmetry_multiplicity
 _atom_site_fract_x
 _atom_site_fract_y
 _atom_site_fract_z
 _atom_site_occupancy
  O  O1  1  0.440654  0.721726  0.207035  1
  O  O2  1  0.057276  0.220088  0.207507  1
  O  O3  1  0.596296  0.604967  0.229469  1
  O  O4  1  0.902793  0.105934  0.230784  1
  O  O5  1  0.212235  0.995291  0.235047  1
  O  O6  1  0.286032  0.496051  0.235164  1
  O  O7  1  0.217231  0.191689  0.187974  1
  O  O8  1  0.276341  0.693365  0.187794  1
  O  O9  1  0.415410  0.765418  0.149380  1
  O  O10  1  0.084251  0.274266  0.148366  1
  O  O11  1  0.530315  0.566248  0.167214  1
  O  O12  1  0.972361  0.071559  0.168022  1
  O  O13  1  0.045387  0.932224  0.221117  1
  O  O14  1  0.450959  0.438419  0.219984  1
  O  O15  1  0.340820  0.974888  0.192443  1
  O  O16  1  0.156973  0.471581  0.193442  1
  O  O17  1  0.338689  0.211325  0.232424  1
  O  O18  1  0.159781  0.712756  0.233488  1
  O  O19  1  0.559447  0.721511  0.541797  1
  O  O20  1  0.940980  0.778090  0.303201  1
  O  O21  1  0.056819  0.779517  0.445770  1
  O  O22  1  0.444403  0.279919  0.446611  1
  O  O23  1  0.556913  0.276216  0.302080  1
  O  O24  1  0.945364  0.227813  0.541665  1
  O  O25  1  0.403455  0.608130  0.519549  1
  O  O26  1  0.096932  0.893313  0.280671  1
  O  O27  1  0.901480  0.895789  0.468534  1
  O  O28  1  0.599238  0.392453  0.469405  1
  O  O29  1  0.402866  0.391852  0.279018  1
  O  O30  1  0.095488  0.107752  0.518534  1
  O  O31  1  0.289795  0.497545  0.474990  1
  O  O32  1  0.712846  0.501843  0.274474  1
  O  O33  1  0.783114  0.989928  0.513359  1
  O  O34  1  0.714819  0.495230  0.514198  1
  O  O35  1  0.784289  0.011299  0.275834  1
  O  O36  1  0.214349  0.003684  0.474563  1
  O  O37  1  0.281115  0.305074  0.426516  1
  O  O38  1  0.719484  0.298395  0.320597  1
  O  O39  1  0.782686  0.194482  0.559542  1
  O  O40  1  0.725012  0.700899  0.560625  1
  O  O41  1  0.776492  0.807219  0.322385  1
  O  O42  1  0.220495  0.809893  0.426576  1
  O  O43  1  0.584357  0.765686  0.599508  1
  O  O44  1  0.916143  0.734441  0.360442  1
  O  O45  1  0.086228  0.731242  0.387928  1
  O  O46  1  0.417015  0.226093  0.387955  1
  O  O47  1  0.583309  0.224282  0.361152  1
  O  O48  1  0.917617  0.272342  0.600166  1
  O  O49  1  0.469805  0.566370  0.581707  1
  O  O50  1  0.033298  0.935576  0.342855  1
  O  O51  1  0.970556  0.937052  0.406638  1
  O  O52  1  0.530457  0.426383  0.406966  1
  O  O53  1  0.471718  0.425801  0.341708  1
  O  O54  1  0.030999  0.070606  0.581509  1
  O  O55  1  0.454071  0.561645  0.460418  1
  O  O56  1  0.546016  0.564831  0.289000  1
  O  O57  1  0.949711  0.942553  0.528726  1
  O  O58  1  0.548677  0.437701  0.528776  1
  O  O59  1  0.952134  0.061290  0.290197  1
  O  O60  1  0.049513  0.062657  0.459318  1
  O  O61  1  0.656650  0.978347  0.556535  1
  O  O62  1  0.840285  0.524496  0.317711  1
  O  O63  1  0.162080  0.527957  0.432883  1
  O  O64  1  0.342353  0.027187  0.433196  1
  O  O65  1  0.651672  0.019389  0.317215  1
  O  O66  1  0.843711  0.476182  0.555886  1
  O  O67  1  0.161157  0.288397  0.472477  1
  O  O68  1  0.844346  0.294212  0.276336  1
  O  O69  1  0.657737  0.207500  0.515091  1
  O  O70  1  0.843280  0.709620  0.514458  1
  O  O71  1  0.660510  0.784854  0.276318  1
  O  O72  1  0.338437  0.783626  0.472312  1
  Si  Si73  1  0.361307  0.802244  0.183937  1
  Si  Si74  1  0.130478  0.300713  0.183026  1
  Si  Si75  1  0.513355  0.576592  0.206015  1
  Si  Si76  1  0.987516  0.072024  0.208362  1
  Si  Si77  1  0.280013  0.091119  0.211824  1
  Si  Si78  1  0.219018  0.593696  0.212304  1
  Si  Si79  1  0.127138  0.883964  0.243737  1
  Si  Si80  1  0.368361  0.381063  0.242698  1
  Si  Si81  1  0.637979  0.804331  0.564847  1
  Si  Si82  1  0.861280  0.697588  0.325914  1
  Si  Si83  1  0.135358  0.701557  0.422341  1
  Si  Si84  1  0.367901  0.200803  0.422577  1
  Si  Si85  1  0.630382  0.191023  0.326538  1
  Si  Si86  1  0.870847  0.302512  0.565549  1
  Si  Si87  1  0.486620  0.576789  0.542884  1
  Si  Si88  1  0.014582  0.921885  0.304382  1
  Si  Si89  1  0.984967  0.925559  0.445436  1
  Si  Si90  1  0.515792  0.424320  0.446500  1
  Si  Si91  1  0.487300  0.425620  0.301581  1
  Si  Si92  1  0.011917  0.081022  0.543073  1
  Si  Si93  1  0.222540  0.398864  0.451700  1
  Si  Si94  1  0.782971  0.405553  0.297264  1
  Si  Si95  1  0.716538  0.094054  0.536149  1
  Si  Si96  1  0.782759  0.600876  0.536207  1
  Si  Si97  1  0.717095  0.907064  0.298235  1
  Si  Si98  1  0.279631  0.902896  0.451656  1
  Si  Si99  1  0.370684  0.616061  0.482939  1
  Si  Si100  1  0.627448  0.613476  0.266302  1
  Si  Si101  1  0.869282  0.879608  0.505090  1
  Si  Si102  1  0.632041  0.377596  0.506070  1
  Si  Si103  1  0.869327  0.123097  0.267292  1
  Si  Si104  1  0.133018  0.120799  0.481837  1
  Si  Si105  1  0.004472  0.840393  0.375162  1
  Si  Si106  1  0.500555  0.326962  0.374564  1
  H  H107  1  0.415410  0.765418  0.126748  1
  H  H108  1  0.084251  0.274266  0.125734  1
  H  H109  1  0.530315  0.566248  0.144582  1
  H  H110  1  0.972361  0.071559  0.145390  1
  H  H111  1  0.584357  0.765686  0.622140  1
  H  H112  1  0.917617  0.272342  0.622798  1
  H  H113  1  0.469805  0.566370  0.604339  1
  H  H114  1  0.030999  0.070606  0.604141  1
