# generated using pymatgen
data_Si6H2O13
_symmetry_space_group_name_H-M   'P 1'
_cell_length_a   8.96036688
_cell_length_b   9.13716697
_cell_length_c   29.86067130
_cell_angle_alpha   90.00000000
_cell_angle_beta   90.00000000
_cell_angle_gamma   90.00000000
_symmetry_Int_Tables_number   1
_chemical_formula_structural   Si6H2O13
_chemical_formula_sum   'Si12 H4 O26'
_cell_volume   2444.76387791
_cell_formula_units_Z   2
loop_
 _symmetry_equiv_pos_site_id
 _symmetry_equiv_pos_as_xyz
  1  'x, y, z'
loop_
 _atom_site_type_symbol
 _atom_site_label
 _atom_site_symmetry_multiplicity
 _atom_site_fract_x
 _atom_site_fract_y
 _atom_site_fract_z
 _atom_site_occupancy
  O  O1  1  0.318872  0.862559  0.316053  1
  O  O2  1  0.818873  0.137165  0.316053  1
  O  O3  1  0.108715  0.730376  0.354929  1
  O  O4  1  0.608715  0.269347  0.354929  1
  O  O5  1  0.068994  0.783613  0.275654  1
  O  O6  1  0.568994  0.216110  0.275654  1
  O  O7  1  0.068663  0.001832  0.331704  1
  O  O8  1  0.568664  0.997891  0.331703  1
  O  O9  1  0.321490  0.358341  0.264978  1
  O  O10  1  0.821490  0.641382  0.264978  1
  O  O11  1  0.573985  0.487682  0.260487  1
  O  O12  1  0.073985  0.512041  0.260487  1
  O  O13  1  0.997040  0.309480  0.467527  1
  O  O14  1  0.503101  0.309477  0.197584  1
  O  O15  1  0.497041  0.690246  0.467527  1
  O  O16  1  0.003102  0.690249  0.197585  1
  O  O17  1  0.489510  0.781445  0.380940  1
  O  O18  1  0.989509  0.218278  0.380940  1
  O  O19  1  0.288772  0.615224  0.408840  1
  O  O20  1  0.788772  0.384499  0.408840  1
  O  O21  1  0.538677  0.516024  0.401935  1
  O  O22  1  0.038677  0.483699  0.401935  1
  O  O23  1  0.072630  0.263928  0.301343  1
  O  O24  1  0.572630  0.735795  0.301342  1
  O  O25  1  0.205339  0.482052  0.333918  1
  O  O26  1  0.705339  0.517670  0.333918  1
  Si  Si27  1  0.142857  0.853165  0.318648  1
  Si  Si28  1  0.642857  0.146557  0.318648  1
  Si  Si29  1  0.455918  0.659798  0.417245  1
  Si  Si30  1  0.955917  0.339926  0.417245  1
  Si  Si31  1  0.170619  0.400719  0.288401  1
  Si  Si32  1  0.670619  0.599004  0.288401  1
  Si  Si33  1  0.487748  0.342181  0.249073  1
  Si  Si34  1  0.987748  0.657542  0.249073  1
  Si  Si35  1  0.156310  0.577764  0.376000  1
  Si  Si36  1  0.656309  0.421959  0.375999  1
  Si  Si37  1  0.986141  0.152308  0.332026  1
  Si  Si38  1  0.486141  0.847414  0.332026  1
  H  H39  1  0.997040  0.309480  0.497667  1
  H  H40  1  0.503101  0.309477  0.167444  1
  H  H41  1  0.497041  0.690246  0.497666  1
  H  H42  1  0.003102  0.690249  0.167445  1
