# generated using pymatgen
data_Si30H2O61
_symmetry_space_group_name_H-M   'P 1'
_cell_length_a   13.93702836
_cell_length_b   12.36391025
_cell_length_c   64.58515055
_cell_angle_alpha   115.65100000
_cell_angle_beta   90.00000000
_cell_angle_gamma   90.00000000
_symmetry_Int_Tables_number   1
_chemical_formula_structural   Si30H2O61
_chemical_formula_sum   'Si120 H8 O244'
_cell_volume   10032.2690875
_cell_formula_units_Z   4
loop_
 _symmetry_equiv_pos_site_id
 _symmetry_equiv_pos_as_xyz
  1  'x, y, z'
loop_
 _atom_site_type_symbol
 _atom_site_label
 _atom_site_symmetry_multiplicity
 _atom_site_fract_x
 _atom_site_fract_y
 _atom_site_fract_z
 _atom_site_occupancy
  O  O1  1  0.288095  0.685895  0.099835  1
  O  O2  1  0.711671  0.685774  0.099816  1
  O  O3  1  0.405469  0.730292  0.197700  1
  O  O4  1  0.094401  0.269483  0.165326  1
  O  O5  1  0.251355  0.274547  0.143748  1
  O  O6  1  0.213458  0.098478  0.155398  1
  O  O7  1  0.247411  0.696559  0.177917  1
  O  O8  1  0.252463  0.305462  0.185165  1
  O  O9  1  0.248266  0.868349  0.138562  1
  O  O10  1  0.406737  0.762149  0.133866  1
  O  O11  1  0.252514  0.660900  0.136502  1
  O  O12  1  0.287463  0.314832  0.108114  1
  O  O13  1  0.406748  0.047600  0.201698  1
  O  O14  1  0.092543  0.954247  0.161157  1
  O  O15  1  0.249350  0.997647  0.181408  1
  O  O16  1  0.095335  0.630660  0.155646  1
  O  O17  1  0.243393  0.484456  0.146842  1
  O  O18  1  0.405335  0.380529  0.141703  1
  O  O19  1  0.499894  0.340234  0.171864  1
  O  O20  1  0.499888  0.175993  0.186227  1
  O  O21  1  0.499926  0.730038  0.164189  1
  O  O22  1  0.499914  0.544924  0.172048  1
  O  O23  1  0.499874  0.937805  0.165163  1
  O  O24  1  0.905425  0.269489  0.165328  1
  O  O25  1  0.594362  0.730302  0.197701  1
  O  O26  1  0.748487  0.274611  0.143747  1
  O  O27  1  0.786334  0.098520  0.155389  1
  O  O28  1  0.747351  0.305514  0.185163  1
  O  O29  1  0.752406  0.696613  0.177914  1
  O  O30  1  0.751570  0.868330  0.138516  1
  O  O31  1  0.593071  0.762185  0.133859  1
  O  O32  1  0.747302  0.660944  0.136496  1
  O  O33  1  0.712338  0.314886  0.108115  1
  O  O34  1  0.907064  0.954261  0.161189  1
  O  O35  1  0.592859  0.047617  0.201732  1
  O  O36  1  0.749888  0.997517  0.181339  1
  O  O37  1  0.904467  0.630656  0.155642  1
  O  O38  1  0.000000  0.063476  0.197824  1
  O  O39  1  0.756375  0.484517  0.146842  1
  O  O40  1  0.594462  0.380511  0.141702  1
  O  O41  1  0.000000  0.661120  0.191171  1
  O  O42  1  0.000000  0.271524  0.198946  1
  O  O43  1  0.000000  0.825389  0.176711  1
  O  O44  1  0.000000  0.455651  0.190754  1
  O  O45  1  0.248116  0.726400  0.219289  1
  O  O46  1  0.248596  0.273711  0.298767  1
  O  O47  1  0.250963  0.132208  0.224222  1
  O  O48  1  0.250760  0.868111  0.293905  1
  O  O49  1  0.093034  0.239074  0.229240  1
  O  O50  1  0.093016  0.760778  0.288901  1
  O  O51  1  0.247253  0.339973  0.226506  1
  O  O52  1  0.247434  0.659991  0.291515  1
  O  O53  1  0.212713  0.314238  0.263147  1
  O  O54  1  0.212104  0.686491  0.254957  1
  O  O55  1  0.256180  0.483760  0.301936  1
  O  O56  1  0.256529  0.516989  0.216329  1
  O  O57  1  0.094446  0.379322  0.296678  1
  O  O58  1  0.094333  0.619838  0.221247  1
  O  O59  1  0.286045  0.097815  0.310509  1
  O  O60  1  0.288226  0.902992  0.208026  1
  O  O61  1  0.404510  0.370653  0.207429  1
  O  O62  1  0.751186  0.273689  0.298758  1
  O  O63  1  0.751730  0.726461  0.219287  1
  O  O64  1  0.713685  0.097785  0.310490  1
  O  O65  1  0.749072  0.868122  0.293915  1
  O  O66  1  0.748881  0.132193  0.224176  1
  O  O67  1  0.906789  0.760751  0.288902  1
  O  O68  1  0.906775  0.239125  0.229235  1
  O  O69  1  0.752347  0.659974  0.291507  1
  O  O70  1  0.752558  0.340026  0.226502  1
  O  O71  1  0.787697  0.686551  0.254957  1
  O  O72  1  0.787050  0.314114  0.263129  1
  O  O73  1  0.743241  0.517052  0.216329  1
  O  O74  1  0.743603  0.483710  0.301916  1
  O  O75  1  0.905466  0.619824  0.221246  1
  O  O76  1  0.905330  0.379281  0.296667  1
  O  O77  1  0.711578  0.903037  0.208018  1
  O  O78  1  0.595290  0.370655  0.207426  1
  O  O79  1  0.405423  0.268328  0.320384  1
  O  O80  1  0.094357  0.729117  0.352748  1
  O  O81  1  0.251814  0.725584  0.374309  1
  O  O82  1  0.211256  0.902315  0.363127  1
  O  O83  1  0.247283  0.305064  0.340205  1
  O  O84  1  0.252354  0.696129  0.332958  1
  O  O85  1  0.247976  0.131983  0.379563  1
  O  O86  1  0.406702  0.237665  0.384281  1
  O  O87  1  0.252718  0.339047  0.381516  1
  O  O88  1  0.288095  0.685895  0.409989  1
  O  O89  1  0.407102  0.953417  0.316186  1
  O  O90  1  0.092784  0.046696  0.356723  1
  O  O91  1  0.251401  0.998766  0.336846  1
  O  O92  1  0.095270  0.369681  0.362461  1
  O  O93  1  0.243071  0.516303  0.371424  1
  O  O94  1  0.405448  0.618682  0.376222  1
  O  O95  1  0.499886  0.660109  0.346170  1
  O  O96  1  0.499899  0.824382  0.331693  1
  O  O97  1  0.499913  0.270626  0.354049  1
  O  O98  1  0.499858  0.454501  0.345746  1
  O  O99  1  0.499899  0.062421  0.352844  1
  O  O100  1  0.404437  0.629630  0.310669  1
  O  O101  1  0.905430  0.729166  0.352746  1
  O  O102  1  0.594365  0.268377  0.320383  1
  O  O103  1  0.747965  0.725558  0.374298  1
  O  O104  1  0.788474  0.902288  0.363109  1
  O  O105  1  0.747459  0.696057  0.332945  1
  O  O106  1  0.752524  0.304992  0.340194  1
  O  O107  1  0.751857  0.131997  0.379572  1
  O  O108  1  0.593104  0.237643  0.384281  1
  O  O109  1  0.747068  0.339038  0.381510  1
  O  O110  1  0.711671  0.685774  0.409970  1
  O  O111  1  0.907009  0.046670  0.356719  1
  O  O112  1  0.592690  0.953387  0.316182  1
  O  O113  1  0.748347  0.998951  0.336858  1
  O  O114  1  0.904523  0.369665  0.362458  1
  O  O115  1  0.756708  0.516247  0.371402  1
  O  O116  1  0.594327  0.618639  0.376210  1
  O  O117  1  0.000000  0.339285  0.326873  1
  O  O118  1  0.000000  0.543799  0.327023  1
  O  O119  1  0.000000  0.729193  0.319288  1
  O  O120  1  0.000000  0.936772  0.320161  1
  O  O121  1  0.000000  0.175066  0.341214  1
  O  O122  1  0.595352  0.629614  0.310667  1
  O  O123  1  0.405469  0.730292  0.507853  1
  O  O124  1  0.094401  0.269483  0.475480  1
  O  O125  1  0.251355  0.274547  0.453902  1
  O  O126  1  0.213458  0.098478  0.465552  1
  O  O127  1  0.247411  0.696559  0.488071  1
  O  O128  1  0.252463  0.305462  0.495319  1
  O  O129  1  0.248266  0.868349  0.448716  1
  O  O130  1  0.406737  0.762149  0.444019  1
  O  O131  1  0.252514  0.660900  0.446655  1
  O  O132  1  0.287463  0.314832  0.418268  1
  O  O133  1  0.406748  0.047600  0.511852  1
  O  O134  1  0.092543  0.954247  0.471311  1
  O  O135  1  0.249350  0.997647  0.491562  1
  O  O136  1  0.095335  0.630660  0.465799  1
  O  O137  1  0.243393  0.484456  0.456995  1
  O  O138  1  0.405335  0.380529  0.451857  1
  O  O139  1  0.499894  0.340234  0.482017  1
  O  O140  1  0.499888  0.175993  0.496381  1
  O  O141  1  0.499926  0.730038  0.474343  1
  O  O142  1  0.499914  0.544924  0.482201  1
  O  O143  1  0.499874  0.937805  0.475316  1
  O  O144  1  0.905425  0.269489  0.475482  1
  O  O145  1  0.594362  0.730302  0.507854  1
  O  O146  1  0.748487  0.274611  0.453901  1
  O  O147  1  0.786334  0.098520  0.465543  1
  O  O148  1  0.747351  0.305514  0.495316  1
  O  O149  1  0.752406  0.696613  0.488067  1
  O  O150  1  0.751570  0.868330  0.448670  1
  O  O151  1  0.593071  0.762185  0.444013  1
  O  O152  1  0.747302  0.660944  0.446649  1
  O  O153  1  0.712338  0.314886  0.418268  1
  O  O154  1  0.907064  0.954261  0.471343  1
  O  O155  1  0.592859  0.047617  0.511886  1
  O  O156  1  0.749888  0.997517  0.491493  1
  O  O157  1  0.904467  0.630656  0.465796  1
  O  O158  1  0.000000  0.063476  0.507978  1
  O  O159  1  0.756375  0.484517  0.456995  1
  O  O160  1  0.594462  0.380511  0.451856  1
  O  O161  1  0.000000  0.661120  0.501324  1
  O  O162  1  0.000000  0.271524  0.509099  1
  O  O163  1  0.000000  0.825389  0.486865  1
  O  O164  1  0.000000  0.455651  0.500907  1
  O  O165  1  0.248116  0.726400  0.529442  1
  O  O166  1  0.248596  0.273711  0.608921  1
  O  O167  1  0.250963  0.132208  0.534376  1
  O  O168  1  0.250760  0.868111  0.604059  1
  O  O169  1  0.093034  0.239074  0.539394  1
  O  O170  1  0.093016  0.760778  0.599054  1
  O  O171  1  0.247253  0.339973  0.536660  1
  O  O172  1  0.247434  0.659991  0.601669  1
  O  O173  1  0.212713  0.314238  0.573301  1
  O  O174  1  0.212104  0.686491  0.565111  1
  O  O175  1  0.256180  0.483760  0.612089  1
  O  O176  1  0.256529  0.516989  0.526482  1
  O  O177  1  0.094446  0.379322  0.606832  1
  O  O178  1  0.094333  0.619838  0.531400  1
  O  O179  1  0.286045  0.097815  0.620662  1
  O  O180  1  0.288226  0.902992  0.518179  1
  O  O181  1  0.404510  0.370653  0.517582  1
  O  O182  1  0.751186  0.273689  0.608912  1
  O  O183  1  0.751730  0.726461  0.529441  1
  O  O184  1  0.713685  0.097785  0.620644  1
  O  O185  1  0.749072  0.868122  0.604068  1
  O  O186  1  0.748881  0.132193  0.534329  1
  O  O187  1  0.906789  0.760751  0.599055  1
  O  O188  1  0.906775  0.239125  0.539388  1
  O  O189  1  0.752347  0.659974  0.601661  1
  O  O190  1  0.752558  0.340026  0.536656  1
  O  O191  1  0.787697  0.686551  0.565111  1
  O  O192  1  0.787050  0.314114  0.573283  1
  O  O193  1  0.743241  0.517052  0.526483  1
  O  O194  1  0.743603  0.483710  0.612070  1
  O  O195  1  0.905466  0.619824  0.531400  1
  O  O196  1  0.905330  0.379281  0.606820  1
  O  O197  1  0.711578  0.903037  0.518171  1
  O  O198  1  0.595290  0.370655  0.517580  1
  O  O199  1  0.405423  0.268328  0.630538  1
  O  O200  1  0.094357  0.729117  0.662901  1
  O  O201  1  0.251814  0.725584  0.684463  1
  O  O202  1  0.211256  0.902315  0.673281  1
  O  O203  1  0.247283  0.305064  0.650359  1
  O  O204  1  0.252354  0.696129  0.643111  1
  O  O205  1  0.247976  0.131983  0.689717  1
  O  O206  1  0.406702  0.237665  0.694434  1
  O  O207  1  0.252718  0.339047  0.691669  1
  O  O208  1  0.288095  0.685895  0.720142  1
  O  O209  1  0.407102  0.953417  0.626339  1
  O  O210  1  0.092784  0.046696  0.666876  1
  O  O211  1  0.251401  0.998766  0.647000  1
  O  O212  1  0.095270  0.369681  0.672615  1
  O  O213  1  0.243071  0.516303  0.681578  1
  O  O214  1  0.405448  0.618682  0.686376  1
  O  O215  1  0.499886  0.660109  0.656323  1
  O  O216  1  0.499899  0.824382  0.641847  1
  O  O217  1  0.499913  0.270626  0.664203  1
  O  O218  1  0.499858  0.454501  0.655899  1
  O  O219  1  0.499899  0.062421  0.662998  1
  O  O220  1  0.404437  0.629630  0.620823  1
  O  O221  1  0.905430  0.729166  0.662900  1
  O  O222  1  0.594365  0.268377  0.630536  1
  O  O223  1  0.747965  0.725558  0.684452  1
  O  O224  1  0.788474  0.902288  0.673263  1
  O  O225  1  0.747459  0.696057  0.643098  1
  O  O226  1  0.752524  0.304992  0.650348  1
  O  O227  1  0.751857  0.131997  0.689726  1
  O  O228  1  0.593104  0.237643  0.694435  1
  O  O229  1  0.747068  0.339038  0.691664  1
  O  O230  1  0.711671  0.685774  0.720123  1
  O  O231  1  0.907009  0.046670  0.666873  1
  O  O232  1  0.592690  0.953387  0.626336  1
  O  O233  1  0.748347  0.998951  0.647012  1
  O  O234  1  0.904523  0.369665  0.672612  1
  O  O235  1  0.756708  0.516247  0.681556  1
  O  O236  1  0.594327  0.618639  0.686364  1
  O  O237  1  0.000000  0.339285  0.637027  1
  O  O238  1  0.000000  0.543799  0.637177  1
  O  O239  1  0.000000  0.729193  0.629441  1
  O  O240  1  0.000000  0.936772  0.630314  1
  O  O241  1  -0.000000  0.175066  0.651368  1
  O  O242  1  0.595352  0.629614  0.620820  1
  O  O243  1  0.287463  0.314832  0.728421  1
  O  O244  1  0.712338  0.314886  0.728422  1
  Si  Si245  1  0.499840  0.054697  0.188651  1
  Si  Si246  1  0.499900  0.407551  0.156184  1
  Si  Si247  1  0.296568  0.765828  0.201738  1
  Si  Si248  1  0.203536  0.235072  0.161370  1
  Si  Si249  1  0.298783  0.743276  0.126460  1
  Si  Si250  1  0.298938  0.020545  0.204593  1
  Si  Si251  1  0.200899  0.979980  0.158384  1
  Si  Si252  1  0.207978  0.615310  0.153502  1
  Si  Si253  1  0.296960  0.361577  0.134621  1
  Si  Si254  1  0.499898  0.315318  0.193697  1
  Si  Si255  1  0.499912  0.799272  0.148881  1
  Si  Si256  1  0.499917  0.684725  0.183339  1
  Si  Si257  1  0.796284  0.235119  0.161369  1
  Si  Si258  1  0.703259  0.765876  0.201736  1
  Si  Si259  1  0.701013  0.743253  0.126441  1
  Si  Si260  1  0.798780  0.979997  0.158371  1
  Si  Si261  1  0.700745  0.020564  0.204580  1
  Si  Si262  1  0.791819  0.615352  0.153497  1
  Si  Si263  1  0.702840  0.361619  0.134621  1
  Si  Si264  1  -0.000000  0.946749  0.174296  1
  Si  Si265  1  0.000000  0.686152  0.169343  1
  Si  Si266  1  0.000000  0.315777  0.179646  1
  Si  Si267  1  0.000000  0.592994  0.206718  1
  Si  Si268  1  0.202543  0.639560  0.228450  1
  Si  Si269  1  0.202891  0.360719  0.289646  1
  Si  Si270  1  0.201132  0.257487  0.236535  1
  Si  Si271  1  0.201056  0.742742  0.281571  1
  Si  Si272  1  0.291770  0.614504  0.308557  1
  Si  Si273  1  0.291891  0.386092  0.209598  1
  Si  Si274  1  0.000000  0.201931  0.214192  1
  Si  Si275  1  0.798750  0.742748  0.281571  1
  Si  Si276  1  0.798663  0.257470  0.236518  1
  Si  Si277  1  0.707905  0.386139  0.209595  1
  Si  Si278  1  0.708014  0.614463  0.308545  1
  Si  Si279  1  0.797259  0.639604  0.228451  1
  Si  Si280  1  0.796887  0.360669  0.289630  1
  Si  Si281  1  0.000000  0.798148  0.303932  1
  Si  Si282  1  0.499904  0.200791  0.369255  1
  Si  Si283  1  0.499874  0.591864  0.361696  1
  Si  Si284  1  0.499897  0.945798  0.329297  1
  Si  Si285  1  0.499893  0.314629  0.334709  1
  Si  Si286  1  0.296218  0.234325  0.316425  1
  Si  Si287  1  0.203180  0.765082  0.356789  1
  Si  Si288  1  0.298680  0.256924  0.391645  1
  Si  Si289  1  0.298620  0.979610  0.313607  1
  Si  Si290  1  0.200514  0.020171  0.359811  1
  Si  Si291  1  0.207872  0.385307  0.364656  1
  Si  Si292  1  0.297311  0.638728  0.383475  1
  Si  Si293  1  0.499899  0.685168  0.324345  1
  Si  Si294  1  0.000000  0.053760  0.343631  1
  Si  Si295  1  0.796592  0.765067  0.356778  1
  Si  Si296  1  0.703557  0.234312  0.316416  1
  Si  Si297  1  0.701126  0.256932  0.391646  1
  Si  Si298  1  0.799273  0.020180  0.359809  1
  Si  Si299  1  0.701166  0.979617  0.313605  1
  Si  Si300  1  0.791919  0.385266  0.364645  1
  Si  Si301  1  0.702468  0.638672  0.383458  1
  Si  Si302  1  0.000000  0.314413  0.348711  1
  Si  Si303  1  0.000000  0.683592  0.338392  1
  Si  Si304  1  0.000000  0.406425  0.311162  1
  Si  Si305  1  0.499840  0.054697  0.498804  1
  Si  Si306  1  0.499900  0.407551  0.466337  1
  Si  Si307  1  0.296568  0.765828  0.511891  1
  Si  Si308  1  0.203536  0.235072  0.471524  1
  Si  Si309  1  0.298783  0.743276  0.436613  1
  Si  Si310  1  0.298938  0.020545  0.514747  1
  Si  Si311  1  0.200899  0.979980  0.468538  1
  Si  Si312  1  0.207978  0.615310  0.463655  1
  Si  Si313  1  0.296960  0.361577  0.444775  1
  Si  Si314  1  0.499898  0.315318  0.503851  1
  Si  Si315  1  0.499912  0.799272  0.459034  1
  Si  Si316  1  0.499917  0.684725  0.493493  1
  Si  Si317  1  0.796284  0.235119  0.471523  1
  Si  Si318  1  0.703259  0.765876  0.511889  1
  Si  Si319  1  0.701013  0.743253  0.436595  1
  Si  Si320  1  0.798780  0.979997  0.468524  1
  Si  Si321  1  0.700745  0.020564  0.514734  1
  Si  Si322  1  0.791819  0.615352  0.463651  1
  Si  Si323  1  0.702840  0.361619  0.444775  1
  Si  Si324  1  0.000000  0.946749  0.484450  1
  Si  Si325  1  0.000000  0.686152  0.479496  1
  Si  Si326  1  0.000000  0.315777  0.489799  1
  Si  Si327  1  0.000000  0.592994  0.516872  1
  Si  Si328  1  0.202543  0.639560  0.538604  1
  Si  Si329  1  0.202891  0.360719  0.599800  1
  Si  Si330  1  0.201132  0.257487  0.546689  1
  Si  Si331  1  0.201056  0.742742  0.591724  1
  Si  Si332  1  0.291770  0.614504  0.618710  1
  Si  Si333  1  0.291891  0.386092  0.519752  1
  Si  Si334  1  0.000000  0.201931  0.524346  1
  Si  Si335  1  0.798750  0.742748  0.591725  1
  Si  Si336  1  0.798663  0.257470  0.546672  1
  Si  Si337  1  0.707905  0.386139  0.519749  1
  Si  Si338  1  0.708014  0.614463  0.618698  1
  Si  Si339  1  0.797259  0.639604  0.538604  1
  Si  Si340  1  0.796887  0.360669  0.599784  1
  Si  Si341  1  0.000000  0.798148  0.614085  1
  Si  Si342  1  0.499904  0.200791  0.679408  1
  Si  Si343  1  0.499874  0.591864  0.671849  1
  Si  Si344  1  0.499897  0.945798  0.639450  1
  Si  Si345  1  0.499893  0.314629  0.644862  1
  Si  Si346  1  0.296218  0.234325  0.626579  1
  Si  Si347  1  0.203180  0.765082  0.666943  1
  Si  Si348  1  0.298680  0.256924  0.701799  1
  Si  Si349  1  0.298620  0.979610  0.623761  1
  Si  Si350  1  0.200514  0.020171  0.669965  1
  Si  Si351  1  0.207872  0.385307  0.674809  1
  Si  Si352  1  0.297311  0.638728  0.693629  1
  Si  Si353  1  0.499899  0.685168  0.634499  1
  Si  Si354  1  0.000000  0.053760  0.653784  1
  Si  Si355  1  0.796592  0.765067  0.666932  1
  Si  Si356  1  0.703557  0.234312  0.626569  1
  Si  Si357  1  0.701126  0.256932  0.701799  1
  Si  Si358  1  0.799273  0.020180  0.669963  1
  Si  Si359  1  0.701166  0.979617  0.623759  1
  Si  Si360  1  0.791919  0.385266  0.674799  1
  Si  Si361  1  0.702468  0.638672  0.693611  1
  Si  Si362  1  0.000000  0.314413  0.658865  1
  Si  Si363  1  0.000000  0.683592  0.648545  1
  Si  Si364  1  -0.000000  0.406425  0.621315  1
  H  H365  1  0.288095  0.685895  0.085900  1
  H  H366  1  0.711671  0.685774  0.085881  1
  H  H367  1  0.287463  0.314832  0.094179  1
  H  H368  1  0.712338  0.314886  0.094180  1
  H  H369  1  0.288095  0.685895  0.734078  1
  H  H370  1  0.711671  0.685774  0.734058  1
  H  H371  1  0.287463  0.314832  0.742356  1
  H  H372  1  0.712338  0.314886  0.742357  1
