# generated using pymatgen
data_Si12H2O25
_symmetry_space_group_name_H-M   'P 1'
_cell_length_a   8.31855047
_cell_length_b   38.25171453
_cell_length_c   44.87760988
_cell_angle_alpha   90.00000000
_cell_angle_beta   90.00000000
_cell_angle_gamma   90.00000000
_symmetry_Int_Tables_number   1
_chemical_formula_structural   Si12H2O25
_chemical_formula_sum   'Si144 H24 O300'
_cell_volume   14280.0024123
_cell_formula_units_Z   12
loop_
 _symmetry_equiv_pos_site_id
 _symmetry_equiv_pos_as_xyz
  1  'x, y, z'
loop_
 _atom_site_type_symbol
 _atom_site_label
 _atom_site_symmetry_multiplicity
 _atom_site_fract_x
 _atom_site_fract_y
 _atom_site_fract_z
 _atom_site_occupancy
  O  O1  1  0.751876  0.941704  0.488249  1
  O  O2  1  0.754178  0.441290  0.289231  1
  O  O3  1  0.755256  0.558272  0.239629  1
  O  O4  1  0.247917  0.941706  0.488250  1
  O  O5  1  0.244538  0.558270  0.239628  1
  O  O6  1  0.245615  0.441291  0.289232  1
  O  O7  1  0.256649  0.941111  0.239479  1
  O  O8  1  0.256663  0.058842  0.289309  1
  O  O9  1  0.255008  0.558382  0.488198  1
  O  O10  1  0.743136  0.058839  0.289308  1
  O  O11  1  0.743150  0.941112  0.239478  1
  O  O12  1  0.744793  0.558383  0.488196  1
  O  O13  1  0.737358  0.984164  0.442839  1
  O  O14  1  0.746278  0.484361  0.334188  1
  O  O15  1  0.736800  0.515585  0.194339  1
  O  O16  1  0.262441  0.984164  0.442839  1
  O  O17  1  0.262989  0.515579  0.194340  1
  O  O18  1  0.253514  0.484367  0.334186  1
  O  O19  1  0.244745  0.984441  0.194716  1
  O  O20  1  0.244740  0.015519  0.334080  1
  O  O21  1  0.237051  0.515642  0.442943  1
  O  O22  1  0.755046  0.015515  0.334079  1
  O  O23  1  0.755041  0.984445  0.194716  1
  O  O24  1  0.762742  0.515642  0.442941  1
  O  O25  1  0.755492  0.918793  0.435207  1
  O  O26  1  0.745195  0.418707  0.342326  1
  O  O27  1  0.753706  0.581022  0.186519  1
  O  O28  1  0.244309  0.918794  0.435211  1
  O  O29  1  0.246106  0.581015  0.186514  1
  O  O30  1  0.254621  0.418718  0.342335  1
  O  O31  1  0.245012  0.918754  0.186321  1
  O  O32  1  0.244959  0.081208  0.342456  1
  O  O33  1  0.253544  0.581086  0.435100  1
  O  O34  1  0.754845  0.081203  0.342460  1
  O  O35  1  0.754781  0.918756  0.186318  1
  O  O36  1  0.746236  0.581087  0.435098  1
  O  O37  1  0.000000  0.951847  0.454984  1
  O  O38  1  0.000000  0.448074  0.323754  1
  O  O39  1  0.000000  0.548128  0.205498  1
  O  O40  1  0.499901  0.948474  0.204447  1
  O  O41  1  0.499902  0.051488  0.324348  1
  O  O42  1  0.499895  0.548277  0.454120  1
  O  O43  1  0.738510  0.857759  0.453732  1
  O  O44  1  0.740320  0.357354  0.323992  1
  O  O45  1  0.738054  0.642231  0.204949  1
  O  O46  1  0.261285  0.857759  0.453732  1
  O  O47  1  0.261717  0.642224  0.204944  1
  O  O48  1  0.259426  0.357369  0.324003  1
  O  O49  1  0.239286  0.857259  0.204540  1
  O  O50  1  0.239339  0.142710  0.324245  1
  O  O51  1  0.238149  0.642321  0.453505  1
  O  O52  1  0.760441  0.142700  0.324248  1
  O  O53  1  0.760503  0.857262  0.204539  1
  O  O54  1  0.761636  0.642323  0.453504  1
  O  O55  1  0.742471  0.880107  0.505903  1
  O  O56  1  0.740481  0.379809  0.271746  1
  O  O57  1  0.742871  0.619939  0.257100  1
  O  O58  1  0.257328  0.880107  0.505903  1
  O  O59  1  0.256908  0.619939  0.257097  1
  O  O60  1  0.259284  0.379810  0.271749  1
  O  O61  1  0.241597  0.879557  0.256811  1
  O  O62  1  0.241579  0.120396  0.271981  1
  O  O63  1  0.242617  0.620076  0.505676  1
  O  O64  1  0.758195  0.120391  0.271982  1
  O  O65  1  0.758190  0.879559  0.256811  1
  O  O66  1  0.757183  0.620076  0.505675  1
  O  O67  1  0.759394  0.814948  0.499101  1
  O  O68  1  0.759666  0.314770  0.278400  1
  O  O69  1  0.759963  0.685092  0.250382  1
  O  O70  1  0.240401  0.814948  0.499101  1
  O  O71  1  0.239855  0.685092  0.250373  1
  O  O72  1  0.240184  0.314772  0.278423  1
  O  O73  1  0.260532  0.814512  0.250141  1
  O  O74  1  0.260352  0.185426  0.278620  1
  O  O75  1  0.260694  0.685263  0.498909  1
  O  O76  1  0.739489  0.185420  0.278633  1
  O  O77  1  0.739280  0.814513  0.250135  1
  O  O78  1  0.739098  0.685263  0.498910  1
  O  O79  1  0.000000  0.854174  0.484432  1
  O  O80  1  0.000000  0.354185  0.292720  1
  O  O81  1  0.000000  0.645875  0.235449  1
  O  O82  1  0.499896  0.853929  0.235408  1
  O  O83  1  0.499891  0.146055  0.293353  1
  O  O84  1  0.499897  0.645857  0.484023  1
  O  O85  1  0.764928  0.000000  0.388607  1
  O  O86  1  0.764964  0.000000  0.140190  1
  O  O87  1  0.735345  0.499734  0.388777  1
  O  O88  1  0.764579  0.499635  0.140185  1
  O  O89  1  0.234833  0.000000  0.140190  1
  O  O90  1  0.234865  0.000000  0.388607  1
  O  O91  1  0.235226  0.499636  0.140183  1
  O  O92  1  0.264454  0.499735  0.388777  1
  O  O93  1  0.000000  0.983818  0.355454  1
  O  O94  1  -0.000000  0.016146  0.173351  1
  O  O95  1  0.000000  0.488438  0.414877  1
  O  O96  1  0.499901  0.010986  0.414613  1
  O  O97  1  0.499899  0.488308  0.166244  1
  O  O98  1  0.499900  0.515406  0.355602  1
  O  O99  1  0.736748  0.950928  0.349401  1
  O  O100  1  0.736737  0.049036  0.179391  1
  O  O101  1  0.756129  0.450861  0.427852  1
  O  O102  1  0.263075  0.049028  0.179396  1
  O  O103  1  0.263053  0.950933  0.349399  1
  O  O104  1  0.243673  0.450861  0.427852  1
  O  O105  1  0.256982  0.048841  0.427613  1
  O  O106  1  0.256045  0.450795  0.179289  1
  O  O107  1  0.238227  0.548860  0.349680  1
  O  O108  1  0.742813  0.048844  0.427612  1
  O  O109  1  0.761571  0.548857  0.349678  1
  O  O110  1  0.743746  0.450798  0.179294  1
  O  O111  1  0.761112  0.868201  0.397315  1
  O  O112  1  0.761263  0.131758  0.131470  1
  O  O113  1  0.768233  0.368476  0.380320  1
  O  O114  1  0.763001  0.631577  0.148646  1
  O  O115  1  0.238481  0.131737  0.131469  1
  O  O116  1  0.238651  0.868209  0.397316  1
  O  O117  1  0.236807  0.631577  0.148643  1
  O  O118  1  0.231589  0.368478  0.380327  1
  O  O119  1  0.269167  0.868613  0.148302  1
  O  O120  1  0.269233  0.131324  0.380482  1
  O  O121  1  0.268334  0.368476  0.131786  1
  O  O122  1  0.263016  0.631571  0.397190  1
  O  O123  1  0.730577  0.131330  0.380484  1
  O  O124  1  0.730634  0.868607  0.148302  1
  O  O125  1  0.736778  0.631570  0.397188  1
  O  O126  1  0.731452  0.368483  0.131786  1
  O  O127  1  0.499896  0.884292  0.424646  1
  O  O128  1  0.499905  0.381322  0.354156  1
  O  O129  1  0.499899  0.615988  0.175531  1
  O  O130  1  0.000000  0.881399  0.174184  1
  O  O131  1  0.000000  0.118583  0.354598  1
  O  O132  1  0.000000  0.616098  0.424107  1
  O  O133  1  0.748655  0.704063  0.305019  1
  O  O134  1  0.749494  0.295833  0.223755  1
  O  O135  1  0.750500  0.204146  0.472178  1
  O  O136  1  0.250295  0.295845  0.223767  1
  O  O137  1  0.251141  0.704061  0.305014  1
  O  O138  1  0.249304  0.204143  0.472176  1
  O  O139  1  0.247515  0.295681  0.472316  1
  O  O140  1  0.247350  0.204115  0.223843  1
  O  O141  1  0.246827  0.795822  0.304901  1
  O  O142  1  0.752289  0.295680  0.472316  1
  O  O143  1  0.752947  0.795821  0.304896  1
  O  O144  1  0.752405  0.204114  0.223856  1
  O  O145  1  0.748884  0.749988  0.345227  1
  O  O146  1  0.749769  0.249960  0.183526  1
  O  O147  1  0.748472  0.249979  0.431919  1
  O  O148  1  0.250060  0.249961  0.183525  1
  O  O149  1  0.250934  0.749986  0.345226  1
  O  O150  1  0.251337  0.249975  0.431916  1
  O  O151  1  0.758566  0.680919  0.357540  1
  O  O152  1  0.755363  0.319018  0.171283  1
  O  O153  1  0.755346  0.180877  0.419812  1
  O  O154  1  0.244495  0.319014  0.171287  1
  O  O155  1  0.241251  0.680919  0.357538  1
  O  O156  1  0.244433  0.180870  0.419810  1
  O  O157  1  0.255643  0.319051  0.419884  1
  O  O158  1  0.258579  0.180937  0.171286  1
  O  O159  1  0.258331  0.819019  0.357473  1
  O  O160  1  0.744136  0.319054  0.419882  1
  O  O161  1  0.741471  0.819015  0.357468  1
  O  O162  1  0.741251  0.180950  0.171294  1
  O  O163  1  0.000000  0.713594  0.335153  1
  O  O164  1  0.000000  0.286903  0.193219  1
  O  O165  1  -0.000000  0.213399  0.441372  1
  O  O166  1  0.499898  0.287292  0.442236  1
  O  O167  1  0.499893  0.213286  0.194003  1
  O  O168  1  0.499895  0.786926  0.334623  1
  O  O169  1  0.749424  0.749853  0.265700  1
  O  O170  1  0.749524  0.250049  0.263048  1
  O  O171  1  0.749294  0.249802  0.511544  1
  O  O172  1  0.250261  0.250054  0.263044  1
  O  O173  1  0.250374  0.749854  0.265700  1
  O  O174  1  0.250509  0.249804  0.511542  1
  O  O175  1  0.000000  0.789239  0.272288  1
  O  O176  1  -0.000000  0.210648  0.256311  1
  O  O177  1  -0.000000  0.289144  0.504775  1
  O  O178  1  0.499896  0.210334  0.503822  1
  O  O179  1  0.499898  0.289531  0.255679  1
  O  O180  1  0.499899  0.710315  0.272895  1
  O  O181  1  0.759670  0.884319  0.342830  1
  O  O182  1  0.759713  0.115651  0.185960  1
  O  O183  1  0.748430  0.384386  0.434786  1
  O  O184  1  0.240045  0.115639  0.185961  1
  O  O185  1  0.240100  0.884322  0.342827  1
  O  O186  1  0.251364  0.384385  0.434791  1
  O  O187  1  0.247616  0.115327  0.434876  1
  O  O188  1  0.248130  0.384343  0.186281  1
  O  O189  1  0.258507  0.615495  0.342711  1
  O  O190  1  0.752193  0.115332  0.434876  1
  O  O191  1  0.741287  0.615494  0.342709  1
  O  O192  1  0.751657  0.384346  0.186283  1
  O  O193  1  -0.000000  0.853062  0.364504  1
  O  O194  1  -0.000000  0.146956  0.164309  1
  O  O195  1  -0.000000  0.355078  0.415624  1
  O  O196  1  0.499899  0.144639  0.416067  1
  O  O197  1  0.499906  0.355156  0.167132  1
  O  O198  1  0.499901  0.646759  0.363887  1
  O  O199  1  0.744158  0.925260  0.297065  1
  O  O200  1  0.744131  0.074706  0.231723  1
  O  O201  1  0.739432  0.425583  0.480250  1
  O  O202  1  0.255683  0.074704  0.231727  1
  O  O203  1  0.255646  0.925262  0.297063  1
  O  O204  1  0.260368  0.425583  0.480250  1
  O  O205  1  0.239262  0.073785  0.480127  1
  O  O206  1  0.239664  0.425667  0.231732  1
  O  O207  1  0.244118  0.574166  0.297207  1
  O  O208  1  0.760529  0.073786  0.480126  1
  O  O209  1  0.755670  0.574164  0.297206  1
  O  O210  1  0.760126  0.425669  0.231734  1
  O  O211  1  0.499896  0.914888  0.330202  1
  O  O212  1  0.499893  0.085092  0.198579  1
  O  O213  1  0.499902  0.420611  0.444770  1
  O  O214  1  -0.000000  0.078702  0.444583  1
  O  O215  1  0.000000  0.420634  0.196329  1
  O  O216  1  0.000000  0.584343  0.330403  1
  O  O217  1  0.000000  0.919591  0.265185  1
  O  O218  1  -0.000000  0.080361  0.263599  1
  O  O219  1  -0.000000  0.419748  0.510725  1
  O  O220  1  0.499900  0.080352  0.510352  1
  O  O221  1  0.499886  0.419913  0.262286  1
  O  O222  1  0.499890  0.580262  0.265454  1
  O  O223  1  0.751969  0.058245  0.537598  1
  O  O224  1  0.247825  0.058243  0.537596  1
  O  O225  1  0.253989  0.441153  0.537713  1
  O  O226  1  0.745810  0.441153  0.537714  1
  O  O227  1  0.737398  0.015801  0.583015  1
  O  O228  1  0.262399  0.015799  0.583014  1
  O  O229  1  0.246786  0.484290  0.582645  1
  O  O230  1  0.753006  0.484290  0.582646  1
  O  O231  1  0.755330  0.081174  0.590637  1
  O  O232  1  0.244485  0.081171  0.590630  1
  O  O233  1  0.244937  0.418628  0.590803  1
  O  O234  1  0.754850  0.418629  0.590801  1
  O  O235  1  0.000000  0.048149  0.570902  1
  O  O236  1  0.499895  0.447836  0.572185  1
  O  O237  1  0.738598  0.142206  0.572109  1
  O  O238  1  0.261201  0.142207  0.572109  1
  O  O239  1  0.240333  0.357242  0.572509  1
  O  O240  1  0.759459  0.357240  0.572509  1
  O  O241  1  0.742424  0.119829  0.519945  1
  O  O242  1  0.257380  0.119832  0.519944  1
  O  O243  1  0.240411  0.379636  0.520234  1
  O  O244  1  0.759394  0.379635  0.520234  1
  O  O245  1  0.759152  0.184967  0.526712  1
  O  O246  1  0.240636  0.184970  0.526711  1
  O  O247  1  0.260339  0.314565  0.526954  1
  O  O248  1  0.739451  0.314564  0.526951  1
  O  O249  1  -0.000000  0.145798  0.541372  1
  O  O250  1  0.499900  0.354134  0.541253  1
  O  O251  1  0.764964  0.000000  0.637247  1
  O  O252  1  0.764579  0.499635  0.637241  1
  O  O253  1  0.234833  0.000000  0.637247  1
  O  O254  1  0.235226  0.499636  0.637240  1
  O  O255  1  0.000000  0.515181  0.603987  1
  O  O256  1  0.499902  0.989001  0.611244  1
  O  O257  1  0.738589  0.548793  0.598185  1
  O  O258  1  0.261210  0.548794  0.598185  1
  O  O259  1  0.257086  0.951120  0.598233  1
  O  O260  1  0.742716  0.951120  0.598234  1
  O  O261  1  0.761263  0.131758  0.628526  1
  O  O262  1  0.763001  0.631577  0.645703  1
  O  O263  1  0.238481  0.131737  0.628525  1
  O  O264  1  0.236807  0.631577  0.645700  1
  O  O265  1  0.269167  0.868613  0.645359  1
  O  O266  1  0.268334  0.368476  0.628842  1
  O  O267  1  0.730634  0.868607  0.645359  1
  O  O268  1  0.731452  0.368483  0.628843  1
  O  O269  1  0.499897  0.115731  0.601212  1
  O  O270  1  0.000000  0.381188  0.602673  1
  O  O271  1  0.750036  0.795777  0.553623  1
  O  O272  1  0.249761  0.795779  0.553623  1
  O  O273  1  0.246445  0.704213  0.553518  1
  O  O274  1  0.753350  0.704212  0.553519  1
  O  O275  1  0.749321  0.749957  0.593895  1
  O  O276  1  0.250483  0.749960  0.593895  1
  O  O277  1  0.755059  0.819077  0.605999  1
  O  O278  1  0.244722  0.819081  0.606001  1
  O  O279  1  0.258956  0.680847  0.605974  1
  O  O280  1  0.740824  0.680843  0.605975  1
  O  O281  1  0.000000  0.786807  0.584316  1
  O  O282  1  0.499897  0.713204  0.583139  1
  O  O283  1  0.749170  0.750078  0.514255  1
  O  O284  1  0.250625  0.750078  0.514255  1
  O  O285  1  0.000000  0.710748  0.520788  1
  O  O286  1  0.499898  0.789601  0.521853  1
  O  O287  1  0.758743  0.615465  0.591252  1
  O  O288  1  0.241056  0.615468  0.591252  1
  O  O289  1  0.247427  0.884635  0.590972  1
  O  O290  1  0.752372  0.884633  0.590973  1
  O  O291  1  0.000000  0.646840  0.612422  1
  O  O292  1  0.499896  0.855402  0.609767  1
  O  O293  1  0.743594  0.574218  0.545739  1
  O  O294  1  0.256201  0.574219  0.545741  1
  O  O295  1  0.239264  0.926170  0.545716  1
  O  O296  1  0.760529  0.926168  0.545717  1
  O  O297  1  0.499900  0.584294  0.579110  1
  O  O298  1  -0.000000  0.921315  0.581263  1
  O  O299  1  0.000000  0.580350  0.514153  1
  O  O300  1  0.499899  0.919569  0.515504  1
  Si  Si301  1  0.812495  0.949711  0.455698  1
  Si  Si302  1  0.812601  0.448818  0.322025  1
  Si  Si303  1  0.812600  0.550152  0.206882  1
  Si  Si304  1  0.187297  0.949713  0.455700  1
  Si  Si305  1  0.187202  0.550149  0.206881  1
  Si  Si306  1  0.187201  0.448821  0.322026  1
  Si  Si307  1  0.312690  0.948882  0.206575  1
  Si  Si308  1  0.312690  0.051075  0.322215  1
  Si  Si309  1  0.312580  0.550243  0.455474  1
  Si  Si310  1  0.687115  0.051073  0.322215  1
  Si  Si311  1  0.687112  0.948884  0.206574  1
  Si  Si312  1  0.687210  0.550243  0.455473  1
  Si  Si313  1  0.812516  0.850626  0.485426  1
  Si  Si314  1  0.812524  0.350448  0.292128  1
  Si  Si315  1  0.812526  0.649437  0.236593  1
  Si  Si316  1  0.187281  0.850625  0.485427  1
  Si  Si317  1  0.187263  0.649436  0.236589  1
  Si  Si318  1  0.187254  0.350453  0.292138  1
  Si  Si319  1  0.312574  0.850192  0.236301  1
  Si  Si320  1  0.312553  0.149771  0.292478  1
  Si  Si321  1  0.312579  0.649537  0.485156  1
  Si  Si322  1  0.687232  0.149764  0.292482  1
  Si  Si323  1  0.687219  0.850194  0.236300  1
  Si  Si324  1  0.687216  0.649538  0.485156  1
  Si  Si325  1  0.813624  0.987288  0.356868  1
  Si  Si326  1  0.813625  0.012675  0.171930  1
  Si  Si327  1  0.813876  0.488261  0.418736  1
  Si  Si328  1  0.186165  0.012671  0.171930  1
  Si  Si329  1  0.186166  0.987291  0.356868  1
  Si  Si330  1  0.185923  0.488261  0.418736  1
  Si  Si331  1  0.313891  0.011358  0.418521  1
  Si  Si332  1  0.313883  0.488174  0.170135  1
  Si  Si333  1  0.313552  0.512324  0.357072  1
  Si  Si334  1  0.685910  0.011359  0.418521  1
  Si  Si335  1  0.686247  0.512321  0.357071  1
  Si  Si336  1  0.685913  0.488177  0.170137  1
  Si  Si337  1  0.686762  0.881796  0.426978  1
  Si  Si338  1  0.686742  0.380980  0.350887  1
  Si  Si339  1  0.686731  0.618137  0.178199  1
  Si  Si340  1  0.313029  0.881798  0.426979  1
  Si  Si341  1  0.313065  0.618132  0.178196  1
  Si  Si342  1  0.313064  0.380990  0.350895  1
  Si  Si343  1  0.186675  0.881043  0.177668  1
  Si  Si344  1  0.186684  0.118922  0.351113  1
  Si  Si345  1  0.186732  0.618211  0.426769  1
  Si  Si346  1  0.813117  0.118918  0.351116  1
  Si  Si347  1  0.813118  0.881044  0.177667  1
  Si  Si348  1  0.813053  0.618212  0.426768  1
  Si  Si349  1  0.813139  0.712177  0.337178  1
  Si  Si350  1  0.812986  0.287865  0.191508  1
  Si  Si351  1  0.812933  0.212165  0.439880  1
  Si  Si352  1  0.186863  0.287865  0.191516  1
  Si  Si353  1  0.186682  0.712176  0.337174  1
  Si  Si354  1  0.186871  0.212161  0.439877  1
  Si  Si355  1  0.313005  0.287923  0.440168  1
  Si  Si356  1  0.313141  0.212111  0.191746  1
  Si  Si357  1  0.313160  0.787900  0.336977  1
  Si  Si358  1  0.686791  0.287926  0.440168  1
  Si  Si359  1  0.686631  0.787898  0.336973  1
  Si  Si360  1  0.686648  0.212116  0.191757  1
  Si  Si361  1  0.812362  0.787573  0.272499  1
  Si  Si362  1  0.812354  0.212330  0.256223  1
  Si  Si363  1  0.812320  0.287509  0.504669  1
  Si  Si364  1  0.187453  0.212335  0.256213  1
  Si  Si365  1  0.187435  0.787572  0.272503  1
  Si  Si366  1  0.187482  0.287511  0.504670  1
  Si  Si367  1  0.312311  0.212079  0.504369  1
  Si  Si368  1  0.312318  0.287780  0.256011  1
  Si  Si369  1  0.312359  0.712115  0.272708  1
  Si  Si370  1  0.687482  0.212077  0.504371  1
  Si  Si371  1  0.687439  0.712116  0.272714  1
  Si  Si372  1  0.687477  0.287772  0.256000  1
  Si  Si373  1  0.813711  0.855763  0.365740  1
  Si  Si374  1  0.813708  0.144212  0.163049  1
  Si  Si375  1  0.813752  0.356316  0.412409  1
  Si  Si376  1  0.186071  0.144200  0.163048  1
  Si  Si377  1  0.186079  0.855768  0.365741  1
  Si  Si378  1  0.186039  0.356315  0.412414  1
  Si  Si379  1  0.313799  0.143480  0.412625  1
  Si  Si380  1  0.313774  0.356325  0.163882  1
  Si  Si381  1  0.313760  0.644081  0.365523  1
  Si  Si382  1  0.686000  0.143485  0.412626  1
  Si  Si383  1  0.686043  0.644081  0.365521  1
  Si  Si384  1  0.686038  0.356327  0.163882  1
  Si  Si385  1  0.686047  0.918802  0.329835  1
  Si  Si386  1  0.686044  0.081169  0.198952  1
  Si  Si387  1  0.686439  0.420285  0.447067  1
  Si  Si388  1  0.313750  0.081162  0.198955  1
  Si  Si389  1  0.313747  0.918805  0.329834  1
  Si  Si390  1  0.313364  0.420285  0.447067  1
  Si  Si391  1  0.186424  0.079250  0.446937  1
  Si  Si392  1  0.186434  0.420267  0.198572  1
  Si  Si393  1  0.186121  0.580763  0.329971  1
  Si  Si394  1  0.813367  0.079253  0.446936  1
  Si  Si395  1  0.813673  0.580761  0.329971  1
  Si  Si396  1  0.813359  0.420270  0.198574  1
  Si  Si397  1  0.812374  0.917491  0.265245  1
  Si  Si398  1  0.812371  0.082462  0.263542  1
  Si  Si399  1  0.812408  0.417608  0.511674  1
  Si  Si400  1  0.187421  0.082465  0.263544  1
  Si  Si401  1  0.187418  0.917490  0.265245  1
  Si  Si402  1  0.187392  0.417608  0.511674  1
  Si  Si403  1  0.312350  0.081962  0.511519  1
  Si  Si404  1  0.312387  0.417768  0.263191  1
  Si  Si405  1  0.312324  0.582055  0.265400  1
  Si  Si406  1  0.687449  0.081960  0.511518  1
  Si  Si407  1  0.687456  0.582055  0.265401  1
  Si  Si408  1  0.687386  0.417769  0.263191  1
  Si  Si409  1  0.812492  0.050258  0.570159  1
  Si  Si410  1  0.187300  0.050255  0.570156  1
  Si  Si411  1  0.312603  0.448698  0.570488  1
  Si  Si412  1  0.687186  0.448699  0.570488  1
  Si  Si413  1  0.812497  0.149320  0.540405  1
  Si  Si414  1  0.187304  0.149323  0.540404  1
  Si  Si415  1  0.312582  0.350309  0.540648  1
  Si  Si416  1  0.687218  0.350308  0.540647  1
  Si  Si417  1  0.813543  0.512209  0.605523  1
  Si  Si418  1  0.186256  0.512209  0.605522  1
  Si  Si419  1  0.313894  0.988609  0.607333  1
  Si  Si420  1  0.685910  0.988609  0.607332  1
  Si  Si421  1  0.686772  0.118185  0.598867  1
  Si  Si422  1  0.313021  0.118181  0.598864  1
  Si  Si423  1  0.186727  0.380892  0.599391  1
  Si  Si424  1  0.813059  0.380892  0.599390  1
  Si  Si425  1  0.812940  0.787837  0.585907  1
  Si  Si426  1  0.186856  0.787840  0.585908  1
  Si  Si427  1  0.313168  0.712105  0.585564  1
  Si  Si428  1  0.686626  0.712102  0.585565  1
  Si  Si429  1  0.812351  0.712372  0.521092  1
  Si  Si430  1  0.187442  0.712372  0.521091  1
  Si  Si431  1  0.312333  0.787819  0.521404  1
  Si  Si432  1  0.687463  0.787819  0.521404  1
  Si  Si433  1  0.813763  0.644085  0.614037  1
  Si  Si434  1  0.186030  0.644087  0.614035  1
  Si  Si435  1  0.313797  0.856490  0.613210  1
  Si  Si436  1  0.685996  0.856487  0.613210  1
  Si  Si437  1  0.686134  0.580727  0.578547  1
  Si  Si438  1  0.313666  0.580729  0.578548  1
  Si  Si439  1  0.186420  0.920723  0.578908  1
  Si  Si440  1  0.813372  0.920722  0.578909  1
  Si  Si441  1  0.812339  0.582169  0.513983  1
  Si  Si442  1  0.187458  0.582170  0.513985  1
  Si  Si443  1  0.312354  0.917977  0.514328  1
  Si  Si444  1  0.687444  0.917977  0.514328  1
  H  H445  1  0.764964  0.000000  0.120135  1
  H  H446  1  0.764579  0.499635  0.120130  1
  H  H447  1  0.234833  0.000000  0.120135  1
  H  H448  1  0.235226  0.499636  0.120129  1
  H  H449  1  0.761263  0.131758  0.111415  1
  H  H450  1  0.763001  0.631577  0.128592  1
  H  H451  1  0.238481  0.131737  0.111414  1
  H  H452  1  0.236807  0.631577  0.128589  1
  H  H453  1  0.269167  0.868613  0.128247  1
  H  H454  1  0.268334  0.368476  0.111731  1
  H  H455  1  0.730634  0.868607  0.128247  1
  H  H456  1  0.731452  0.368483  0.111732  1
  H  H457  1  0.764964  -0.000000  0.657301  1
  H  H458  1  0.764579  0.499635  0.657296  1
  H  H459  1  0.234833  -0.000000  0.657301  1
  H  H460  1  0.235226  0.499636  0.657294  1
  H  H461  1  0.761263  0.131758  0.648581  1
  H  H462  1  0.763001  0.631577  0.665758  1
  H  H463  1  0.238481  0.131737  0.648580  1
  H  H464  1  0.236807  0.631577  0.665755  1
  H  H465  1  0.269167  0.868613  0.665413  1
  H  H466  1  0.268334  0.368476  0.648897  1
  H  H467  1  0.730634  0.868607  0.665413  1
  H  H468  1  0.731452  0.368483  0.648897  1
