# generated using pymatgen
data_Si16H2O33
_symmetry_space_group_name_H-M   'P 1'
_cell_length_a   9.73031253
_cell_length_b   14.04245113
_cell_length_c   49.82022561
_cell_angle_alpha   90.00000000
_cell_angle_beta   90.00000000
_cell_angle_gamma   90.00000000
_symmetry_Int_Tables_number   1
_chemical_formula_structural   Si16H2O33
_chemical_formula_sum   'Si64 H8 O132'
_cell_volume   6807.30799648
_cell_formula_units_Z   4
loop_
 _symmetry_equiv_pos_site_id
 _symmetry_equiv_pos_as_xyz
  1  'x, y, z'
loop_
 _atom_site_type_symbol
 _atom_site_label
 _atom_site_symmetry_multiplicity
 _atom_site_fract_x
 _atom_site_fract_y
 _atom_site_fract_z
 _atom_site_occupancy
  O  O1  1  -0.000000  0.041051  0.367179  1
  O  O2  1  0.499828  0.041084  0.226576  1
  O  O3  1  -0.000000  0.541084  0.150896  1
  O  O4  1  0.499896  0.541051  0.291497  1
  O  O5  1  -0.000000  0.958844  0.150898  1
  O  O6  1  0.499984  0.958862  0.291497  1
  O  O7  1  -0.000000  0.458862  0.367178  1
  O  O8  1  0.499925  0.458844  0.226573  1
  O  O9  1  0.822339  0.921414  0.352049  1
  O  O10  1  0.322235  0.921383  0.211469  1
  O  O11  1  0.177576  0.921370  0.352069  1
  O  O12  1  0.677474  0.921446  0.211454  1
  O  O13  1  0.822296  0.421446  0.166011  1
  O  O14  1  0.322286  0.421370  0.306613  1
  O  O15  1  0.177535  0.421383  0.166009  1
  O  O16  1  0.677524  0.421414  0.306620  1
  O  O17  1  0.177474  0.078490  0.166022  1
  O  O18  1  0.677575  0.078552  0.306611  1
  O  O19  1  0.822236  0.078537  0.166002  1
  O  O20  1  0.322340  0.078491  0.306625  1
  O  O21  1  0.177522  0.578491  0.352057  1
  O  O22  1  0.677535  0.578537  0.211463  1
  O  O23  1  0.822287  0.578552  0.352058  1
  O  O24  1  0.322296  0.578490  0.211457  1
  O  O25  1  0.807652  0.000000  0.118426  1
  O  O26  1  0.307651  -0.000000  0.259047  1
  O  O27  1  0.192160  -0.000000  0.118445  1
  O  O28  1  0.692161  0.000000  0.259028  1
  O  O29  1  0.807655  0.500024  0.118436  1
  O  O30  1  0.307656  0.499926  0.259034  1
  O  O31  1  0.192165  0.499942  0.118432  1
  O  O32  1  0.692164  0.499952  0.259038  1
  O  O33  1  0.750895  0.095346  0.355494  1
  O  O34  1  0.250702  0.095304  0.214909  1
  O  O35  1  0.249083  0.095295  0.355512  1
  O  O36  1  0.748891  0.095383  0.214884  1
  O  O37  1  0.750856  0.595379  0.162580  1
  O  O38  1  0.250802  0.595300  0.303172  1
  O  O39  1  0.249046  0.595309  0.162570  1
  O  O40  1  0.748990  0.595342  0.303173  1
  O  O41  1  0.248917  0.904558  0.162586  1
  O  O42  1  0.749110  0.904633  0.303160  1
  O  O43  1  0.750728  0.904611  0.162568  1
  O  O44  1  0.250919  0.904556  0.303186  1
  O  O45  1  0.248966  0.404560  0.355497  1
  O  O46  1  0.749020  0.404607  0.214896  1
  O  O47  1  0.750775  0.404628  0.355507  1
  O  O48  1  0.250831  0.404562  0.214894  1
  O  O49  1  0.812320  0.749984  0.330302  1
  O  O50  1  0.312274  0.749935  0.189719  1
  O  O51  1  0.187552  0.749930  0.330317  1
  O  O52  1  0.687492  0.749992  0.189718  1
  O  O53  1  0.812271  0.249992  0.187745  1
  O  O54  1  0.312317  0.249930  0.328366  1
  O  O55  1  0.187489  0.249935  0.187760  1
  O  O56  1  0.687549  0.249984  0.328366  1
  O  O57  1  -0.000000  0.868753  0.318775  1
  O  O58  1  0.499840  0.868758  0.178180  1
  O  O59  1  -0.000000  0.368758  0.199292  1
  O  O60  1  0.499892  0.368753  0.339901  1
  O  O61  1  -0.000000  0.131171  0.199293  1
  O  O62  1  0.499972  0.131162  0.339902  1
  O  O63  1  -0.000000  0.631162  0.318773  1
  O  O64  1  0.499928  0.631171  0.178179  1
  O  O65  1  0.000000  0.041051  0.648382  1
  O  O66  1  0.499828  0.041084  0.507780  1
  O  O67  1  0.000000  0.541084  0.432100  1
  O  O68  1  0.499896  0.541051  0.572701  1
  O  O69  1  0.000000  0.958844  0.432102  1
  O  O70  1  0.499984  0.958862  0.572701  1
  O  O71  1  0.000000  0.458862  0.648382  1
  O  O72  1  0.499925  0.458844  0.507777  1
  O  O73  1  0.822339  0.921414  0.633253  1
  O  O74  1  0.322235  0.921383  0.492673  1
  O  O75  1  0.177576  0.921370  0.633273  1
  O  O76  1  0.677474  0.921446  0.492658  1
  O  O77  1  0.822296  0.421446  0.447215  1
  O  O78  1  0.322286  0.421370  0.587817  1
  O  O79  1  0.177535  0.421383  0.447213  1
  O  O80  1  0.677524  0.421414  0.587823  1
  O  O81  1  0.177474  0.078490  0.447225  1
  O  O82  1  0.677575  0.078552  0.587814  1
  O  O83  1  0.822236  0.078537  0.447206  1
  O  O84  1  0.322340  0.078491  0.587829  1
  O  O85  1  0.177522  0.578491  0.633261  1
  O  O86  1  0.677535  0.578537  0.492667  1
  O  O87  1  0.822287  0.578552  0.633262  1
  O  O88  1  0.322296  0.578490  0.492661  1
  O  O89  1  0.807652  0.000000  0.399630  1
  O  O90  1  0.307651  0.000000  0.540251  1
  O  O91  1  0.192160  0.000000  0.399649  1
  O  O92  1  0.692161  -0.000000  0.540232  1
  O  O93  1  0.807655  0.500024  0.399640  1
  O  O94  1  0.307656  0.499926  0.540238  1
  O  O95  1  0.192165  0.499942  0.399636  1
  O  O96  1  0.692164  0.499952  0.540242  1
  O  O97  1  0.750895  0.095346  0.636698  1
  O  O98  1  0.250702  0.095304  0.496113  1
  O  O99  1  0.249083  0.095295  0.636716  1
  O  O100  1  0.748891  0.095383  0.496087  1
  O  O101  1  0.750856  0.595379  0.443784  1
  O  O102  1  0.250802  0.595300  0.584376  1
  O  O103  1  0.249046  0.595309  0.443774  1
  O  O104  1  0.748990  0.595342  0.584377  1
  O  O105  1  0.248917  0.904558  0.443789  1
  O  O106  1  0.749110  0.904633  0.584364  1
  O  O107  1  0.750728  0.904611  0.443771  1
  O  O108  1  0.250919  0.904556  0.584390  1
  O  O109  1  0.248966  0.404560  0.636701  1
  O  O110  1  0.749020  0.404607  0.496100  1
  O  O111  1  0.750775  0.404628  0.636711  1
  O  O112  1  0.250831  0.404562  0.496098  1
  O  O113  1  0.812320  0.749984  0.611506  1
  O  O114  1  0.312274  0.749935  0.470923  1
  O  O115  1  0.187552  0.749930  0.611521  1
  O  O116  1  0.687492  0.749992  0.470922  1
  O  O117  1  0.812271  0.249992  0.468949  1
  O  O118  1  0.312317  0.249930  0.609570  1
  O  O119  1  0.187489  0.249935  0.468964  1
  O  O120  1  0.687549  0.249984  0.609570  1
  O  O121  1  -0.000000  0.868753  0.599979  1
  O  O122  1  0.499840  0.868758  0.459384  1
  O  O123  1  -0.000000  0.368758  0.480496  1
  O  O124  1  0.499892  0.368753  0.621105  1
  O  O125  1  0.000000  0.131171  0.480497  1
  O  O126  1  0.499972  0.131162  0.621106  1
  O  O127  1  -0.000000  0.631162  0.599977  1
  O  O128  1  0.499928  0.631171  0.459382  1
  O  O129  1  0.807652  0.000000  0.680834  1
  O  O130  1  0.192160  0.000000  0.680853  1
  O  O131  1  0.807655  0.500024  0.680844  1
  O  O132  1  0.192165  0.499942  0.680840  1
  Si  Si133  1  0.841913  0.015768  0.369008  1
  Si  Si134  1  0.341792  0.015757  0.228420  1
  Si  Si135  1  0.158007  0.015739  0.369022  1
  Si  Si136  1  0.657887  0.015815  0.228406  1
  Si  Si137  1  0.841884  0.515817  0.149060  1
  Si  Si138  1  0.341854  0.515737  0.289659  1
  Si  Si139  1  0.157978  0.515755  0.149057  1
  Si  Si140  1  0.657948  0.515770  0.289662  1
  Si  Si141  1  0.157899  0.984126  0.149067  1
  Si  Si142  1  0.658020  0.984190  0.289654  1
  Si  Si143  1  0.841805  0.984157  0.149053  1
  Si  Si144  1  0.341925  0.984133  0.289669  1
  Si  Si145  1  0.157936  0.484131  0.369012  1
  Si  Si146  1  0.657966  0.484159  0.228413  1
  Si  Si147  1  0.841842  0.484192  0.369016  1
  Si  Si148  1  0.341872  0.484124  0.228410  1
  Si  Si149  1  0.842046  0.859565  0.325783  1
  Si  Si150  1  0.341920  0.859527  0.185203  1
  Si  Si151  1  0.157905  0.859521  0.325802  1
  Si  Si152  1  0.657779  0.859571  0.185193  1
  Si  Si153  1  0.841981  0.359571  0.192272  1
  Si  Si154  1  0.341968  0.359522  0.332880  1
  Si  Si155  1  0.157840  0.359527  0.192274  1
  Si  Si156  1  0.657827  0.359564  0.332885  1
  Si  Si157  1  0.157767  0.140356  0.192284  1
  Si  Si158  1  0.657893  0.140393  0.332879  1
  Si  Si159  1  0.841908  0.140402  0.192265  1
  Si  Si160  1  0.342034  0.140351  0.332889  1
  Si  Si161  1  0.157839  0.640351  0.325793  1
  Si  Si162  1  0.657852  0.640401  0.185199  1
  Si  Si163  1  0.841980  0.640393  0.325790  1
  Si  Si164  1  0.341993  0.640357  0.185194  1
  Si  Si165  1  0.841913  0.015768  0.650212  1
  Si  Si166  1  0.341792  0.015757  0.509624  1
  Si  Si167  1  0.158007  0.015739  0.650226  1
  Si  Si168  1  0.657887  0.015815  0.509609  1
  Si  Si169  1  0.841884  0.515817  0.430264  1
  Si  Si170  1  0.341854  0.515737  0.570863  1
  Si  Si171  1  0.157978  0.515755  0.430261  1
  Si  Si172  1  0.657948  0.515770  0.570866  1
  Si  Si173  1  0.157899  0.984126  0.430271  1
  Si  Si174  1  0.658020  0.984190  0.570858  1
  Si  Si175  1  0.841805  0.984157  0.430257  1
  Si  Si176  1  0.341925  0.984133  0.570873  1
  Si  Si177  1  0.157936  0.484131  0.650216  1
  Si  Si178  1  0.657966  0.484159  0.509616  1
  Si  Si179  1  0.841842  0.484192  0.650220  1
  Si  Si180  1  0.341872  0.484124  0.509614  1
  Si  Si181  1  0.842046  0.859565  0.606987  1
  Si  Si182  1  0.341920  0.859527  0.466407  1
  Si  Si183  1  0.157905  0.859521  0.607006  1
  Si  Si184  1  0.657779  0.859571  0.466397  1
  Si  Si185  1  0.841981  0.359571  0.473476  1
  Si  Si186  1  0.341968  0.359522  0.614084  1
  Si  Si187  1  0.157840  0.359527  0.473478  1
  Si  Si188  1  0.657827  0.359564  0.614089  1
  Si  Si189  1  0.157767  0.140356  0.473488  1
  Si  Si190  1  0.657893  0.140393  0.614083  1
  Si  Si191  1  0.841908  0.140402  0.473469  1
  Si  Si192  1  0.342034  0.140351  0.614093  1
  Si  Si193  1  0.157839  0.640351  0.606997  1
  Si  Si194  1  0.657852  0.640401  0.466403  1
  Si  Si195  1  0.841980  0.640393  0.606994  1
  Si  Si196  1  0.341993  0.640357  0.466398  1
  H  H197  1  0.807652  -0.000000  0.100361  1
  H  H198  1  0.192160  0.000000  0.100380  1
  H  H199  1  0.807655  0.500024  0.100371  1
  H  H200  1  0.192165  0.499942  0.100367  1
  H  H201  1  0.807652  -0.000000  0.698899  1
  H  H202  1  0.192160  0.000000  0.698917  1
  H  H203  1  0.807655  0.500024  0.698909  1
  H  H204  1  0.192165  0.499942  0.698905  1
