# generated using pymatgen
data_Si18H2O37
_symmetry_space_group_name_H-M   'P 1'
_cell_length_a   14.33040949
_cell_length_b   8.45279806
_cell_length_c   62.43255815
_cell_angle_alpha   90.00000000
_cell_angle_beta   90.00000000
_cell_angle_gamma   90.00000000
_symmetry_Int_Tables_number   1
_chemical_formula_structural   Si18H2O37
_chemical_formula_sum   'Si72 H8 O148'
_cell_volume   7562.58422558
_cell_formula_units_Z   4
loop_
 _symmetry_equiv_pos_site_id
 _symmetry_equiv_pos_as_xyz
  1  'x, y, z'
loop_
 _atom_site_type_symbol
 _atom_site_label
 _atom_site_symmetry_multiplicity
 _atom_site_fract_x
 _atom_site_fract_y
 _atom_site_fract_z
 _atom_site_occupancy
  O  O1  1  0.440654  0.721726  0.160712  1
  O  O2  1  0.057276  0.220088  0.161012  1
  O  O3  1  0.596296  0.604967  0.175001  1
  O  O4  1  0.902793  0.105934  0.175838  1
  O  O5  1  0.212235  0.995291  0.178554  1
  O  O6  1  0.286032  0.496051  0.178628  1
  O  O7  1  0.217231  0.191689  0.148571  1
  O  O8  1  0.276341  0.693365  0.148456  1
  O  O9  1  0.415410  0.765418  0.123988  1
  O  O10  1  0.084251  0.274266  0.123342  1
  O  O11  1  0.917617  0.272342  0.106386  1
  O  O12  1  0.530315  0.566248  0.135347  1
  O  O13  1  0.972361  0.071559  0.135862  1
  O  O14  1  0.030999  0.070606  0.094502  1
  O  O15  1  0.045387  0.932224  0.169681  1
  O  O16  1  0.450959  0.438419  0.168959  1
  O  O17  1  0.340820  0.974888  0.151417  1
  O  O18  1  0.156973  0.471581  0.152054  1
  O  O19  1  0.338689  0.211325  0.176883  1
  O  O20  1  0.159781  0.712756  0.177561  1
  O  O21  1  0.559447  0.721511  0.373938  1
  O  O22  1  0.940980  0.778090  0.221965  1
  O  O23  1  0.440654  0.721726  0.465443  1
  O  O24  1  0.056819  0.779517  0.312774  1
  O  O25  1  0.444403  0.279919  0.313310  1
  O  O26  1  0.057276  0.220088  0.465743  1
  O  O27  1  0.556913  0.276216  0.221251  1
  O  O28  1  0.945364  0.227813  0.373855  1
  O  O29  1  0.403455  0.608130  0.359768  1
  O  O30  1  0.096932  0.893313  0.207614  1
  O  O31  1  0.596296  0.604967  0.479733  1
  O  O32  1  0.901480  0.895789  0.327274  1
  O  O33  1  0.599238  0.392453  0.327828  1
  O  O34  1  0.902793  0.105934  0.480570  1
  O  O35  1  0.402866  0.391852  0.206561  1
  O  O36  1  0.095488  0.107752  0.359121  1
  O  O37  1  0.289795  0.497545  0.331386  1
  O  O38  1  0.212235  0.995291  0.483285  1
  O  O39  1  0.712846  0.501843  0.203667  1
  O  O40  1  0.783114  0.989928  0.355825  1
  O  O41  1  0.714819  0.495230  0.356359  1
  O  O42  1  0.784289  0.011299  0.204533  1
  O  O43  1  0.286032  0.496051  0.483360  1
  O  O44  1  0.214349  0.003684  0.331114  1
  O  O45  1  0.281115  0.305074  0.300510  1
  O  O46  1  0.217231  0.191689  0.453302  1
  O  O47  1  0.719484  0.298395  0.233045  1
  O  O48  1  0.782686  0.194482  0.385241  1
  O  O49  1  0.725012  0.700899  0.385931  1
  O  O50  1  0.776492  0.807219  0.234184  1
  O  O51  1  0.276341  0.693365  0.453188  1
  O  O52  1  0.220495  0.809893  0.300549  1
  O  O53  1  0.584357  0.765686  0.410698  1
  O  O54  1  0.916143  0.734441  0.258424  1
  O  O55  1  0.415410  0.765418  0.428719  1
  O  O56  1  0.086228  0.731242  0.275932  1
  O  O57  1  0.417015  0.226093  0.275949  1
  O  O58  1  0.084251  0.274266  0.428074  1
  O  O59  1  0.583309  0.224282  0.258877  1
  O  O60  1  0.917617  0.272342  0.411117  1
  O  O61  1  0.469805  0.566370  0.399360  1
  O  O62  1  0.033298  0.935576  0.247222  1
  O  O63  1  0.530315  0.566248  0.440079  1
  O  O64  1  0.970556  0.937052  0.287849  1
  O  O65  1  0.530457  0.426383  0.288058  1
  O  O66  1  0.972361  0.071559  0.440594  1
  O  O67  1  0.471718  0.425801  0.246492  1
  O  O68  1  0.030999  0.070606  0.399234  1
  O  O69  1  0.454071  0.561645  0.322104  1
  O  O70  1  0.045387  0.932224  0.474413  1
  O  O71  1  0.546016  0.564831  0.212919  1
  O  O72  1  0.949711  0.942553  0.365613  1
  O  O73  1  0.548677  0.437701  0.365645  1
  O  O74  1  0.952134  0.061290  0.213682  1
  O  O75  1  0.450959  0.438419  0.473691  1
  O  O76  1  0.049513  0.062657  0.321404  1
  O  O77  1  0.656650  0.978347  0.383326  1
  O  O78  1  0.840285  0.524496  0.231207  1
  O  O79  1  0.340820  0.974888  0.456149  1
  O  O80  1  0.162080  0.527957  0.304566  1
  O  O81  1  0.342353  0.027187  0.304765  1
  O  O82  1  0.156973  0.471581  0.456785  1
  O  O83  1  0.651672  0.019389  0.230891  1
  O  O84  1  0.843711  0.476182  0.382913  1
  O  O85  1  0.161157  0.288397  0.329785  1
  O  O86  1  0.338689  0.211325  0.481615  1
  O  O87  1  0.844346  0.294212  0.204853  1
  O  O88  1  0.657737  0.207500  0.356928  1
  O  O89  1  0.843280  0.709620  0.356525  1
  O  O90  1  0.660510  0.784854  0.204841  1
  O  O91  1  0.159781  0.712756  0.482292  1
  O  O92  1  0.338437  0.783626  0.329680  1
  O  O93  1  0.559447  0.721511  0.678670  1
  O  O94  1  0.940980  0.778090  0.526696  1
  O  O95  1  0.056819  0.779517  0.617506  1
  O  O96  1  0.444403  0.279919  0.618042  1
  O  O97  1  0.556913  0.276216  0.525982  1
  O  O98  1  0.945364  0.227813  0.678587  1
  O  O99  1  0.403455  0.608130  0.664499  1
  O  O100  1  0.096932  0.893313  0.512345  1
  O  O101  1  0.901480  0.895789  0.632006  1
  O  O102  1  0.599238  0.392453  0.632560  1
  O  O103  1  0.402866  0.391852  0.511293  1
  O  O104  1  0.095488  0.107752  0.663853  1
  O  O105  1  0.289795  0.497545  0.636117  1
  O  O106  1  0.712846  0.501843  0.508398  1
  O  O107  1  0.783114  0.989928  0.660557  1
  O  O108  1  0.714819  0.495230  0.661091  1
  O  O109  1  0.784289  0.011299  0.509265  1
  O  O110  1  0.214349  0.003684  0.635845  1
  O  O111  1  0.281115  0.305074  0.605242  1
  O  O112  1  0.719484  0.298395  0.537777  1
  O  O113  1  0.782686  0.194482  0.689973  1
  O  O114  1  0.725012  0.700899  0.690663  1
  O  O115  1  0.776492  0.807219  0.538916  1
  O  O116  1  0.220495  0.809893  0.605280  1
  O  O117  1  0.584357  0.765686  0.715429  1
  O  O118  1  0.916143  0.734441  0.563156  1
  O  O119  1  0.086228  0.731242  0.580663  1
  O  O120  1  0.417015  0.226093  0.580680  1
  O  O121  1  0.084251  0.274266  0.732805  1
  O  O122  1  0.583309  0.224282  0.563608  1
  O  O123  1  0.917617  0.272342  0.715849  1
  O  O124  1  0.469805  0.566370  0.704091  1
  O  O125  1  0.033298  0.935576  0.551954  1
  O  O126  1  0.970556  0.937052  0.592581  1
  O  O127  1  0.530457  0.426383  0.592790  1
  O  O128  1  0.972361  0.071559  0.745325  1
  O  O129  1  0.471718  0.425801  0.551223  1
  O  O130  1  0.030999  0.070606  0.703965  1
  O  O131  1  0.454071  0.561645  0.626836  1
  O  O132  1  0.546016  0.564831  0.517651  1
  O  O133  1  0.949711  0.942553  0.670345  1
  O  O134  1  0.548677  0.437701  0.670377  1
  O  O135  1  0.952134  0.061290  0.518413  1
  O  O136  1  0.049513  0.062657  0.626135  1
  O  O137  1  0.656650  0.978347  0.688058  1
  O  O138  1  0.840285  0.524496  0.535938  1
  O  O139  1  0.162080  0.527957  0.609298  1
  O  O140  1  0.342353  0.027187  0.609497  1
  O  O141  1  0.651672  0.019389  0.535622  1
  O  O142  1  0.843711  0.476182  0.687644  1
  O  O143  1  0.161157  0.288397  0.634517  1
  O  O144  1  0.844346  0.294212  0.509584  1
  O  O145  1  0.657737  0.207500  0.661660  1
  O  O146  1  0.843280  0.709620  0.661256  1
  O  O147  1  0.660510  0.784854  0.509573  1
  O  O148  1  0.338437  0.783626  0.634412  1
  Si  Si149  1  0.361307  0.802244  0.145999  1
  Si  Si150  1  0.130478  0.300713  0.145419  1
  Si  Si151  1  0.513355  0.576592  0.160062  1
  Si  Si152  1  0.987516  0.072024  0.161557  1
  Si  Si153  1  0.280013  0.091119  0.163762  1
  Si  Si154  1  0.219018  0.593696  0.164067  1
  Si  Si155  1  0.127138  0.883964  0.184089  1
  Si  Si156  1  0.368361  0.381063  0.183427  1
  Si  Si157  1  0.002120  0.171082  0.114505  1
  Si  Si158  1  0.637979  0.804331  0.388621  1
  Si  Si159  1  0.861280  0.697588  0.236431  1
  Si  Si160  1  0.361307  0.802244  0.450731  1
  Si  Si161  1  0.135358  0.701557  0.297851  1
  Si  Si162  1  0.367901  0.200803  0.298001  1
  Si  Si163  1  0.130478  0.300713  0.450151  1
  Si  Si164  1  0.630382  0.191023  0.236829  1
  Si  Si165  1  0.870847  0.302512  0.389068  1
  Si  Si166  1  0.486620  0.576789  0.374631  1
  Si  Si167  1  0.014582  0.921885  0.222717  1
  Si  Si168  1  0.513355  0.576592  0.464794  1
  Si  Si169  1  0.984967  0.925559  0.312562  1
  Si  Si170  1  0.515792  0.424320  0.313239  1
  Si  Si171  1  0.987516  0.072024  0.466288  1
  Si  Si172  1  0.487300  0.425620  0.220933  1
  Si  Si173  1  0.011917  0.081022  0.374752  1
  Si  Si174  1  0.222540  0.398864  0.316551  1
  Si  Si175  1  0.280013  0.091119  0.468494  1
  Si  Si176  1  0.782971  0.405553  0.218183  1
  Si  Si177  1  0.716538  0.094054  0.370341  1
  Si  Si178  1  0.782759  0.600876  0.370378  1
  Si  Si179  1  0.717095  0.907064  0.218802  1
  Si  Si180  1  0.219018  0.593696  0.468799  1
  Si  Si181  1  0.279631  0.902896  0.316523  1
  Si  Si182  1  0.370684  0.616061  0.336449  1
  Si  Si183  1  0.127138  0.883964  0.488821  1
  Si  Si184  1  0.627448  0.613476  0.198461  1
  Si  Si185  1  0.869282  0.879608  0.350558  1
  Si  Si186  1  0.632041  0.377596  0.351183  1
  Si  Si187  1  0.869327  0.123097  0.199093  1
  Si  Si188  1  0.368361  0.381063  0.488159  1
  Si  Si189  1  0.133018  0.120799  0.335747  1
  Si  Si190  1  0.004472  0.840393  0.267800  1
  Si  Si191  1  0.499914  0.661061  0.419750  1
  Si  Si192  1  0.002120  0.171082  0.419236  1
  Si  Si193  1  0.500555  0.326962  0.267419  1
  Si  Si194  1  0.637979  0.804331  0.693352  1
  Si  Si195  1  0.861280  0.697588  0.541163  1
  Si  Si196  1  0.135358  0.701557  0.602583  1
  Si  Si197  1  0.367901  0.200803  0.602733  1
  Si  Si198  1  0.630382  0.191023  0.541561  1
  Si  Si199  1  0.870847  0.302512  0.693799  1
  Si  Si200  1  0.486620  0.576789  0.679363  1
  Si  Si201  1  0.014582  0.921885  0.527448  1
  Si  Si202  1  0.984967  0.925559  0.617293  1
  Si  Si203  1  0.515792  0.424320  0.617971  1
  Si  Si204  1  0.487300  0.425620  0.525664  1
  Si  Si205  1  0.011917  0.081022  0.679483  1
  Si  Si206  1  0.222540  0.398864  0.621283  1
  Si  Si207  1  0.782971  0.405553  0.522915  1
  Si  Si208  1  0.716538  0.094054  0.675073  1
  Si  Si209  1  0.782759  0.600876  0.675110  1
  Si  Si210  1  0.717095  0.907064  0.523533  1
  Si  Si211  1  0.279631  0.902896  0.621255  1
  Si  Si212  1  0.370684  0.616061  0.641181  1
  Si  Si213  1  0.627448  0.613476  0.503193  1
  Si  Si214  1  0.869282  0.879608  0.655290  1
  Si  Si215  1  0.632041  0.377596  0.655914  1
  Si  Si216  1  0.869327  0.123097  0.503824  1
  Si  Si217  1  0.133018  0.120799  0.640479  1
  Si  Si218  1  0.004472  0.840393  0.572532  1
  Si  Si219  1  0.002120  0.171082  0.723968  1
  Si  Si220  1  0.500555  0.326962  0.572151  1
  H  H221  1  0.415410  0.765418  0.109572  1
  H  H222  1  0.917617  0.272342  0.091970  1
  H  H223  1  0.530315  0.566248  0.120932  1
  H  H224  1  0.030999  0.070606  0.080086  1
  H  H225  1  0.584357  0.765686  0.729845  1
  H  H226  1  0.084251  0.274266  0.747221  1
  H  H227  1  0.469805  0.566370  0.718507  1
  H  H228  1  0.972361  0.071559  0.759741  1
