# generated using pymatgen
data_Si7H2O15
_symmetry_space_group_name_H-M   'P 1'
_cell_length_a   11.40919207
_cell_length_b   26.79127551
_cell_length_c   48.04637997
_cell_angle_alpha   134.99934521
_cell_angle_beta   90.00000000
_cell_angle_gamma   90.00000000
_symmetry_Int_Tables_number   1
_chemical_formula_structural   Si7H2O15
_chemical_formula_sum   'Si56 H16 O120'
_cell_volume   10384.8186962
_cell_formula_units_Z   8
loop_
 _symmetry_equiv_pos_site_id
 _symmetry_equiv_pos_as_xyz
  1  'x, y, z'
loop_
 _atom_site_type_symbol
 _atom_site_label
 _atom_site_symmetry_multiplicity
 _atom_site_fract_x
 _atom_site_fract_y
 _atom_site_fract_z
 _atom_site_occupancy
  O  O1  1  -0.000000  0.937068  0.303136  1
  O  O2  1  0.814656  0.964219  0.286973  1
  O  O3  1  0.814655  0.868917  0.286969  1
  O  O4  1  0.185237  0.964211  0.286964  1
  O  O5  1  0.185238  0.868917  0.286966  1
  O  O6  1  0.499943  0.930571  0.298012  1
  O  O7  1  0.708418  0.921036  0.224899  1
  O  O8  1  0.708400  0.754674  0.224896  1
  O  O9  1  0.291500  0.921040  0.224896  1
  O  O10  1  0.291482  0.754676  0.224893  1
  O  O11  1  0.314644  0.368921  0.315254  1
  O  O12  1  0.685226  0.368914  0.315255  1
  O  O13  1  0.000000  0.105420  0.300514  1
  O  O14  1  0.790560  0.052157  0.282020  1
  O  O15  1  0.209343  0.052157  0.282016  1
  O  O16  1  0.613903  0.004447  0.291114  1
  O  O17  1  0.385991  0.004451  0.291117  1
  O  O18  1  0.208406  0.254675  0.287238  1
  O  O19  1  0.791486  0.254675  0.287240  1
  O  O20  1  -0.000000  0.233896  0.299269  1
  O  O21  1  0.160636  0.168925  0.299045  1
  O  O22  1  0.839264  0.168926  0.299048  1
  O  O23  1  0.790545  0.768413  0.282012  1
  O  O24  1  0.209329  0.768409  0.282007  1
  O  O25  1  0.613898  0.839202  0.291115  1
  O  O26  1  0.385988  0.839197  0.291111  1
  O  O27  1  0.160627  0.694827  0.299035  1
  O  O28  1  0.839253  0.694829  0.299040  1
  O  O29  1  -0.000000  0.762055  0.300505  1
  O  O30  1  0.314674  0.535967  0.315254  1
  O  O31  1  0.685258  0.535950  0.315256  1
  O  O32  1  0.290569  0.448018  0.240954  1
  O  O33  1  0.709350  0.448013  0.240956  1
  O  O34  1  0.113922  0.495720  0.287674  1
  O  O35  1  0.113891  0.339196  0.287673  1
  O  O36  1  0.886010  0.495724  0.287673  1
  O  O37  1  0.885980  0.339203  0.287676  1
  O  O38  1  -0.000000  0.437336  0.303347  1
  O  O39  1  0.208402  0.579133  0.287229  1
  O  O40  1  0.791485  0.579135  0.287235  1
  O  O41  1  0.000000  0.630425  0.299262  1
  O  O42  1  0.499958  0.394752  0.217449  1
  O  O43  1  0.499944  0.262055  0.217448  1
  O  O44  1  0.290549  0.268414  0.240955  1
  O  O45  1  0.709333  0.268409  0.240957  1
  O  O46  1  0.660633  0.194826  0.165902  1
  O  O47  1  0.339258  0.194831  0.165902  1
  O  O48  1  0.654775  0.329384  0.218224  1
  O  O49  1  0.345128  0.329388  0.218223  1
  O  O50  1  0.339273  0.331247  0.165902  1
  O  O51  1  0.660645  0.331243  0.165903  1
  O  O52  1  0.499963  0.738120  0.488211  1
  O  O53  1  0.339258  0.668928  0.539753  1
  O  O54  1  0.290573  0.731765  0.464701  1
  O  O55  1  0.709359  0.731758  0.464703  1
  O  O56  1  0.660648  0.805343  0.539758  1
  O  O57  1  0.339274  0.805348  0.539756  1
  O  O58  1  0.654777  0.670785  0.487436  1
  O  O59  1  0.345131  0.670790  0.487434  1
  O  O60  1  0.660630  0.668923  0.539756  1
  O  O61  1  0.499945  0.605420  0.488208  1
  O  O62  1  0.499935  0.437069  0.352828  1
  O  O63  1  0.314641  0.464223  0.390402  1
  O  O64  1  0.685222  0.464207  0.390404  1
  O  O65  1  0.290551  0.552160  0.464701  1
  O  O66  1  0.709335  0.552154  0.464703  1
  O  O67  1  0.113889  0.504448  0.417985  1
  O  O68  1  0.113922  0.660970  0.417982  1
  O  O69  1  0.885976  0.504451  0.417982  1
  O  O70  1  0.886010  0.660972  0.417983  1
  O  O71  1  -0.000000  0.562835  0.402310  1
  O  O72  1  0.000000  0.430571  0.352829  1
  O  O73  1  0.208415  0.421038  0.418423  1
  O  O74  1  0.791497  0.421038  0.418427  1
  O  O75  1  0.000000  0.369748  0.406396  1
  O  O76  1  0.163380  0.000000  0.352827  1
  O  O77  1  0.790571  0.231762  0.423651  1
  O  O78  1  0.209357  0.231761  0.423648  1
  O  O79  1  0.613921  0.160969  0.414545  1
  O  O80  1  0.386009  0.160974  0.414546  1
  O  O81  1  0.499957  0.062835  0.352830  1
  O  O82  1  0.148942  0.301589  0.352831  1
  O  O83  1  0.850963  0.301592  0.352834  1
  O  O84  1  0.160647  0.305345  0.406620  1
  O  O85  1  0.839273  0.305346  0.406623  1
  O  O86  1  0.154780  0.170787  0.352833  1
  O  O87  1  0.845134  0.170788  0.352836  1
  O  O88  1  0.000000  0.238120  0.405155  1
  O  O89  1  0.836532  -0.000000  0.352832  1
  O  O90  1  0.790562  0.948017  0.423644  1
  O  O91  1  0.209344  0.948015  0.423640  1
  O  O92  1  0.613920  0.995720  0.414540  1
  O  O93  1  0.386007  0.995725  0.414547  1
  O  O94  1  0.499938  0.937336  0.352829  1
  O  O95  1  0.208417  0.745496  0.418417  1
  O  O96  1  0.791497  0.745496  0.418421  1
  O  O97  1  0.148938  0.698579  0.352823  1
  O  O98  1  0.850959  0.698583  0.352828  1
  O  O99  1  0.000000  0.766275  0.406389  1
  O  O100  1  0.160639  0.831244  0.406610  1
  O  O101  1  0.839268  0.831247  0.406615  1
  O  O102  1  0.154769  0.829386  0.352823  1
  O  O103  1  0.845122  0.829387  0.352827  1
  O  O104  1  -0.000000  0.894752  0.405145  1
  O  O105  1  0.336525  0.500087  0.352824  1
  O  O106  1  0.663373  0.500084  0.352832  1
  O  O107  1  0.499963  0.563102  0.352828  1
  O  O108  1  0.314675  0.631257  0.390403  1
  O  O109  1  0.685254  0.631251  0.390405  1
  O  O110  1  -0.000000  0.569600  0.352828  1
  O  O111  1  0.000000  0.063102  0.402523  1
  O  O112  1  0.814674  0.035962  0.418696  1
  O  O113  1  0.814675  0.131254  0.418691  1
  O  O114  1  0.185258  0.035954  0.418687  1
  O  O115  1  0.185253  0.131253  0.418688  1
  O  O116  1  0.499957  0.069600  0.407647  1
  O  O117  1  0.708405  0.079133  0.480762  1
  O  O118  1  0.708421  0.245493  0.480763  1
  O  O119  1  0.291487  0.079136  0.480761  1
  O  O120  1  0.291499  0.245497  0.480762  1
  Si  Si121  1  0.735044  0.985827  0.270421  1
  Si  Si122  1  0.735034  0.805335  0.270418  1
  Si  Si123  1  0.264859  0.985826  0.270418  1
  Si  Si124  1  0.264851  0.805333  0.270414  1
  Si  Si125  1  0.864318  0.942441  0.307375  1
  Si  Si126  1  0.135580  0.942441  0.307371  1
  Si  Si127  1  0.499941  0.884694  0.307330  1
  Si  Si128  1  0.235032  0.305335  0.281665  1
  Si  Si129  1  0.764848  0.305333  0.281667  1
  Si  Si130  1  0.135116  0.236592  0.307289  1
  Si  Si131  1  0.864781  0.236592  0.307291  1
  Si  Si132  1  0.135350  0.122179  0.307392  1
  Si  Si133  1  0.864555  0.122179  0.307394  1
  Si  Si134  1  0.499948  0.000000  0.307332  1
  Si  Si135  1  0.135337  0.762742  0.307382  1
  Si  Si136  1  0.864542  0.762743  0.307385  1
  Si  Si137  1  0.235050  0.514348  0.281662  1
  Si  Si138  1  0.764865  0.514343  0.281664  1
  Si  Si139  1  0.135110  0.648070  0.307280  1
  Si  Si140  1  0.864775  0.648072  0.307284  1
  Si  Si141  1  0.635355  0.377992  0.211113  1
  Si  Si142  1  0.364560  0.377995  0.211112  1
  Si  Si143  1  0.000000  0.500088  0.307333  1
  Si  Si144  1  0.000000  0.384694  0.307333  1
  Si  Si145  1  0.635343  0.262741  0.211112  1
  Si  Si146  1  0.364548  0.262745  0.211112  1
  Si  Si147  1  0.635359  0.737429  0.494548  1
  Si  Si148  1  0.364564  0.737434  0.494547  1
  Si  Si149  1  0.235035  0.485830  0.423994  1
  Si  Si150  1  0.764850  0.485824  0.423994  1
  Si  Si151  1  0.135125  0.352102  0.398375  1
  Si  Si152  1  0.864789  0.352102  0.398377  1
  Si  Si153  1  0.635343  0.622177  0.494546  1
  Si  Si154  1  0.364549  0.622181  0.494544  1
  Si  Si155  1  0.364306  0.442445  0.352827  1
  Si  Si156  1  0.635567  0.442438  0.352830  1
  Si  Si157  1  0.000000  0.500084  0.398324  1
  Si  Si158  1  0.135359  0.237431  0.398274  1
  Si  Si159  1  0.864563  0.237432  0.398277  1
  Si  Si160  1  0.499962  0.115477  0.398328  1
  Si  Si161  1  0.235055  0.694839  0.423991  1
  Si  Si162  1  0.764870  0.694835  0.423993  1
  Si  Si163  1  0.135122  0.763579  0.398366  1
  Si  Si164  1  0.864786  0.763580  0.398369  1
  Si  Si165  1  0.135349  0.877993  0.398265  1
  Si  Si166  1  0.864554  0.877994  0.398268  1
  Si  Si167  1  0.364331  0.557733  0.352827  1
  Si  Si168  1  0.635592  0.557727  0.352830  1
  Si  Si169  1  -0.000000  0.615477  0.398324  1
  Si  Si170  1  0.735049  0.014346  0.435240  1
  Si  Si171  1  0.735055  0.194836  0.435242  1
  Si  Si172  1  0.264863  0.014345  0.435239  1
  Si  Si173  1  0.264870  0.194837  0.435240  1
  Si  Si174  1  0.864333  0.057730  0.398288  1
  Si  Si175  1  0.135594  0.057729  0.398284  1
  Si  Si176  1  0.499957  0.000000  0.398327  1
  H  H177  1  0.708418  0.921036  0.206167  1
  H  H178  1  0.708400  0.754674  0.206164  1
  H  H179  1  0.291500  0.921040  0.206164  1
  H  H180  1  0.291482  0.754676  0.206161  1
  H  H181  1  0.660633  0.194826  0.147170  1
  H  H182  1  0.339258  0.194831  0.147170  1
  H  H183  1  0.339273  0.331247  0.147170  1
  H  H184  1  0.660645  0.331243  0.147171  1
  H  H185  1  0.339258  0.668928  0.558485  1
  H  H186  1  0.660648  0.805343  0.558490  1
  H  H187  1  0.339274  0.805348  0.558488  1
  H  H188  1  0.660630  0.668923  0.558488  1
  H  H189  1  0.708405  0.079133  0.499494  1
  H  H190  1  0.708421  0.245493  0.499495  1
  H  H191  1  0.291487  0.079136  0.499493  1
  H  H192  1  0.291499  0.245497  0.499494  1
