# generated using pymatgen
data_Si24H2O49
_symmetry_space_group_name_H-M   'P 1'
_cell_length_a   9.73031253
_cell_length_b   14.04245113
_cell_length_c   63.82986909
_cell_angle_alpha   90.00000000
_cell_angle_beta   90.00000000
_cell_angle_gamma   90.00000000
_symmetry_Int_Tables_number   1
_chemical_formula_structural   Si24H2O49
_chemical_formula_sum   'Si96 H8 O196'
_cell_volume   8721.54979143
_cell_formula_units_Z   4
loop_
 _symmetry_equiv_pos_site_id
 _symmetry_equiv_pos_as_xyz
  1  'x, y, z'
loop_
 _atom_site_type_symbol
 _atom_site_label
 _atom_site_symmetry_multiplicity
 _atom_site_fract_x
 _atom_site_fract_y
 _atom_site_fract_z
 _atom_site_occupancy
  O  O1  1  0.000000  0.041051  0.286589  1
  O  O2  1  0.499828  0.041084  0.176846  1
  O  O3  1  -0.000000  0.541084  0.117777  1
  O  O4  1  0.499896  0.541051  0.227518  1
  O  O5  1  -0.000000  0.958844  0.117778  1
  O  O6  1  0.499984  0.958862  0.227518  1
  O  O7  1  -0.000000  0.458862  0.286588  1
  O  O8  1  0.499925  0.458844  0.176844  1
  O  O9  1  0.822339  0.921414  0.274780  1
  O  O10  1  0.322235  0.921383  0.165055  1
  O  O11  1  0.177576  0.921370  0.274795  1
  O  O12  1  0.677474  0.921446  0.165043  1
  O  O13  1  0.822296  0.421446  0.129574  1
  O  O14  1  0.322286  0.421370  0.239317  1
  O  O15  1  0.177535  0.421383  0.129573  1
  O  O16  1  0.677524  0.421414  0.239321  1
  O  O17  1  0.177474  0.078490  0.129582  1
  O  O18  1  0.677575  0.078552  0.239314  1
  O  O19  1  0.822236  0.078537  0.129567  1
  O  O20  1  0.322340  0.078491  0.239326  1
  O  O21  1  0.177522  0.578491  0.274786  1
  O  O22  1  0.677535  0.578537  0.165050  1
  O  O23  1  0.822287  0.578552  0.274787  1
  O  O24  1  0.322296  0.578490  0.165045  1
  O  O25  1  0.807652  0.000000  0.092433  1
  O  O26  1  0.307651  0.000000  0.202190  1
  O  O27  1  0.192160  0.000000  0.092448  1
  O  O28  1  0.692161  0.000000  0.202175  1
  O  O29  1  0.807655  0.500024  0.092441  1
  O  O30  1  0.307656  0.499926  0.202180  1
  O  O31  1  0.192165  0.499942  0.092438  1
  O  O32  1  0.692164  0.499952  0.202183  1
  O  O33  1  0.750895  0.095346  0.277469  1
  O  O34  1  0.250702  0.095304  0.167740  1
  O  O35  1  0.249083  0.095295  0.277483  1
  O  O36  1  0.748891  0.095383  0.167720  1
  O  O37  1  0.750856  0.595379  0.126896  1
  O  O38  1  0.250802  0.595300  0.236630  1
  O  O39  1  0.249046  0.595309  0.126888  1
  O  O40  1  0.748990  0.595342  0.236632  1
  O  O41  1  0.248917  0.904558  0.126901  1
  O  O42  1  0.749110  0.904633  0.236621  1
  O  O43  1  0.750728  0.904611  0.126887  1
  O  O44  1  0.250919  0.904556  0.236642  1
  O  O45  1  0.248966  0.404560  0.277471  1
  O  O46  1  0.749020  0.404607  0.167729  1
  O  O47  1  0.750775  0.404628  0.277479  1
  O  O48  1  0.250831  0.404562  0.167728  1
  O  O49  1  0.812320  0.749984  0.257806  1
  O  O50  1  0.312274  0.749935  0.148079  1
  O  O51  1  0.187552  0.749930  0.257817  1
  O  O52  1  0.687492  0.749992  0.148078  1
  O  O53  1  0.812271  0.249992  0.146538  1
  O  O54  1  0.312317  0.249930  0.256295  1
  O  O55  1  0.187489  0.249935  0.146550  1
  O  O56  1  0.687549  0.249984  0.256295  1
  O  O57  1  -0.000000  0.868753  0.248809  1
  O  O58  1  0.499840  0.868758  0.139072  1
  O  O59  1  -0.000000  0.368758  0.155550  1
  O  O60  1  0.499892  0.368753  0.265298  1
  O  O61  1  -0.000000  0.131171  0.155551  1
  O  O62  1  0.499972  0.131162  0.265299  1
  O  O63  1  -0.000000  0.631162  0.248808  1
  O  O64  1  0.499928  0.631171  0.139071  1
  O  O65  1  0.000000  0.041051  0.506073  1
  O  O66  1  0.499828  0.041084  0.396330  1
  O  O67  1  0.000000  0.541084  0.337261  1
  O  O68  1  0.499896  0.541051  0.447002  1
  O  O69  1  -0.000000  0.958844  0.337262  1
  O  O70  1  0.499984  0.958862  0.447002  1
  O  O71  1  0.000000  0.458862  0.506072  1
  O  O72  1  0.499925  0.458844  0.396328  1
  O  O73  1  0.822339  0.921414  0.494264  1
  O  O74  1  0.322235  0.921383  0.384539  1
  O  O75  1  0.177576  0.921370  0.494279  1
  O  O76  1  0.677474  0.921446  0.384527  1
  O  O77  1  0.822296  0.421446  0.349058  1
  O  O78  1  0.322286  0.421370  0.458801  1
  O  O79  1  0.177535  0.421383  0.349057  1
  O  O80  1  0.677524  0.421414  0.458806  1
  O  O81  1  0.177474  0.078490  0.349067  1
  O  O82  1  0.677575  0.078552  0.458799  1
  O  O83  1  0.822236  0.078537  0.349051  1
  O  O84  1  0.322340  0.078491  0.458810  1
  O  O85  1  0.177522  0.578491  0.494270  1
  O  O86  1  0.677535  0.578537  0.384534  1
  O  O87  1  0.822287  0.578552  0.494271  1
  O  O88  1  0.322296  0.578490  0.384530  1
  O  O89  1  0.807652  0.000000  0.311917  1
  O  O90  1  0.307651  0.000000  0.421675  1
  O  O91  1  0.192160  0.000000  0.311932  1
  O  O92  1  0.692161  0.000000  0.421659  1
  O  O93  1  0.807655  0.500024  0.311925  1
  O  O94  1  0.307656  0.499926  0.421664  1
  O  O95  1  0.192165  0.499942  0.311922  1
  O  O96  1  0.692164  0.499952  0.421668  1
  O  O97  1  0.750895  0.095346  0.496953  1
  O  O98  1  0.250702  0.095304  0.387224  1
  O  O99  1  0.249083  0.095295  0.496967  1
  O  O100  1  0.748891  0.095383  0.387204  1
  O  O101  1  0.750856  0.595379  0.346380  1
  O  O102  1  0.250802  0.595300  0.456114  1
  O  O103  1  0.249046  0.595309  0.346373  1
  O  O104  1  0.748990  0.595342  0.456116  1
  O  O105  1  0.248917  0.904558  0.346385  1
  O  O106  1  0.749110  0.904633  0.456105  1
  O  O107  1  0.750728  0.904611  0.346371  1
  O  O108  1  0.250919  0.904556  0.456126  1
  O  O109  1  0.248966  0.404560  0.496955  1
  O  O110  1  0.749020  0.404607  0.387214  1
  O  O111  1  0.750775  0.404628  0.496963  1
  O  O112  1  0.250831  0.404562  0.387212  1
  O  O113  1  0.812320  0.749984  0.477290  1
  O  O114  1  0.312274  0.749935  0.367563  1
  O  O115  1  0.187552  0.749930  0.477301  1
  O  O116  1  0.687492  0.749992  0.367562  1
  O  O117  1  0.812271  0.249992  0.366022  1
  O  O118  1  0.312317  0.249930  0.475779  1
  O  O119  1  0.187489  0.249935  0.366034  1
  O  O120  1  0.687549  0.249984  0.475779  1
  O  O121  1  -0.000000  0.868753  0.468293  1
  O  O122  1  0.499840  0.868758  0.358556  1
  O  O123  1  -0.000000  0.368758  0.375034  1
  O  O124  1  0.499892  0.368753  0.484782  1
  O  O125  1  -0.000000  0.131171  0.375035  1
  O  O126  1  0.499972  0.131162  0.484783  1
  O  O127  1  -0.000000  0.631162  0.468292  1
  O  O128  1  0.499928  0.631171  0.358555  1
  O  O129  1  0.000000  0.041051  0.725557  1
  O  O130  1  0.499828  0.041084  0.615814  1
  O  O131  1  0.000000  0.541084  0.556745  1
  O  O132  1  0.499896  0.541051  0.666486  1
  O  O133  1  -0.000000  0.958844  0.556746  1
  O  O134  1  0.499984  0.958862  0.666487  1
  O  O135  1  0.000000  0.458862  0.725556  1
  O  O136  1  0.499925  0.458844  0.615812  1
  O  O137  1  0.822339  0.921414  0.713748  1
  O  O138  1  0.322235  0.921383  0.604023  1
  O  O139  1  0.177576  0.921370  0.713763  1
  O  O140  1  0.677474  0.921446  0.604011  1
  O  O141  1  0.822296  0.421446  0.568542  1
  O  O142  1  0.322286  0.421370  0.678285  1
  O  O143  1  0.177535  0.421383  0.568541  1
  O  O144  1  0.677524  0.421414  0.678290  1
  O  O145  1  0.177474  0.078490  0.568551  1
  O  O146  1  0.677575  0.078552  0.678283  1
  O  O147  1  0.822236  0.078537  0.568535  1
  O  O148  1  0.322340  0.078491  0.678294  1
  O  O149  1  0.177522  0.578491  0.713754  1
  O  O150  1  0.677535  0.578537  0.604018  1
  O  O151  1  0.822287  0.578552  0.713755  1
  O  O152  1  0.322296  0.578490  0.604014  1
  O  O153  1  0.807652  0.000000  0.531401  1
  O  O154  1  0.307651  0.000000  0.641159  1
  O  O155  1  0.192160  0.000000  0.531416  1
  O  O156  1  0.692161  0.000000  0.641144  1
  O  O157  1  0.807655  0.500024  0.531409  1
  O  O158  1  0.307656  0.499926  0.641149  1
  O  O159  1  0.192165  0.499942  0.531406  1
  O  O160  1  0.692164  0.499952  0.641152  1
  O  O161  1  0.750895  0.095346  0.716437  1
  O  O162  1  0.250702  0.095304  0.606708  1
  O  O163  1  0.249083  0.095295  0.716451  1
  O  O164  1  0.748891  0.095383  0.606688  1
  O  O165  1  0.750856  0.595379  0.565864  1
  O  O166  1  0.250802  0.595300  0.675599  1
  O  O167  1  0.249046  0.595309  0.565857  1
  O  O168  1  0.748990  0.595342  0.675600  1
  O  O169  1  0.248917  0.904558  0.565869  1
  O  O170  1  0.749110  0.904633  0.675590  1
  O  O171  1  0.750728  0.904611  0.565855  1
  O  O172  1  0.250919  0.904556  0.675610  1
  O  O173  1  0.248966  0.404560  0.716440  1
  O  O174  1  0.749020  0.404607  0.606698  1
  O  O175  1  0.750775  0.404628  0.716447  1
  O  O176  1  0.250831  0.404562  0.606696  1
  O  O177  1  0.812320  0.749984  0.696774  1
  O  O178  1  0.312274  0.749935  0.587047  1
  O  O179  1  0.187552  0.749930  0.696786  1
  O  O180  1  0.687492  0.749992  0.587046  1
  O  O181  1  0.812271  0.249992  0.585506  1
  O  O182  1  0.312317  0.249930  0.695264  1
  O  O183  1  0.187489  0.249935  0.585518  1
  O  O184  1  0.687549  0.249984  0.695263  1
  O  O185  1  0.000000  0.868753  0.687777  1
  O  O186  1  0.499840  0.868758  0.578041  1
  O  O187  1  0.000000  0.368758  0.594519  1
  O  O188  1  0.499892  0.368753  0.704266  1
  O  O189  1  -0.000000  0.131171  0.594520  1
  O  O190  1  0.499972  0.131162  0.704267  1
  O  O191  1  -0.000000  0.631162  0.687776  1
  O  O192  1  0.499928  0.631171  0.578039  1
  O  O193  1  0.807652  0.000000  0.750886  1
  O  O194  1  0.192160  0.000000  0.750900  1
  O  O195  1  0.807655  0.500024  0.750894  1
  O  O196  1  0.192165  0.499942  0.750890  1
  Si  Si197  1  0.841913  0.015768  0.288016  1
  Si  Si198  1  0.341792  0.015757  0.178286  1
  Si  Si199  1  0.158007  0.015739  0.288028  1
  Si  Si200  1  0.657887  0.015815  0.178274  1
  Si  Si201  1  0.841884  0.515817  0.116344  1
  Si  Si202  1  0.341854  0.515737  0.226083  1
  Si  Si203  1  0.157978  0.515755  0.116341  1
  Si  Si204  1  0.657948  0.515770  0.226086  1
  Si  Si205  1  0.157899  0.984126  0.116349  1
  Si  Si206  1  0.658020  0.984190  0.226080  1
  Si  Si207  1  0.841805  0.984157  0.116338  1
  Si  Si208  1  0.341925  0.984133  0.226091  1
  Si  Si209  1  0.157936  0.484131  0.288020  1
  Si  Si210  1  0.657966  0.484159  0.178280  1
  Si  Si211  1  0.841842  0.484192  0.288023  1
  Si  Si212  1  0.341872  0.484124  0.178278  1
  Si  Si213  1  0.842046  0.859565  0.254279  1
  Si  Si214  1  0.341920  0.859527  0.144554  1
  Si  Si215  1  0.157905  0.859521  0.254293  1
  Si  Si216  1  0.657779  0.859571  0.144546  1
  Si  Si217  1  0.841981  0.359571  0.150071  1
  Si  Si218  1  0.341968  0.359522  0.259818  1
  Si  Si219  1  0.157840  0.359527  0.150073  1
  Si  Si220  1  0.657827  0.359564  0.259822  1
  Si  Si221  1  0.157767  0.140356  0.150081  1
  Si  Si222  1  0.657893  0.140393  0.259817  1
  Si  Si223  1  0.841908  0.140402  0.150066  1
  Si  Si224  1  0.342034  0.140351  0.259825  1
  Si  Si225  1  0.157839  0.640351  0.254286  1
  Si  Si226  1  0.657852  0.640401  0.144551  1
  Si  Si227  1  0.841980  0.640393  0.254284  1
  Si  Si228  1  0.341993  0.640357  0.144547  1
  Si  Si229  1  0.841913  0.015768  0.507501  1
  Si  Si230  1  0.341792  0.015757  0.397770  1
  Si  Si231  1  0.158007  0.015739  0.507512  1
  Si  Si232  1  0.657887  0.015815  0.397758  1
  Si  Si233  1  0.841884  0.515817  0.335828  1
  Si  Si234  1  0.341854  0.515737  0.445568  1
  Si  Si235  1  0.157978  0.515755  0.335825  1
  Si  Si236  1  0.657948  0.515770  0.445570  1
  Si  Si237  1  0.157899  0.984126  0.335833  1
  Si  Si238  1  0.658020  0.984190  0.445564  1
  Si  Si239  1  0.841805  0.984157  0.335822  1
  Si  Si240  1  0.341925  0.984133  0.445575  1
  Si  Si241  1  0.157936  0.484131  0.507504  1
  Si  Si242  1  0.657966  0.484159  0.397764  1
  Si  Si243  1  0.841842  0.484192  0.507507  1
  Si  Si244  1  0.341872  0.484124  0.397762  1
  Si  Si245  1  0.842046  0.859565  0.473763  1
  Si  Si246  1  0.341920  0.859527  0.364038  1
  Si  Si247  1  0.157905  0.859521  0.473777  1
  Si  Si248  1  0.657779  0.859571  0.364030  1
  Si  Si249  1  0.841981  0.359571  0.369555  1
  Si  Si250  1  0.341968  0.359522  0.479303  1
  Si  Si251  1  0.157840  0.359527  0.369557  1
  Si  Si252  1  0.657827  0.359564  0.479306  1
  Si  Si253  1  0.157767  0.140356  0.369565  1
  Si  Si254  1  0.657893  0.140393  0.479301  1
  Si  Si255  1  0.841908  0.140402  0.369550  1
  Si  Si256  1  0.342034  0.140351  0.479310  1
  Si  Si257  1  0.157839  0.640351  0.473770  1
  Si  Si258  1  0.657852  0.640401  0.364035  1
  Si  Si259  1  0.841980  0.640393  0.473768  1
  Si  Si260  1  0.341993  0.640357  0.364031  1
  Si  Si261  1  0.841913  0.015768  0.726985  1
  Si  Si262  1  0.341792  0.015757  0.617254  1
  Si  Si263  1  0.158007  0.015739  0.726996  1
  Si  Si264  1  0.657887  0.015815  0.617242  1
  Si  Si265  1  0.841884  0.515817  0.555312  1
  Si  Si266  1  0.341854  0.515737  0.665052  1
  Si  Si267  1  0.157978  0.515755  0.555309  1
  Si  Si268  1  0.657948  0.515770  0.665054  1
  Si  Si269  1  0.157899  0.984126  0.555318  1
  Si  Si270  1  0.658020  0.984190  0.665048  1
  Si  Si271  1  0.841805  0.984157  0.555307  1
  Si  Si272  1  0.341925  0.984133  0.665059  1
  Si  Si273  1  0.157936  0.484131  0.726988  1
  Si  Si274  1  0.657966  0.484159  0.617248  1
  Si  Si275  1  0.841842  0.484192  0.726991  1
  Si  Si276  1  0.341872  0.484124  0.617246  1
  Si  Si277  1  0.842046  0.859565  0.693247  1
  Si  Si278  1  0.341920  0.859527  0.583522  1
  Si  Si279  1  0.157905  0.859521  0.693262  1
  Si  Si280  1  0.657779  0.859571  0.583514  1
  Si  Si281  1  0.841981  0.359571  0.589040  1
  Si  Si282  1  0.341968  0.359522  0.698787  1
  Si  Si283  1  0.157840  0.359527  0.589042  1
  Si  Si284  1  0.657827  0.359564  0.698791  1
  Si  Si285  1  0.157767  0.140356  0.589049  1
  Si  Si286  1  0.657893  0.140393  0.698785  1
  Si  Si287  1  0.841908  0.140402  0.589035  1
  Si  Si288  1  0.342034  0.140351  0.698794  1
  Si  Si289  1  0.157839  0.640351  0.693255  1
  Si  Si290  1  0.657852  0.640401  0.583519  1
  Si  Si291  1  0.841980  0.640393  0.693253  1
  Si  Si292  1  0.341993  0.640357  0.583515  1
  H  H293  1  0.807652  0.000000  0.078333  1
  H  H294  1  0.192160  -0.000000  0.078348  1
  H  H295  1  0.807655  0.500024  0.078341  1
  H  H296  1  0.192165  0.499942  0.078338  1
  H  H297  1  0.807652  0.000000  0.764986  1
  H  H298  1  0.192160  0.000000  0.765000  1
  H  H299  1  0.807655  0.500024  0.764993  1
  H  H300  1  0.192165  0.499942  0.764990  1
