# generated using pymatgen
data_Si23H2O47
_symmetry_space_group_name_H-M   'P 1'
_cell_length_a   14.33040949
_cell_length_b   8.45279806
_cell_length_c   71.96862207
_cell_angle_alpha   90.00000000
_cell_angle_beta   90.00000000
_cell_angle_gamma   90.00000000
_symmetry_Int_Tables_number   1
_chemical_formula_structural   Si23H2O47
_chemical_formula_sum   'Si92 H8 O188'
_cell_volume   8717.70726893
_cell_formula_units_Z   4
loop_
 _symmetry_equiv_pos_site_id
 _symmetry_equiv_pos_as_xyz
  1  'x, y, z'
loop_
 _atom_site_type_symbol
 _atom_site_label
 _atom_site_symmetry_multiplicity
 _atom_site_fract_x
 _atom_site_fract_y
 _atom_site_fract_z
 _atom_site_occupancy
  O  O1  1  0.559447  0.721511  0.192540  1
  O  O2  1  0.440654  0.721726  0.271920  1
  O  O3  1  0.056819  0.779517  0.139480  1
  O  O4  1  0.444403  0.279919  0.139945  1
  O  O5  1  0.057276  0.220088  0.272180  1
  O  O6  1  0.945364  0.227813  0.192467  1
  O  O7  1  0.403455  0.608130  0.180247  1
  O  O8  1  0.596296  0.604967  0.284316  1
  O  O9  1  0.901480  0.895789  0.152058  1
  O  O10  1  0.599238  0.392453  0.152539  1
  O  O11  1  0.902793  0.105934  0.285042  1
  O  O12  1  0.095488  0.107752  0.179686  1
  O  O13  1  0.289795  0.497545  0.155625  1
  O  O14  1  0.212235  0.995291  0.287398  1
  O  O15  1  0.783114  0.989928  0.176827  1
  O  O16  1  0.714819  0.495230  0.177290  1
  O  O17  1  0.286032  0.496051  0.287462  1
  O  O18  1  0.214349  0.003684  0.155390  1
  O  O19  1  0.281115  0.305074  0.128841  1
  O  O20  1  0.217231  0.191689  0.261388  1
  O  O21  1  0.782686  0.194482  0.202345  1
  O  O22  1  0.725012  0.700899  0.202944  1
  O  O23  1  0.276341  0.693365  0.261288  1
  O  O24  1  0.220495  0.809893  0.128874  1
  O  O25  1  0.584357  0.765686  0.224428  1
  O  O26  1  0.916143  0.734441  0.092332  1
  O  O27  1  0.415410  0.765418  0.240062  1
  O  O28  1  0.086228  0.731242  0.107519  1
  O  O29  1  0.417015  0.226093  0.107534  1
  O  O30  1  0.084251  0.274266  0.239502  1
  O  O31  1  0.583309  0.224282  0.092724  1
  O  O32  1  0.917617  0.272342  0.224792  1
  O  O33  1  0.469805  0.566370  0.214593  1
  O  O34  1  0.033298  0.935576  0.082614  1
  O  O35  1  0.530315  0.566248  0.249916  1
  O  O36  1  0.970556  0.937052  0.117857  1
  O  O37  1  0.530457  0.426383  0.118039  1
  O  O38  1  0.972361  0.071559  0.250363  1
  O  O39  1  0.471718  0.425801  0.081980  1
  O  O40  1  0.030999  0.070606  0.214483  1
  O  O41  1  0.454071  0.561645  0.147574  1
  O  O42  1  0.045387  0.932224  0.279701  1
  O  O43  1  0.949711  0.942553  0.185318  1
  O  O44  1  0.548677  0.437701  0.185345  1
  O  O45  1  0.450959  0.438419  0.279075  1
  O  O46  1  0.049513  0.062657  0.146966  1
  O  O47  1  0.656650  0.978347  0.200684  1
  O  O48  1  0.340820  0.974888  0.263857  1
  O  O49  1  0.162080  0.527957  0.132359  1
  O  O50  1  0.342353  0.027187  0.132532  1
  O  O51  1  0.156973  0.471581  0.264409  1
  O  O52  1  0.843711  0.476182  0.200325  1
  O  O53  1  0.161157  0.288397  0.154237  1
  O  O54  1  0.338689  0.211325  0.285949  1
  O  O55  1  0.657737  0.207500  0.177784  1
  O  O56  1  0.843280  0.709620  0.177434  1
  O  O57  1  0.159781  0.712756  0.286536  1
  O  O58  1  0.338437  0.783626  0.154146  1
  O  O59  1  0.559447  0.721511  0.456894  1
  O  O60  1  0.940980  0.778090  0.325057  1
  O  O61  1  0.440654  0.721726  0.536274  1
  O  O62  1  0.056819  0.779517  0.403833  1
  O  O63  1  0.444403  0.279919  0.404298  1
  O  O64  1  0.057276  0.220088  0.536534  1
  O  O65  1  0.556913  0.276216  0.324437  1
  O  O66  1  0.945364  0.227813  0.456821  1
  O  O67  1  0.403455  0.608130  0.444601  1
  O  O68  1  0.096932  0.893313  0.312607  1
  O  O69  1  0.596296  0.604967  0.548670  1
  O  O70  1  0.901480  0.895789  0.416412  1
  O  O71  1  0.599238  0.392453  0.416893  1
  O  O72  1  0.902793  0.105934  0.549396  1
  O  O73  1  0.402866  0.391852  0.311694  1
  O  O74  1  0.095488  0.107752  0.444040  1
  O  O75  1  0.289795  0.497545  0.419979  1
  O  O76  1  0.212235  0.995291  0.551752  1
  O  O77  1  0.712846  0.501843  0.309183  1
  O  O78  1  0.783114  0.989928  0.441180  1
  O  O79  1  0.714819  0.495230  0.441644  1
  O  O80  1  0.784289  0.011299  0.309935  1
  O  O81  1  0.286032  0.496051  0.551816  1
  O  O82  1  0.214349  0.003684  0.419743  1
  O  O83  1  0.281115  0.305074  0.393195  1
  O  O84  1  0.217231  0.191689  0.525741  1
  O  O85  1  0.719484  0.298395  0.334669  1
  O  O86  1  0.782686  0.194482  0.466699  1
  O  O87  1  0.725012  0.700899  0.467297  1
  O  O88  1  0.776492  0.807219  0.335657  1
  O  O89  1  0.276341  0.693365  0.525642  1
  O  O90  1  0.220495  0.809893  0.393228  1
  O  O91  1  0.584357  0.765686  0.488782  1
  O  O92  1  0.916143  0.734441  0.356685  1
  O  O93  1  0.415410  0.765418  0.504416  1
  O  O94  1  0.086228  0.731242  0.371873  1
  O  O95  1  0.417015  0.226093  0.371888  1
  O  O96  1  0.084251  0.274266  0.503856  1
  O  O97  1  0.583309  0.224282  0.357078  1
  O  O98  1  0.917617  0.272342  0.489146  1
  O  O99  1  0.469805  0.566370  0.478946  1
  O  O100  1  0.033298  0.935576  0.346968  1
  O  O101  1  0.530315  0.566248  0.514270  1
  O  O102  1  0.970556  0.937052  0.382211  1
  O  O103  1  0.530457  0.426383  0.382393  1
  O  O104  1  0.972361  0.071559  0.514717  1
  O  O105  1  0.471718  0.425801  0.346334  1
  O  O106  1  0.030999  0.070606  0.478837  1
  O  O107  1  0.454071  0.561645  0.411928  1
  O  O108  1  0.045387  0.932224  0.544055  1
  O  O109  1  0.546016  0.564831  0.317210  1
  O  O110  1  0.949711  0.942553  0.449671  1
  O  O111  1  0.548677  0.437701  0.449699  1
  O  O112  1  0.952134  0.061290  0.317871  1
  O  O113  1  0.450959  0.438419  0.543428  1
  O  O114  1  0.049513  0.062657  0.411320  1
  O  O115  1  0.656650  0.978347  0.465037  1
  O  O116  1  0.840285  0.524496  0.333074  1
  O  O117  1  0.340820  0.974888  0.528211  1
  O  O118  1  0.162080  0.527957  0.396713  1
  O  O119  1  0.342353  0.027187  0.396886  1
  O  O120  1  0.156973  0.471581  0.528763  1
  O  O121  1  0.651672  0.019389  0.332800  1
  O  O122  1  0.843711  0.476182  0.464679  1
  O  O123  1  0.161157  0.288397  0.418591  1
  O  O124  1  0.338689  0.211325  0.550302  1
  O  O125  1  0.844346  0.294212  0.310212  1
  O  O126  1  0.657737  0.207500  0.442137  1
  O  O127  1  0.843280  0.709620  0.441787  1
  O  O128  1  0.660510  0.784854  0.310202  1
  O  O129  1  0.159781  0.712756  0.550890  1
  O  O130  1  0.338437  0.783626  0.418500  1
  O  O131  1  0.559447  0.721511  0.721247  1
  O  O132  1  0.940980  0.778090  0.589410  1
  O  O133  1  0.056819  0.779517  0.668187  1
  O  O134  1  0.444403  0.279919  0.668652  1
  O  O135  1  0.556913  0.276216  0.588791  1
  O  O136  1  0.945364  0.227813  0.721175  1
  O  O137  1  0.403455  0.608130  0.708954  1
  O  O138  1  0.096932  0.893313  0.576961  1
  O  O139  1  0.901480  0.895789  0.680766  1
  O  O140  1  0.599238  0.392453  0.681247  1
  O  O141  1  0.402866  0.391852  0.576048  1
  O  O142  1  0.095488  0.107752  0.708394  1
  O  O143  1  0.289795  0.497545  0.684333  1
  O  O144  1  0.712846  0.501843  0.573537  1
  O  O145  1  0.783114  0.989928  0.705534  1
  O  O146  1  0.714819  0.495230  0.705997  1
  O  O147  1  0.784289  0.011299  0.574289  1
  O  O148  1  0.214349  0.003684  0.684097  1
  O  O149  1  0.281115  0.305074  0.657548  1
  O  O150  1  0.719484  0.298395  0.599023  1
  O  O151  1  0.782686  0.194482  0.731052  1
  O  O152  1  0.725012  0.700899  0.731651  1
  O  O153  1  0.776492  0.807219  0.600011  1
  O  O154  1  0.220495  0.809893  0.657582  1
  O  O155  1  0.584357  0.765686  0.753136  1
  O  O156  1  0.916143  0.734441  0.621039  1
  O  O157  1  0.415410  0.765418  0.768770  1
  O  O158  1  0.086228  0.731242  0.636227  1
  O  O159  1  0.417015  0.226093  0.636241  1
  O  O160  1  0.084251  0.274266  0.768209  1
  O  O161  1  0.583309  0.224282  0.621431  1
  O  O162  1  0.917617  0.272342  0.753500  1
  O  O163  1  0.469805  0.566370  0.743300  1
  O  O164  1  0.033298  0.935576  0.611321  1
  O  O165  1  0.530315  0.566248  0.778624  1
  O  O166  1  0.970556  0.937052  0.646565  1
  O  O167  1  0.530457  0.426383  0.646746  1
  O  O168  1  0.972361  0.071559  0.779070  1
  O  O169  1  0.471718  0.425801  0.610688  1
  O  O170  1  0.030999  0.070606  0.743191  1
  O  O171  1  0.454071  0.561645  0.676281  1
  O  O172  1  0.546016  0.564831  0.581564  1
  O  O173  1  0.949711  0.942553  0.714025  1
  O  O174  1  0.548677  0.437701  0.714053  1
  O  O175  1  0.952134  0.061290  0.582225  1
  O  O176  1  0.049513  0.062657  0.675673  1
  O  O177  1  0.656650  0.978347  0.729391  1
  O  O178  1  0.840285  0.524496  0.597428  1
  O  O179  1  0.162080  0.527957  0.661067  1
  O  O180  1  0.342353  0.027187  0.661240  1
  O  O181  1  0.651672  0.019389  0.597154  1
  O  O182  1  0.843711  0.476182  0.729032  1
  O  O183  1  0.161157  0.288397  0.682944  1
  O  O184  1  0.844346  0.294212  0.574566  1
  O  O185  1  0.657737  0.207500  0.706491  1
  O  O186  1  0.843280  0.709620  0.706141  1
  O  O187  1  0.660510  0.784854  0.574556  1
  O  O188  1  0.338437  0.783626  0.682853  1
  Si  Si189  1  0.637979  0.804331  0.205277  1
  Si  Si190  1  0.361307  0.802244  0.259157  1
  Si  Si191  1  0.135358  0.701557  0.126534  1
  Si  Si192  1  0.367901  0.200803  0.126664  1
  Si  Si193  1  0.130478  0.300713  0.258654  1
  Si  Si194  1  0.870847  0.302512  0.205664  1
  Si  Si195  1  0.486620  0.576789  0.193141  1
  Si  Si196  1  0.513355  0.576592  0.271356  1
  Si  Si197  1  0.984967  0.925559  0.139295  1
  Si  Si198  1  0.515792  0.424320  0.139883  1
  Si  Si199  1  0.987516  0.072024  0.272653  1
  Si  Si200  1  0.011917  0.081022  0.193245  1
  Si  Si201  1  0.222540  0.398864  0.142757  1
  Si  Si202  1  0.280013  0.091119  0.274566  1
  Si  Si203  1  0.716538  0.094054  0.189419  1
  Si  Si204  1  0.782759  0.600876  0.189451  1
  Si  Si205  1  0.219018  0.593696  0.274831  1
  Si  Si206  1  0.279631  0.902896  0.142732  1
  Si  Si207  1  0.370684  0.616061  0.160018  1
  Si  Si208  1  0.127138  0.883964  0.292200  1
  Si  Si209  1  0.869282  0.879608  0.172257  1
  Si  Si210  1  0.632041  0.377596  0.172799  1
  Si  Si211  1  0.368361  0.381063  0.291626  1
  Si  Si212  1  0.133018  0.120799  0.159409  1
  Si  Si213  1  0.004472  0.840393  0.100465  1
  Si  Si214  1  0.499914  0.661061  0.232281  1
  Si  Si215  1  0.002120  0.171082  0.231835  1
  Si  Si216  1  0.500555  0.326962  0.100135  1
  Si  Si217  1  0.637979  0.804331  0.469630  1
  Si  Si218  1  0.861280  0.697588  0.337607  1
  Si  Si219  1  0.361307  0.802244  0.523511  1
  Si  Si220  1  0.135358  0.701557  0.390888  1
  Si  Si221  1  0.367901  0.200803  0.391018  1
  Si  Si222  1  0.130478  0.300713  0.523007  1
  Si  Si223  1  0.630382  0.191023  0.337952  1
  Si  Si224  1  0.870847  0.302512  0.470018  1
  Si  Si225  1  0.486620  0.576789  0.457495  1
  Si  Si226  1  0.014582  0.921885  0.325709  1
  Si  Si227  1  0.513355  0.576592  0.535710  1
  Si  Si228  1  0.984967  0.925559  0.403649  1
  Si  Si229  1  0.515792  0.424320  0.404237  1
  Si  Si230  1  0.987516  0.072024  0.537007  1
  Si  Si231  1  0.487300  0.425620  0.324161  1
  Si  Si232  1  0.011917  0.081022  0.457599  1
  Si  Si233  1  0.222540  0.398864  0.407110  1
  Si  Si234  1  0.280013  0.091119  0.538920  1
  Si  Si235  1  0.782971  0.405553  0.321776  1
  Si  Si236  1  0.716538  0.094054  0.453773  1
  Si  Si237  1  0.782759  0.600876  0.453805  1
  Si  Si238  1  0.717095  0.907064  0.322313  1
  Si  Si239  1  0.219018  0.593696  0.539185  1
  Si  Si240  1  0.279631  0.902896  0.407086  1
  Si  Si241  1  0.370684  0.616061  0.424372  1
  Si  Si242  1  0.127138  0.883964  0.556554  1
  Si  Si243  1  0.627448  0.613476  0.304668  1
  Si  Si244  1  0.869282  0.879608  0.436611  1
  Si  Si245  1  0.632041  0.377596  0.437153  1
  Si  Si246  1  0.869327  0.123097  0.305215  1
  Si  Si247  1  0.368361  0.381063  0.555979  1
  Si  Si248  1  0.133018  0.120799  0.423763  1
  Si  Si249  1  0.004472  0.840393  0.364819  1
  Si  Si250  1  0.499914  0.661061  0.496635  1
  Si  Si251  1  0.002120  0.171082  0.496189  1
  Si  Si252  1  0.500555  0.326962  0.364489  1
  Si  Si253  1  0.637979  0.804331  0.733984  1
  Si  Si254  1  0.861280  0.697588  0.601960  1
  Si  Si255  1  0.135358  0.701557  0.655242  1
  Si  Si256  1  0.367901  0.200803  0.655372  1
  Si  Si257  1  0.630382  0.191023  0.602306  1
  Si  Si258  1  0.870847  0.302512  0.734372  1
  Si  Si259  1  0.486620  0.576789  0.721848  1
  Si  Si260  1  0.014582  0.921885  0.590063  1
  Si  Si261  1  0.984967  0.925559  0.668003  1
  Si  Si262  1  0.515792  0.424320  0.668591  1
  Si  Si263  1  0.487300  0.425620  0.588515  1
  Si  Si264  1  0.011917  0.081022  0.721953  1
  Si  Si265  1  0.222540  0.398864  0.671464  1
  Si  Si266  1  0.782971  0.405553  0.586130  1
  Si  Si267  1  0.716538  0.094054  0.718127  1
  Si  Si268  1  0.782759  0.600876  0.718159  1
  Si  Si269  1  0.717095  0.907064  0.586667  1
  Si  Si270  1  0.279631  0.902896  0.671440  1
  Si  Si271  1  0.370684  0.616061  0.688725  1
  Si  Si272  1  0.627448  0.613476  0.569022  1
  Si  Si273  1  0.869282  0.879608  0.700965  1
  Si  Si274  1  0.632041  0.377596  0.701507  1
  Si  Si275  1  0.869327  0.123097  0.569569  1
  Si  Si276  1  0.133018  0.120799  0.688117  1
  Si  Si277  1  0.004472  0.840393  0.629173  1
  Si  Si278  1  0.499914  0.661061  0.760988  1
  Si  Si279  1  0.002120  0.171082  0.760543  1
  Si  Si280  1  0.500555  0.326962  0.628842  1
  H  H281  1  0.916143  0.734441  0.079826  1
  H  H282  1  0.583309  0.224282  0.080219  1
  H  H283  1  0.033298  0.935576  0.070108  1
  H  H284  1  0.471718  0.425801  0.069475  1
  H  H285  1  0.415410  0.765418  0.781275  1
  H  H286  1  0.084251  0.274266  0.780715  1
  H  H287  1  0.530315  0.566248  0.791129  1
  H  H288  1  0.972361  0.071559  0.791576  1
