# generated using pymatgen
data_Si6H2O13
_symmetry_space_group_name_H-M   'P 1'
_cell_length_a   11.40919207
_cell_length_b   26.79127551
_cell_length_c   42.37757358
_cell_angle_alpha   134.99934521
_cell_angle_beta   90.00000000
_cell_angle_gamma   90.00000000
_symmetry_Int_Tables_number   1
_chemical_formula_structural   Si6H2O13
_chemical_formula_sum   'Si48 H16 O104'
_cell_volume   9159.55413784
_cell_formula_units_Z   8
loop_
 _symmetry_equiv_pos_site_id
 _symmetry_equiv_pos_as_xyz
  1  'x, y, z'
loop_
 _atom_site_type_symbol
 _atom_site_label
 _atom_site_symmetry_multiplicity
 _atom_site_fract_x
 _atom_site_fract_y
 _atom_site_fract_z
 _atom_site_occupancy
  O  O1  1  -0.000000  0.937068  0.276804  1
  O  O2  1  0.814656  0.964219  0.258478  1
  O  O3  1  0.814655  0.868917  0.258474  1
  O  O4  1  0.185237  0.964211  0.258468  1
  O  O5  1  0.185238  0.868917  0.258471  1
  O  O6  1  0.499943  0.930571  0.270994  1
  O  O7  1  0.708418  0.921036  0.188101  1
  O  O8  1  0.708400  0.754674  0.188098  1
  O  O9  1  0.291500  0.921040  0.188098  1
  O  O10  1  0.291482  0.754676  0.188094  1
  O  O11  1  0.314644  0.368921  0.290542  1
  O  O12  1  0.685226  0.368914  0.290544  1
  O  O13  1  -0.000000  0.105420  0.273831  1
  O  O14  1  0.790560  0.052157  0.252863  1
  O  O15  1  0.209343  0.052157  0.252859  1
  O  O16  1  0.613903  0.004447  0.263174  1
  O  O17  1  0.385991  0.004451  0.263176  1
  O  O18  1  0.208406  0.254675  0.258779  1
  O  O19  1  0.791486  0.254675  0.258782  1
  O  O20  1  -0.000000  0.233896  0.272420  1
  O  O21  1  0.160636  0.168925  0.272165  1
  O  O22  1  0.839264  0.168926  0.272168  1
  O  O23  1  0.790545  0.768413  0.252854  1
  O  O24  1  0.209329  0.768409  0.252848  1
  O  O25  1  0.613898  0.839202  0.263174  1
  O  O26  1  0.385988  0.839197  0.263171  1
  O  O27  1  0.160627  0.694827  0.272155  1
  O  O28  1  0.839253  0.694829  0.272159  1
  O  O29  1  -0.000000  0.762055  0.273821  1
  O  O30  1  0.314674  0.535967  0.290543  1
  O  O31  1  0.685258  0.535950  0.290545  1
  O  O32  1  0.290569  0.448018  0.206304  1
  O  O33  1  0.709350  0.448013  0.206306  1
  O  O34  1  0.113922  0.495720  0.259273  1
  O  O35  1  0.113891  0.339196  0.259272  1
  O  O36  1  0.886010  0.495724  0.259272  1
  O  O37  1  0.885980  0.339203  0.259276  1
  O  O38  1  -0.000000  0.437336  0.277042  1
  O  O39  1  0.208402  0.579133  0.258769  1
  O  O40  1  0.791485  0.579135  0.258776  1
  O  O41  1  -0.000000  0.630425  0.272411  1
  O  O42  1  0.290549  0.268414  0.206305  1
  O  O43  1  0.709333  0.268409  0.206307  1
  O  O44  1  0.290573  0.731765  0.459982  1
  O  O45  1  0.709359  0.731758  0.459984  1
  O  O46  1  0.499935  0.437069  0.333143  1
  O  O47  1  0.314641  0.464223  0.375744  1
  O  O48  1  0.685222  0.464207  0.375745  1
  O  O49  1  0.290551  0.552160  0.459981  1
  O  O50  1  0.709335  0.552154  0.459983  1
  O  O51  1  0.113889  0.504448  0.407016  1
  O  O52  1  0.113922  0.660970  0.407013  1
  O  O53  1  0.885976  0.504451  0.407012  1
  O  O54  1  0.886010  0.660972  0.407014  1
  O  O55  1  -0.000000  0.562835  0.389244  1
  O  O56  1  0.000000  0.430571  0.333144  1
  O  O57  1  0.208415  0.421038  0.407513  1
  O  O58  1  0.791497  0.421038  0.407517  1
  O  O59  1  0.000000  0.369748  0.393877  1
  O  O60  1  0.163380  -0.000000  0.333142  1
  O  O61  1  0.790571  0.231762  0.413440  1
  O  O62  1  0.209357  0.231761  0.413436  1
  O  O63  1  0.613921  0.160969  0.403115  1
  O  O64  1  0.386009  0.160974  0.403117  1
  O  O65  1  0.499957  0.062835  0.333146  1
  O  O66  1  0.148942  0.301589  0.333146  1
  O  O67  1  0.850963  0.301592  0.333150  1
  O  O68  1  0.160647  0.305345  0.394130  1
  O  O69  1  0.839273  0.305346  0.394134  1
  O  O70  1  0.154780  0.170787  0.333149  1
  O  O71  1  0.845134  0.170788  0.333152  1
  O  O72  1  -0.000000  0.238120  0.392469  1
  O  O73  1  0.836532  -0.000000  0.333147  1
  O  O74  1  0.790562  0.948017  0.413431  1
  O  O75  1  0.209344  0.948015  0.413427  1
  O  O76  1  0.613920  0.995720  0.403110  1
  O  O77  1  0.386007  0.995725  0.403118  1
  O  O78  1  0.499938  0.937336  0.333144  1
  O  O79  1  0.208417  0.745496  0.407506  1
  O  O80  1  0.791497  0.745496  0.407510  1
  O  O81  1  0.148938  0.698579  0.333137  1
  O  O82  1  0.850959  0.698583  0.333143  1
  O  O83  1  -0.000000  0.766275  0.393869  1
  O  O84  1  0.160639  0.831244  0.394119  1
  O  O85  1  0.839268  0.831247  0.394125  1
  O  O86  1  0.154769  0.829386  0.333138  1
  O  O87  1  0.845122  0.829387  0.333142  1
  O  O88  1  0.000000  0.894752  0.392458  1
  O  O89  1  0.336525  0.500087  0.333139  1
  O  O90  1  0.663373  0.500084  0.333147  1
  O  O91  1  0.499963  0.563102  0.333143  1
  O  O92  1  0.314675  0.631257  0.375744  1
  O  O93  1  0.685254  0.631251  0.375746  1
  O  O94  1  -0.000000  0.569600  0.333143  1
  O  O95  1  0.000000  0.063102  0.389485  1
  O  O96  1  0.814674  0.035962  0.407822  1
  O  O97  1  0.814675  0.131254  0.407817  1
  O  O98  1  0.185258  0.035954  0.407812  1
  O  O99  1  0.185253  0.131253  0.407813  1
  O  O100  1  0.499957  0.069600  0.395295  1
  O  O101  1  0.708405  0.079133  0.478191  1
  O  O102  1  0.708421  0.245493  0.478192  1
  O  O103  1  0.291487  0.079136  0.478190  1
  O  O104  1  0.291499  0.245497  0.478191  1
  Si  Si105  1  0.735044  0.985827  0.239713  1
  Si  Si106  1  0.735034  0.805335  0.239709  1
  Si  Si107  1  0.264859  0.985826  0.239709  1
  Si  Si108  1  0.264851  0.805333  0.239705  1
  Si  Si109  1  0.864318  0.942441  0.281609  1
  Si  Si110  1  0.135580  0.942441  0.281605  1
  Si  Si111  1  0.499941  0.884694  0.281559  1
  Si  Si112  1  0.235032  0.305335  0.252460  1
  Si  Si113  1  0.764848  0.305333  0.252463  1
  Si  Si114  1  0.135116  0.236592  0.281513  1
  Si  Si115  1  0.864781  0.236592  0.281515  1
  Si  Si116  1  0.135350  0.122179  0.281628  1
  Si  Si117  1  0.864555  0.122179  0.281631  1
  Si  Si118  1  0.499948  -0.000000  0.281561  1
  Si  Si119  1  0.135337  0.762742  0.281617  1
  Si  Si120  1  0.864542  0.762743  0.281621  1
  Si  Si121  1  0.235050  0.514348  0.252457  1
  Si  Si122  1  0.764865  0.514343  0.252459  1
  Si  Si123  1  0.135110  0.648070  0.281502  1
  Si  Si124  1  0.864775  0.648072  0.281506  1
  Si  Si125  1  0.000000  0.500088  0.281562  1
  Si  Si126  1  0.000000  0.384694  0.281562  1
  Si  Si127  1  0.235035  0.485830  0.413829  1
  Si  Si128  1  0.764850  0.485824  0.413829  1
  Si  Si129  1  0.135125  0.352102  0.384783  1
  Si  Si130  1  0.864789  0.352102  0.384785  1
  Si  Si131  1  0.364306  0.442445  0.333142  1
  Si  Si132  1  0.635567  0.442438  0.333145  1
  Si  Si133  1  0.000000  0.500084  0.384725  1
  Si  Si134  1  0.135359  0.237431  0.384669  1
  Si  Si135  1  0.864563  0.237432  0.384671  1
  Si  Si136  1  0.499962  0.115477  0.384730  1
  Si  Si137  1  0.235055  0.694839  0.413826  1
  Si  Si138  1  0.764870  0.694835  0.413828  1
  Si  Si139  1  0.135122  0.763579  0.384773  1
  Si  Si140  1  0.864786  0.763580  0.384776  1
  Si  Si141  1  0.135349  0.877993  0.384658  1
  Si  Si142  1  0.864554  0.877994  0.384661  1
  Si  Si143  1  0.364331  0.557733  0.333142  1
  Si  Si144  1  0.635592  0.557727  0.333146  1
  Si  Si145  1  0.000000  0.615477  0.384725  1
  Si  Si146  1  0.735049  0.014346  0.426580  1
  Si  Si147  1  0.735055  0.194836  0.426582  1
  Si  Si148  1  0.264863  0.014345  0.426578  1
  Si  Si149  1  0.264870  0.194837  0.426580  1
  Si  Si150  1  0.864333  0.057730  0.384684  1
  Si  Si151  1  0.135594  0.057729  0.384679  1
  Si  Si152  1  0.499957  -0.000000  0.384728  1
  H  H153  1  0.708418  0.921036  0.166864  1
  H  H154  1  0.708400  0.754674  0.166860  1
  H  H155  1  0.291500  0.921040  0.166860  1
  H  H156  1  0.291482  0.754676  0.166857  1
  H  H157  1  0.290569  0.448018  0.185066  1
  H  H158  1  0.709350  0.448013  0.185068  1
  H  H159  1  0.290549  0.268414  0.185068  1
  H  H160  1  0.709333  0.268409  0.185069  1
  H  H161  1  0.290573  0.731765  0.481219  1
  H  H162  1  0.709359  0.731758  0.481222  1
  H  H163  1  0.290551  0.552160  0.481219  1
  H  H164  1  0.709335  0.552154  0.481221  1
  H  H165  1  0.708405  0.079133  0.499428  1
  H  H166  1  0.708421  0.245493  0.499430  1
  H  H167  1  0.291487  0.079136  0.499427  1
  H  H168  1  0.291499  0.245497  0.499429  1
