# generated using pymatgen
data_Si35(HO18)4
_symmetry_space_group_name_H-M   'P 1'
_cell_length_a   14.33040949
_cell_length_b   8.45279806
_cell_length_c   58.79171065
_cell_angle_alpha   90.00000000
_cell_angle_beta   90.00000000
_cell_angle_gamma   90.00000000
_symmetry_Int_Tables_number   1
_chemical_formula_structural   Si35(HO18)4
_chemical_formula_sum   'Si70 H8 O144'
_cell_volume   7121.56087759
_cell_formula_units_Z   2
loop_
 _symmetry_equiv_pos_site_id
 _symmetry_equiv_pos_as_xyz
  1  'x, y, z'
loop_
 _atom_site_type_symbol
 _atom_site_label
 _atom_site_symmetry_multiplicity
 _atom_site_fract_x
 _atom_site_fract_y
 _atom_site_fract_z
 _atom_site_occupancy
  O  O1  1  0.440654  0.721726  0.140038  1
  O  O2  1  0.057276  0.220088  0.140357  1
  O  O3  1  0.596296  0.604967  0.155212  1
  O  O4  1  0.902793  0.105934  0.156102  1
  O  O5  1  0.212235  0.995291  0.158985  1
  O  O6  1  0.286032  0.496051  0.159064  1
  O  O7  1  0.217231  0.191689  0.127145  1
  O  O8  1  0.276341  0.693365  0.127023  1
  O  O9  1  0.415410  0.765418  0.101040  1
  O  O10  1  0.084251  0.274266  0.100354  1
  O  O11  1  0.530315  0.566248  0.113103  1
  O  O12  1  0.972361  0.071559  0.113650  1
  O  O13  1  0.045387  0.932224  0.149563  1
  O  O14  1  0.450959  0.438419  0.148796  1
  O  O15  1  0.340820  0.974888  0.130168  1
  O  O16  1  0.156973  0.471581  0.130844  1
  O  O17  1  0.338689  0.211325  0.157211  1
  O  O18  1  0.159781  0.712756  0.157930  1
  O  O19  1  0.559447  0.721511  0.366470  1
  O  O20  1  0.940980  0.778090  0.205084  1
  O  O21  1  0.440654  0.721726  0.463641  1
  O  O22  1  0.056819  0.779517  0.301517  1
  O  O23  1  0.444403  0.279919  0.302086  1
  O  O24  1  0.057276  0.220088  0.463960  1
  O  O25  1  0.556913  0.276216  0.204326  1
  O  O26  1  0.945364  0.227813  0.366381  1
  O  O27  1  0.403455  0.608130  0.351421  1
  O  O28  1  0.096932  0.893313  0.189845  1
  O  O29  1  0.596296  0.604967  0.478815  1
  O  O30  1  0.901480  0.895789  0.316915  1
  O  O31  1  0.599238  0.392453  0.317504  1
  O  O32  1  0.902793  0.105934  0.479705  1
  O  O33  1  0.402866  0.391852  0.188727  1
  O  O34  1  0.095488  0.107752  0.350735  1
  O  O35  1  0.289795  0.497545  0.321282  1
  O  O36  1  0.212235  0.995291  0.482588  1
  O  O37  1  0.712846  0.501843  0.185653  1
  O  O38  1  0.783114  0.989928  0.347235  1
  O  O39  1  0.714819  0.495230  0.347802  1
  O  O40  1  0.784289  0.011299  0.186573  1
  O  O41  1  0.286032  0.496051  0.482667  1
  O  O42  1  0.214349  0.003684  0.320993  1
  O  O43  1  0.281115  0.305074  0.288494  1
  O  O44  1  0.217231  0.191689  0.450748  1
  O  O45  1  0.719484  0.298395  0.216851  1
  O  O46  1  0.782686  0.194482  0.378472  1
  O  O47  1  0.725012  0.700899  0.379205  1
  O  O48  1  0.776492  0.807219  0.218060  1
  O  O49  1  0.276341  0.693365  0.450626  1
  O  O50  1  0.220495  0.809893  0.288535  1
  O  O51  1  0.584357  0.765686  0.405505  1
  O  O52  1  0.916143  0.734441  0.243802  1
  O  O53  1  0.415410  0.765418  0.424643  1
  O  O54  1  0.086228  0.731242  0.262393  1
  O  O55  1  0.417015  0.226093  0.262411  1
  O  O56  1  0.084251  0.274266  0.423957  1
  O  O57  1  0.583309  0.224282  0.244282  1
  O  O58  1  0.917617  0.272342  0.405951  1
  O  O59  1  0.469805  0.566370  0.393465  1
  O  O60  1  0.033298  0.935576  0.231906  1
  O  O61  1  0.530315  0.566248  0.436706  1
  O  O62  1  0.970556  0.937052  0.275049  1
  O  O63  1  0.530457  0.426383  0.275271  1
  O  O64  1  0.972361  0.071559  0.437253  1
  O  O65  1  0.471718  0.425801  0.231130  1
  O  O66  1  0.030999  0.070606  0.393331  1
  O  O67  1  0.454071  0.561645  0.311426  1
  O  O68  1  0.045387  0.932224  0.473166  1
  O  O69  1  0.546016  0.564831  0.195479  1
  O  O70  1  0.949711  0.942553  0.357629  1
  O  O71  1  0.548677  0.437701  0.357663  1
  O  O72  1  0.952134  0.061290  0.196288  1
  O  O73  1  0.450959  0.438419  0.472399  1
  O  O74  1  0.049513  0.062657  0.310681  1
  O  O75  1  0.656650  0.978347  0.376439  1
  O  O76  1  0.840285  0.524496  0.214899  1
  O  O77  1  0.340820  0.974888  0.453771  1
  O  O78  1  0.162080  0.527957  0.292801  1
  O  O79  1  0.342353  0.027187  0.293013  1
  O  O80  1  0.156973  0.471581  0.454447  1
  O  O81  1  0.651672  0.019389  0.214563  1
  O  O82  1  0.843711  0.476182  0.376000  1
  O  O83  1  0.161157  0.288397  0.319582  1
  O  O84  1  0.338689  0.211325  0.480814  1
  O  O85  1  0.844346  0.294212  0.186913  1
  O  O86  1  0.657737  0.207500  0.348406  1
  O  O87  1  0.843280  0.709620  0.347978  1
  O  O88  1  0.660510  0.784854  0.186901  1
  O  O89  1  0.159781  0.712756  0.481533  1
  O  O90  1  0.338437  0.783626  0.319470  1
  O  O91  1  0.559447  0.721511  0.690073  1
  O  O92  1  0.940980  0.778090  0.528687  1
  O  O93  1  0.056819  0.779517  0.625120  1
  O  O94  1  0.444403  0.279919  0.625689  1
  O  O95  1  0.556913  0.276216  0.527929  1
  O  O96  1  0.945364  0.227813  0.689984  1
  O  O97  1  0.403455  0.608130  0.675024  1
  O  O98  1  0.096932  0.893313  0.513448  1
  O  O99  1  0.901480  0.895789  0.640518  1
  O  O100  1  0.599238  0.392453  0.641107  1
  O  O101  1  0.402866  0.391852  0.512330  1
  O  O102  1  0.095488  0.107752  0.674338  1
  O  O103  1  0.289795  0.497545  0.644885  1
  O  O104  1  0.712846  0.501843  0.509256  1
  O  O105  1  0.783114  0.989928  0.670838  1
  O  O106  1  0.714819  0.495230  0.671405  1
  O  O107  1  0.784289  0.011299  0.510176  1
  O  O108  1  0.214349  0.003684  0.644596  1
  O  O109  1  0.281115  0.305074  0.612097  1
  O  O110  1  0.719484  0.298395  0.540454  1
  O  O111  1  0.782686  0.194482  0.702075  1
  O  O112  1  0.725012  0.700899  0.702808  1
  O  O113  1  0.776492  0.807219  0.541663  1
  O  O114  1  0.220495  0.809893  0.612138  1
  O  O115  1  0.584357  0.765686  0.729108  1
  O  O116  1  0.916143  0.734441  0.567405  1
  O  O117  1  0.086228  0.731242  0.585996  1
  O  O118  1  0.417015  0.226093  0.586014  1
  O  O119  1  0.583309  0.224282  0.567885  1
  O  O120  1  0.917617  0.272342  0.729554  1
  O  O121  1  0.469805  0.566370  0.717068  1
  O  O122  1  0.033298  0.935576  0.555509  1
  O  O123  1  0.970556  0.937052  0.598652  1
  O  O124  1  0.530457  0.426383  0.598874  1
  O  O125  1  0.471718  0.425801  0.554733  1
  O  O126  1  0.030999  0.070606  0.716934  1
  O  O127  1  0.454071  0.561645  0.635029  1
  O  O128  1  0.546016  0.564831  0.519082  1
  O  O129  1  0.949711  0.942553  0.681232  1
  O  O130  1  0.548677  0.437701  0.681266  1
  O  O131  1  0.952134  0.061290  0.519891  1
  O  O132  1  0.049513  0.062657  0.634284  1
  O  O133  1  0.656650  0.978347  0.700042  1
  O  O134  1  0.840285  0.524496  0.538502  1
  O  O135  1  0.162080  0.527957  0.616404  1
  O  O136  1  0.342353  0.027187  0.616616  1
  O  O137  1  0.651672  0.019389  0.538166  1
  O  O138  1  0.843711  0.476182  0.699603  1
  O  O139  1  0.161157  0.288397  0.643185  1
  O  O140  1  0.844346  0.294212  0.510516  1
  O  O141  1  0.657737  0.207500  0.672009  1
  O  O142  1  0.843280  0.709620  0.671581  1
  O  O143  1  0.660510  0.784854  0.510504  1
  O  O144  1  0.338437  0.783626  0.643073  1
  Si  Si145  1  0.361307  0.802244  0.124414  1
  Si  Si146  1  0.130478  0.300713  0.123798  1
  Si  Si147  1  0.513355  0.576592  0.139348  1
  Si  Si148  1  0.987516  0.072024  0.140935  1
  Si  Si149  1  0.280013  0.091119  0.143277  1
  Si  Si150  1  0.219018  0.593696  0.143602  1
  Si  Si151  1  0.127138  0.883964  0.164863  1
  Si  Si152  1  0.368361  0.381063  0.164160  1
  Si  Si153  1  0.637979  0.804331  0.382061  1
  Si  Si154  1  0.861280  0.697588  0.220447  1
  Si  Si155  1  0.361307  0.802244  0.448017  1
  Si  Si156  1  0.135358  0.701557  0.285670  1
  Si  Si157  1  0.367901  0.200803  0.285830  1
  Si  Si158  1  0.130478  0.300713  0.447401  1
  Si  Si159  1  0.630382  0.191023  0.220870  1
  Si  Si160  1  0.870847  0.302512  0.382536  1
  Si  Si161  1  0.486620  0.576789  0.367205  1
  Si  Si162  1  0.014582  0.921885  0.205883  1
  Si  Si163  1  0.513355  0.576592  0.462951  1
  Si  Si164  1  0.984967  0.925559  0.301292  1
  Si  Si165  1  0.515792  0.424320  0.302011  1
  Si  Si166  1  0.987516  0.072024  0.464538  1
  Si  Si167  1  0.487300  0.425620  0.203988  1
  Si  Si168  1  0.011917  0.081022  0.367333  1
  Si  Si169  1  0.222540  0.398864  0.305529  1
  Si  Si170  1  0.280013  0.091119  0.466880  1
  Si  Si171  1  0.782971  0.405553  0.201069  1
  Si  Si172  1  0.716538  0.094054  0.362649  1
  Si  Si173  1  0.782759  0.600876  0.362689  1
  Si  Si174  1  0.717095  0.907064  0.201726  1
  Si  Si175  1  0.219018  0.593696  0.467205  1
  Si  Si176  1  0.279631  0.902896  0.305499  1
  Si  Si177  1  0.370684  0.616061  0.326659  1
  Si  Si178  1  0.127138  0.883964  0.488466  1
  Si  Si179  1  0.627448  0.613476  0.180126  1
  Si  Si180  1  0.869282  0.879608  0.341641  1
  Si  Si181  1  0.632041  0.377596  0.342304  1
  Si  Si182  1  0.869327  0.123097  0.180796  1
  Si  Si183  1  0.368361  0.381063  0.487763  1
  Si  Si184  1  0.133018  0.120799  0.325913  1
  Si  Si185  1  0.004472  0.840393  0.253759  1
  Si  Si186  1  0.499914  0.661061  0.415118  1
  Si  Si187  1  0.002120  0.171082  0.414572  1
  Si  Si188  1  0.500555  0.326962  0.253354  1
  Si  Si189  1  0.637979  0.804331  0.705664  1
  Si  Si190  1  0.861280  0.697588  0.544050  1
  Si  Si191  1  0.135358  0.701557  0.609273  1
  Si  Si192  1  0.367901  0.200803  0.609433  1
  Si  Si193  1  0.630382  0.191023  0.544473  1
  Si  Si194  1  0.870847  0.302512  0.706139  1
  Si  Si195  1  0.486620  0.576789  0.690808  1
  Si  Si196  1  0.014582  0.921885  0.529486  1
  Si  Si197  1  0.984967  0.925559  0.624895  1
  Si  Si198  1  0.515792  0.424320  0.625614  1
  Si  Si199  1  0.487300  0.425620  0.527591  1
  Si  Si200  1  0.011917  0.081022  0.690936  1
  Si  Si201  1  0.222540  0.398864  0.629132  1
  Si  Si202  1  0.782971  0.405553  0.524672  1
  Si  Si203  1  0.716538  0.094054  0.686252  1
  Si  Si204  1  0.782759  0.600876  0.686292  1
  Si  Si205  1  0.717095  0.907064  0.525329  1
  Si  Si206  1  0.279631  0.902896  0.629102  1
  Si  Si207  1  0.370684  0.616061  0.650262  1
  Si  Si208  1  0.627448  0.613476  0.503729  1
  Si  Si209  1  0.869282  0.879608  0.665244  1
  Si  Si210  1  0.632041  0.377596  0.665907  1
  Si  Si211  1  0.869327  0.123097  0.504399  1
  Si  Si212  1  0.133018  0.120799  0.649516  1
  Si  Si213  1  0.004472  0.840393  0.577362  1
  Si  Si214  1  0.500555  0.326962  0.576957  1
  H  H215  1  0.415410  0.765418  0.085732  1
  H  H216  1  0.084251  0.274266  0.085046  1
  H  H217  1  0.530315  0.566248  0.097795  1
  H  H218  1  0.972361  0.071559  0.098341  1
  H  H219  1  0.584357  0.765686  0.744416  1
  H  H220  1  0.917617  0.272342  0.744862  1
  H  H221  1  0.469805  0.566370  0.732376  1
  H  H222  1  0.030999  0.070606  0.732242  1
