# generated using pymatgen
data_Si30H2O61
_symmetry_space_group_name_H-M   'P 1'
_cell_length_a   8.96036688
_cell_length_b   9.13716697
_cell_length_c   62.10329200
_cell_angle_alpha   90.00000000
_cell_angle_beta   90.00000000
_cell_angle_gamma   90.00000000
_symmetry_Int_Tables_number   1
_chemical_formula_structural   Si30H2O61
_chemical_formula_sum   'Si60 H4 O122'
_cell_volume   5084.54359465
_cell_formula_units_Z   2
loop_
 _symmetry_equiv_pos_site_id
 _symmetry_equiv_pos_as_xyz
  1  'x, y, z'
loop_
 _atom_site_type_symbol
 _atom_site_label
 _atom_site_symmetry_multiplicity
 _atom_site_fract_x
 _atom_site_fract_y
 _atom_site_fract_z
 _atom_site_occupancy
  O  O1  1  0.318872  0.862559  0.151965  1
  O  O2  1  0.181271  0.862562  0.281760  1
  O  O3  1  0.818873  0.137165  0.151965  1
  O  O4  1  0.681271  0.137168  0.281760  1
  O  O5  1  0.108715  0.730376  0.170658  1
  O  O6  1  0.391426  0.730374  0.300452  1
  O  O7  1  0.608715  0.269347  0.170658  1
  O  O8  1  0.891426  0.269355  0.300452  1
  O  O9  1  0.068994  0.783613  0.132541  1
  O  O10  1  0.431148  0.783613  0.262335  1
  O  O11  1  0.568994  0.216110  0.132541  1
  O  O12  1  0.931149  0.216117  0.262335  1
  O  O13  1  0.068663  0.001832  0.159491  1
  O  O14  1  0.431484  0.001830  0.289285  1
  O  O15  1  0.568664  0.997891  0.159491  1
  O  O16  1  0.931483  0.997899  0.289285  1
  O  O17  1  0.178654  0.358344  0.257201  1
  O  O18  1  0.321490  0.358341  0.127407  1
  O  O19  1  0.678655  0.641387  0.257201  1
  O  O20  1  0.821490  0.641382  0.127407  1
  O  O21  1  0.926161  0.487689  0.255043  1
  O  O22  1  0.573985  0.487682  0.125248  1
  O  O23  1  0.426162  0.512040  0.255043  1
  O  O24  1  0.073985  0.512041  0.125248  1
  O  O25  1  0.997040  0.309480  0.224798  1
  O  O26  1  0.503101  0.309477  0.095003  1
  O  O27  1  0.497041  0.690246  0.224797  1
  O  O28  1  0.003102  0.690249  0.095003  1
  O  O29  1  0.489510  0.781445  0.183165  1
  O  O30  1  0.989509  0.218278  0.183165  1
  O  O31  1  0.288772  0.615224  0.196580  1
  O  O32  1  0.788772  0.384499  0.196580  1
  O  O33  1  0.538677  0.516024  0.193260  1
  O  O34  1  0.038677  0.483699  0.193259  1
  O  O35  1  0.072630  0.263928  0.144892  1
  O  O36  1  0.427512  0.263926  0.274686  1
  O  O37  1  0.572630  0.735795  0.144892  1
  O  O38  1  0.927512  0.735803  0.274687  1
  O  O39  1  0.205339  0.482052  0.160555  1
  O  O40  1  0.294802  0.482052  0.290349  1
  O  O41  1  0.705339  0.517670  0.160555  1
  O  O42  1  0.794802  0.517677  0.290349  1
  O  O43  1  0.318872  0.862559  0.411554  1
  O  O44  1  0.181271  0.862562  0.541349  1
  O  O45  1  0.818873  0.137165  0.411554  1
  O  O46  1  0.681271  0.137168  0.541348  1
  O  O47  1  0.108715  0.730376  0.430247  1
  O  O48  1  0.391426  0.730374  0.560041  1
  O  O49  1  0.608715  0.269347  0.430247  1
  O  O50  1  0.891426  0.269355  0.560041  1
  O  O51  1  0.068994  0.783613  0.392129  1
  O  O52  1  0.431148  0.783613  0.521924  1
  O  O53  1  0.568994  0.216110  0.392129  1
  O  O54  1  0.931149  0.216117  0.521924  1
  O  O55  1  0.068663  0.001832  0.419079  1
  O  O56  1  0.431484  0.001830  0.548874  1
  O  O57  1  0.568664  0.997891  0.419079  1
  O  O58  1  0.931483  0.997899  0.548874  1
  O  O59  1  0.178654  0.358344  0.516790  1
  O  O60  1  0.321490  0.358341  0.386996  1
  O  O61  1  0.678655  0.641387  0.516790  1
  O  O62  1  0.821490  0.641382  0.386996  1
  O  O63  1  0.926161  0.487689  0.514631  1
  O  O64  1  0.573985  0.487682  0.384837  1
  O  O65  1  0.426162  0.512040  0.514631  1
  O  O66  1  0.073985  0.512041  0.384837  1
  O  O67  1  0.997040  0.309480  0.484386  1
  O  O68  1  0.503101  0.309477  0.354592  1
  O  O69  1  0.497041  0.690246  0.484386  1
  O  O70  1  0.003102  0.690249  0.354592  1
  O  O71  1  0.010633  0.781451  0.312959  1
  O  O72  1  0.489510  0.781445  0.442753  1
  O  O73  1  0.510633  0.218278  0.312959  1
  O  O74  1  0.989509  0.218278  0.442753  1
  O  O75  1  0.211367  0.615225  0.326374  1
  O  O76  1  0.288772  0.615224  0.456168  1
  O  O77  1  0.711367  0.384504  0.326374  1
  O  O78  1  0.788772  0.384499  0.456168  1
  O  O79  1  0.961460  0.516030  0.323054  1
  O  O80  1  0.538677  0.516024  0.452848  1
  O  O81  1  0.461460  0.483698  0.323054  1
  O  O82  1  0.038677  0.483699  0.452848  1
  O  O83  1  0.072630  0.263928  0.404481  1
  O  O84  1  0.427512  0.263926  0.534275  1
  O  O85  1  0.572630  0.735795  0.404481  1
  O  O86  1  0.927512  0.735803  0.534275  1
  O  O87  1  0.205339  0.482052  0.420144  1
  O  O88  1  0.294802  0.482052  0.549938  1
  O  O89  1  0.705339  0.517670  0.420144  1
  O  O90  1  0.794802  0.517677  0.549938  1
  O  O91  1  0.318872  0.862559  0.671143  1
  O  O92  1  0.818873  0.137165  0.671143  1
  O  O93  1  0.108715  0.730376  0.689835  1
  O  O94  1  0.608715  0.269347  0.689835  1
  O  O95  1  0.068994  0.783613  0.651718  1
  O  O96  1  0.568994  0.216110  0.651718  1
  O  O97  1  0.068663  0.001832  0.678668  1
  O  O98  1  0.568664  0.997891  0.678668  1
  O  O99  1  0.321490  0.358341  0.646585  1
  O  O100  1  0.821490  0.641382  0.646585  1
  O  O101  1  0.573985  0.487682  0.644425  1
  O  O102  1  0.073985  0.512041  0.644425  1
  O  O103  1  0.997040  0.309480  0.743975  1
  O  O104  1  0.503101  0.309477  0.614180  1
  O  O105  1  0.497041  0.690246  0.743975  1
  O  O106  1  0.003102  0.690249  0.614181  1
  O  O107  1  0.010633  0.781451  0.572548  1
  O  O108  1  0.489510  0.781445  0.702342  1
  O  O109  1  0.510633  0.218278  0.572548  1
  O  O110  1  0.989509  0.218278  0.702342  1
  O  O111  1  0.211367  0.615225  0.585962  1
  O  O112  1  0.288772  0.615224  0.715757  1
  O  O113  1  0.711367  0.384504  0.585962  1
  O  O114  1  0.788772  0.384499  0.715757  1
  O  O115  1  0.961460  0.516030  0.582643  1
  O  O116  1  0.538677  0.516024  0.712437  1
  O  O117  1  0.461460  0.483698  0.582643  1
  O  O118  1  0.038677  0.483699  0.712437  1
  O  O119  1  0.072630  0.263928  0.664070  1
  O  O120  1  0.572630  0.735795  0.664069  1
  O  O121  1  0.205339  0.482052  0.679732  1
  O  O122  1  0.705339  0.517670  0.679732  1
  Si  Si123  1  0.142857  0.853165  0.153213  1
  Si  Si124  1  0.357287  0.853166  0.283008  1
  Si  Si125  1  0.642857  0.146557  0.153213  1
  Si  Si126  1  0.857287  0.146564  0.283008  1
  Si  Si127  1  0.455918  0.659798  0.200621  1
  Si  Si128  1  0.955917  0.339926  0.200621  1
  Si  Si129  1  0.170619  0.400719  0.138670  1
  Si  Si130  1  0.329525  0.400719  0.268464  1
  Si  Si131  1  0.670619  0.599004  0.138670  1
  Si  Si132  1  0.829525  0.599011  0.268464  1
  Si  Si133  1  0.012395  0.342187  0.249554  1
  Si  Si134  1  0.487748  0.342181  0.119760  1
  Si  Si135  1  0.512396  0.657543  0.249554  1
  Si  Si136  1  0.987748  0.657542  0.119760  1
  Si  Si137  1  0.156310  0.577764  0.180789  1
  Si  Si138  1  0.343830  0.577764  0.310583  1
  Si  Si139  1  0.656309  0.421959  0.180789  1
  Si  Si140  1  0.843829  0.421966  0.310583  1
  Si  Si141  1  0.986141  0.152308  0.159646  1
  Si  Si142  1  0.514003  0.152308  0.289440  1
  Si  Si143  1  0.486141  0.847414  0.159646  1
  Si  Si144  1  0.014003  0.847421  0.289440  1
  Si  Si145  1  0.142857  0.853165  0.412802  1
  Si  Si146  1  0.357287  0.853166  0.542596  1
  Si  Si147  1  0.642857  0.146557  0.412802  1
  Si  Si148  1  0.857287  0.146564  0.542596  1
  Si  Si149  1  0.044223  0.659803  0.330415  1
  Si  Si150  1  0.455918  0.659798  0.460209  1
  Si  Si151  1  0.544222  0.339926  0.330415  1
  Si  Si152  1  0.955917  0.339926  0.460209  1
  Si  Si153  1  0.170619  0.400719  0.398258  1
  Si  Si154  1  0.329525  0.400719  0.528052  1
  Si  Si155  1  0.670619  0.599004  0.398258  1
  Si  Si156  1  0.829525  0.599011  0.528053  1
  Si  Si157  1  0.012395  0.342187  0.509143  1
  Si  Si158  1  0.487748  0.342181  0.379349  1
  Si  Si159  1  0.512396  0.657543  0.509143  1
  Si  Si160  1  0.987748  0.657542  0.379349  1
  Si  Si161  1  0.156310  0.577764  0.440378  1
  Si  Si162  1  0.343830  0.577764  0.570172  1
  Si  Si163  1  0.656309  0.421959  0.440378  1
  Si  Si164  1  0.843829  0.421966  0.570172  1
  Si  Si165  1  0.986141  0.152308  0.419234  1
  Si  Si166  1  0.514003  0.152308  0.549029  1
  Si  Si167  1  0.486141  0.847414  0.419234  1
  Si  Si168  1  0.014003  0.847421  0.549029  1
  Si  Si169  1  0.142857  0.853165  0.672390  1
  Si  Si170  1  0.642857  0.146557  0.672390  1
  Si  Si171  1  0.044223  0.659803  0.590004  1
  Si  Si172  1  0.455918  0.659798  0.719798  1
  Si  Si173  1  0.544222  0.339926  0.590004  1
  Si  Si174  1  0.955917  0.339926  0.719798  1
  Si  Si175  1  0.170619  0.400719  0.657847  1
  Si  Si176  1  0.670619  0.599004  0.657847  1
  Si  Si177  1  0.487748  0.342181  0.638937  1
  Si  Si178  1  0.987748  0.657542  0.638937  1
  Si  Si179  1  0.156310  0.577764  0.699967  1
  Si  Si180  1  0.656309  0.421959  0.699966  1
  Si  Si181  1  0.986141  0.152308  0.678823  1
  Si  Si182  1  0.486141  0.847414  0.678823  1
  H  H183  1  0.503101  0.309477  0.080511  1
  H  H184  1  0.003102  0.690249  0.080511  1
  H  H185  1  0.997040  0.309480  0.758467  1
  H  H186  1  0.497041  0.690246  0.758467  1
