# generated using pymatgen
data_Si15H2O31
_symmetry_space_group_name_H-M   'P 1'
_cell_length_a   11.40919207
_cell_length_b   26.79127551
_cell_length_c   66.99045606
_cell_angle_alpha   134.99934521
_cell_angle_beta   90.00000000
_cell_angle_gamma   90.00000000
_symmetry_Int_Tables_number   1
_chemical_formula_structural   Si15H2O31
_chemical_formula_sum   'Si120 H16 O248'
_cell_volume   14479.4205307
_cell_formula_units_Z   8
loop_
 _symmetry_equiv_pos_site_id
 _symmetry_equiv_pos_as_xyz
  1  'x, y, z'
loop_
 _atom_site_type_symbol
 _atom_site_label
 _atom_site_symmetry_multiplicity
 _atom_site_fract_x
 _atom_site_fract_y
 _atom_site_fract_z
 _atom_site_occupancy
  O  O1  1  0.000000  0.937068  0.217413  1
  O  O2  1  0.814656  0.964219  0.205820  1
  O  O3  1  0.814655  0.868917  0.205817  1
  O  O4  1  0.185237  0.964211  0.205814  1
  O  O5  1  0.185238  0.868917  0.205816  1
  O  O6  1  0.499943  0.930571  0.213738  1
  O  O7  1  0.708418  0.921036  0.161300  1
  O  O8  1  0.708400  0.754674  0.161298  1
  O  O9  1  0.291500  0.921040  0.161298  1
  O  O10  1  0.291482  0.754676  0.161296  1
  O  O11  1  0.314644  0.368921  0.226104  1
  O  O12  1  0.685226  0.368914  0.226105  1
  O  O13  1  -0.000000  0.105420  0.215533  1
  O  O14  1  0.790560  0.052157  0.202268  1
  O  O15  1  0.209343  0.052157  0.202266  1
  O  O16  1  0.613903  0.004447  0.208791  1
  O  O17  1  0.385991  0.004451  0.208792  1
  O  O18  1  0.208406  0.254675  0.206010  1
  O  O19  1  0.791486  0.254675  0.206012  1
  O  O20  1  0.000000  0.233896  0.214640  1
  O  O21  1  0.160636  0.168925  0.214479  1
  O  O22  1  0.839264  0.168926  0.214481  1
  O  O23  1  0.790545  0.768413  0.202263  1
  O  O24  1  0.209329  0.768409  0.202259  1
  O  O25  1  0.613898  0.839202  0.208791  1
  O  O26  1  0.385988  0.839197  0.208789  1
  O  O27  1  0.160627  0.694827  0.214472  1
  O  O28  1  0.839253  0.694829  0.214475  1
  O  O29  1  0.000000  0.762055  0.215526  1
  O  O30  1  0.314674  0.535967  0.226104  1
  O  O31  1  0.685258  0.535950  0.226105  1
  O  O32  1  0.290569  0.448018  0.172815  1
  O  O33  1  0.709350  0.448013  0.172817  1
  O  O34  1  0.113922  0.495720  0.206323  1
  O  O35  1  0.113891  0.339196  0.206322  1
  O  O36  1  0.886010  0.495724  0.206322  1
  O  O37  1  0.885980  0.339203  0.206325  1
  O  O38  1  -0.000000  0.437336  0.217564  1
  O  O39  1  0.208402  0.579133  0.206004  1
  O  O40  1  0.791485  0.579135  0.206009  1
  O  O41  1  0.000000  0.630425  0.214634  1
  O  O42  1  0.499958  0.394752  0.155957  1
  O  O43  1  0.499944  0.262055  0.155957  1
  O  O44  1  0.290549  0.268414  0.172816  1
  O  O45  1  0.709333  0.268409  0.172817  1
  O  O46  1  0.660633  0.194826  0.118987  1
  O  O47  1  0.339258  0.194831  0.118987  1
  O  O48  1  0.654775  0.329384  0.156513  1
  O  O49  1  0.345128  0.329388  0.156513  1
  O  O50  1  0.339273  0.331247  0.118987  1
  O  O51  1  0.660645  0.331243  0.118988  1
  O  O52  1  0.499963  0.738120  0.350151  1
  O  O53  1  0.339258  0.668928  0.387118  1
  O  O54  1  0.000000  0.937068  0.500201  1
  O  O55  1  0.814656  0.964219  0.488608  1
  O  O56  1  0.814655  0.868917  0.488605  1
  O  O57  1  0.185237  0.964211  0.488602  1
  O  O58  1  0.185238  0.868917  0.488603  1
  O  O59  1  0.290573  0.731765  0.333290  1
  O  O60  1  0.709359  0.731758  0.333291  1
  O  O61  1  0.499943  0.930571  0.496525  1
  O  O62  1  0.708418  0.921036  0.444088  1
  O  O63  1  0.708400  0.754674  0.444086  1
  O  O64  1  0.291500  0.921040  0.444086  1
  O  O65  1  0.291482  0.754676  0.444084  1
  O  O66  1  0.648940  0.801589  0.423575  1
  O  O67  1  0.350961  0.801593  0.423574  1
  O  O68  1  0.499959  0.869748  0.423706  1
  O  O69  1  0.499943  0.733896  0.423704  1
  O  O70  1  0.660648  0.805343  0.387121  1
  O  O71  1  0.339274  0.805348  0.387120  1
  O  O72  1  0.654777  0.670785  0.349595  1
  O  O73  1  0.345131  0.670790  0.349593  1
  O  O74  1  0.660630  0.668923  0.387119  1
  O  O75  1  0.499945  0.605420  0.350149  1
  O  O76  1  0.499935  0.437069  0.253053  1
  O  O77  1  0.314641  0.464223  0.280001  1
  O  O78  1  0.314644  0.368921  0.508891  1
  O  O79  1  0.685222  0.464207  0.280003  1
  O  O80  1  0.685226  0.368914  0.508893  1
  O  O81  1  0.290551  0.552160  0.333289  1
  O  O82  1  0.709335  0.552154  0.333291  1
  O  O83  1  0.113889  0.504448  0.299784  1
  O  O84  1  0.113922  0.660970  0.299782  1
  O  O85  1  0.885976  0.504451  0.299782  1
  O  O86  1  0.886010  0.660972  0.299783  1
  O  O87  1  -0.000000  0.562835  0.288542  1
  O  O88  1  -0.000000  0.430571  0.253053  1
  O  O89  1  0.208415  0.421038  0.300098  1
  O  O90  1  0.791497  0.421038  0.300101  1
  O  O91  1  0.000000  0.369748  0.291472  1
  O  O92  1  0.000000  0.105420  0.498320  1
  O  O93  1  0.163380  -0.000000  0.253052  1
  O  O94  1  0.790560  0.052157  0.485056  1
  O  O95  1  0.790571  0.231762  0.303847  1
  O  O96  1  0.209343  0.052157  0.485053  1
  O  O97  1  0.209357  0.231761  0.303845  1
  O  O98  1  0.613903  0.004447  0.491578  1
  O  O99  1  0.613921  0.160969  0.297316  1
  O  O100  1  0.385991  0.004451  0.491580  1
  O  O101  1  0.386009  0.160974  0.297318  1
  O  O102  1  0.499957  0.062835  0.253054  1
  O  O103  1  0.208406  0.254675  0.488798  1
  O  O104  1  0.791486  0.254675  0.488800  1
  O  O105  1  0.148942  0.301589  0.253055  1
  O  O106  1  0.850963  0.301592  0.253057  1
  O  O107  1  0.000000  0.233896  0.497427  1
  O  O108  1  0.160647  0.305345  0.291633  1
  O  O109  1  0.160636  0.168925  0.497266  1
  O  O110  1  0.839273  0.305346  0.291635  1
  O  O111  1  0.839264  0.168926  0.497268  1
  O  O112  1  0.154780  0.170787  0.253056  1
  O  O113  1  0.845134  0.170788  0.253058  1
  O  O114  1  0.000000  0.238120  0.290582  1
  O  O115  1  0.836532  0.000000  0.253055  1
  O  O116  1  0.790562  0.948017  0.303842  1
  O  O117  1  0.790545  0.768413  0.485050  1
  O  O118  1  0.209344  0.948015  0.303840  1
  O  O119  1  0.209329  0.768409  0.485046  1
  O  O120  1  0.613920  0.995720  0.297313  1
  O  O121  1  0.613898  0.839202  0.491579  1
  O  O122  1  0.386007  0.995725  0.297318  1
  O  O123  1  0.385988  0.839197  0.491576  1
  O  O124  1  0.499938  0.937336  0.253053  1
  O  O125  1  0.208417  0.745496  0.300094  1
  O  O126  1  0.791497  0.745496  0.300097  1
  O  O127  1  0.148938  0.698579  0.253049  1
  O  O128  1  0.850959  0.698583  0.253052  1
  O  O129  1  0.000000  0.766275  0.291467  1
  O  O130  1  0.160627  0.694827  0.497260  1
  O  O131  1  0.160639  0.831244  0.291625  1
  O  O132  1  0.839253  0.694829  0.497263  1
  O  O133  1  0.839268  0.831247  0.291629  1
  O  O134  1  0.154769  0.829386  0.253049  1
  O  O135  1  0.845122  0.829387  0.253052  1
  O  O136  1  0.000000  0.762055  0.498313  1
  O  O137  1  0.000000  0.894752  0.290575  1
  O  O138  1  0.336525  0.500087  0.253050  1
  O  O139  1  0.663373  0.500084  0.253055  1
  O  O140  1  0.499963  0.563102  0.253053  1
  O  O141  1  0.314674  0.535967  0.508892  1
  O  O142  1  0.314675  0.631257  0.280002  1
  O  O143  1  0.685258  0.535950  0.508893  1
  O  O144  1  0.685254  0.631251  0.280003  1
  O  O145  1  0.290569  0.448018  0.455603  1
  O  O146  1  0.709350  0.448013  0.455604  1
  O  O147  1  0.113922  0.495720  0.489111  1
  O  O148  1  0.113891  0.339196  0.489110  1
  O  O149  1  0.886010  0.495724  0.489110  1
  O  O150  1  0.885980  0.339203  0.489112  1
  O  O151  1  0.000000  0.437336  0.500352  1
  O  O152  1  -0.000000  0.569600  0.253053  1
  O  O153  1  0.208402  0.579133  0.488792  1
  O  O154  1  0.791485  0.579135  0.488796  1
  O  O155  1  -0.000000  0.630425  0.497422  1
  O  O156  1  0.499958  0.394752  0.438745  1
  O  O157  1  0.499944  0.262055  0.438744  1
  O  O158  1  -0.000000  0.063102  0.288694  1
  O  O159  1  0.814674  0.035962  0.300294  1
  O  O160  1  0.814675  0.131254  0.300291  1
  O  O161  1  0.185258  0.035954  0.300288  1
  O  O162  1  0.185253  0.131253  0.300288  1
  O  O163  1  0.290549  0.268414  0.455604  1
  O  O164  1  0.709333  0.268409  0.455605  1
  O  O165  1  0.499957  0.069600  0.292370  1
  O  O166  1  0.708405  0.079133  0.344808  1
  O  O167  1  0.708421  0.245493  0.344809  1
  O  O168  1  0.291487  0.079136  0.344808  1
  O  O169  1  0.291499  0.245497  0.344809  1
  O  O170  1  0.648942  0.198578  0.365320  1
  O  O171  1  0.350963  0.198583  0.365320  1
  O  O172  1  0.499947  0.130425  0.365189  1
  O  O173  1  0.499959  0.266274  0.365189  1
  O  O174  1  0.660633  0.194826  0.401775  1
  O  O175  1  0.339258  0.194831  0.401775  1
  O  O176  1  0.654775  0.329384  0.439301  1
  O  O177  1  0.345128  0.329388  0.439300  1
  O  O178  1  0.339273  0.331247  0.401775  1
  O  O179  1  0.660645  0.331243  0.401775  1
  O  O180  1  0.499963  0.738120  0.632939  1
  O  O181  1  0.339258  0.668928  0.669905  1
  O  O182  1  0.290573  0.731765  0.616077  1
  O  O183  1  0.709359  0.731758  0.616079  1
  O  O184  1  0.660648  0.805343  0.669909  1
  O  O185  1  0.339274  0.805348  0.669907  1
  O  O186  1  0.654777  0.670785  0.632383  1
  O  O187  1  0.345131  0.670790  0.632381  1
  O  O188  1  0.660630  0.668923  0.669907  1
  O  O189  1  0.499945  0.605420  0.632936  1
  O  O190  1  0.499935  0.437069  0.535841  1
  O  O191  1  0.314641  0.464223  0.562789  1
  O  O192  1  0.685222  0.464207  0.562790  1
  O  O193  1  0.290551  0.552160  0.616077  1
  O  O194  1  0.709335  0.552154  0.616078  1
  O  O195  1  0.113889  0.504448  0.582572  1
  O  O196  1  0.113922  0.660970  0.582570  1
  O  O197  1  0.885976  0.504451  0.582569  1
  O  O198  1  0.886010  0.660972  0.582570  1
  O  O199  1  -0.000000  0.562835  0.571329  1
  O  O200  1  -0.000000  0.430571  0.535841  1
  O  O201  1  0.208415  0.421038  0.582886  1
  O  O202  1  0.791497  0.421038  0.582889  1
  O  O203  1  0.000000  0.369748  0.574260  1
  O  O204  1  0.163380  -0.000000  0.535839  1
  O  O205  1  0.790571  0.231762  0.586635  1
  O  O206  1  0.209357  0.231761  0.586633  1
  O  O207  1  0.613921  0.160969  0.580104  1
  O  O208  1  0.386009  0.160974  0.580105  1
  O  O209  1  0.499957  0.062835  0.535842  1
  O  O210  1  0.148942  0.301589  0.535842  1
  O  O211  1  0.850963  0.301592  0.535845  1
  O  O212  1  0.160647  0.305345  0.574420  1
  O  O213  1  0.839273  0.305346  0.574422  1
  O  O214  1  0.154780  0.170787  0.535844  1
  O  O215  1  0.845134  0.170788  0.535846  1
  O  O216  1  0.000000  0.238120  0.573370  1
  O  O217  1  0.836532  -0.000000  0.535843  1
  O  O218  1  0.790562  0.948017  0.586630  1
  O  O219  1  0.209344  0.948015  0.586628  1
  O  O220  1  0.613920  0.995720  0.580101  1
  O  O221  1  0.386007  0.995725  0.580106  1
  O  O222  1  0.499938  0.937336  0.535841  1
  O  O223  1  0.208417  0.745496  0.582882  1
  O  O224  1  0.791497  0.745496  0.582884  1
  O  O225  1  0.148938  0.698579  0.535837  1
  O  O226  1  0.850959  0.698583  0.535840  1
  O  O227  1  0.000000  0.766275  0.574255  1
  O  O228  1  0.160639  0.831244  0.574413  1
  O  O229  1  0.839268  0.831247  0.574417  1
  O  O230  1  0.154769  0.829386  0.535837  1
  O  O231  1  0.845122  0.829387  0.535839  1
  O  O232  1  0.000000  0.894752  0.573363  1
  O  O233  1  0.336525  0.500087  0.535838  1
  O  O234  1  0.663373  0.500084  0.535843  1
  O  O235  1  0.499963  0.563102  0.535841  1
  O  O236  1  0.314675  0.631257  0.562789  1
  O  O237  1  0.685254  0.631251  0.562791  1
  O  O238  1  0.000000  0.569600  0.535840  1
  O  O239  1  0.000000  0.063102  0.571482  1
  O  O240  1  0.814674  0.035962  0.583081  1
  O  O241  1  0.814675  0.131254  0.583078  1
  O  O242  1  0.185258  0.035954  0.583075  1
  O  O243  1  0.185253  0.131253  0.583076  1
  O  O244  1  0.499957  0.069600  0.575157  1
  O  O245  1  0.708405  0.079133  0.627596  1
  O  O246  1  0.708421  0.245493  0.627597  1
  O  O247  1  0.291487  0.079136  0.627596  1
  O  O248  1  0.291499  0.245497  0.627596  1
  Si  Si249  1  0.735044  0.985827  0.193949  1
  Si  Si250  1  0.735034  0.805335  0.193947  1
  Si  Si251  1  0.264859  0.985826  0.193947  1
  Si  Si252  1  0.264851  0.805333  0.193945  1
  Si  Si253  1  0.864318  0.942441  0.220453  1
  Si  Si254  1  0.135580  0.942441  0.220450  1
  Si  Si255  1  0.499941  0.884694  0.220421  1
  Si  Si256  1  0.235032  0.305335  0.202013  1
  Si  Si257  1  0.764848  0.305333  0.202015  1
  Si  Si258  1  0.135116  0.236592  0.220392  1
  Si  Si259  1  0.864781  0.236592  0.220393  1
  Si  Si260  1  0.135350  0.122179  0.220465  1
  Si  Si261  1  0.864555  0.122179  0.220467  1
  Si  Si262  1  0.499948  0.000000  0.220422  1
  Si  Si263  1  0.135337  0.762742  0.220458  1
  Si  Si264  1  0.864542  0.762743  0.220460  1
  Si  Si265  1  0.235050  0.514348  0.202011  1
  Si  Si266  1  0.764865  0.514343  0.202013  1
  Si  Si267  1  0.135110  0.648070  0.220385  1
  Si  Si268  1  0.864775  0.648072  0.220388  1
  Si  Si269  1  0.635355  0.377992  0.151413  1
  Si  Si270  1  0.364560  0.377995  0.151412  1
  Si  Si271  1  -0.000000  0.500088  0.220423  1
  Si  Si272  1  0.000000  0.384694  0.220423  1
  Si  Si273  1  0.635343  0.262741  0.151412  1
  Si  Si274  1  0.364548  0.262745  0.151412  1
  Si  Si275  1  0.735044  0.985827  0.476737  1
  Si  Si276  1  0.735034  0.805335  0.476735  1
  Si  Si277  1  0.264859  0.985826  0.476735  1
  Si  Si278  1  0.264851  0.805333  0.476732  1
  Si  Si279  1  0.635126  0.852100  0.419479  1
  Si  Si280  1  0.635112  0.736590  0.419477  1
  Si  Si281  1  0.364791  0.852103  0.419477  1
  Si  Si282  1  0.364777  0.736593  0.419475  1
  Si  Si283  1  0.635359  0.737429  0.354696  1
  Si  Si284  1  0.364564  0.737434  0.354695  1
  Si  Si285  1  0.864318  0.942441  0.503241  1
  Si  Si286  1  0.135580  0.942441  0.503238  1
  Si  Si287  1  0.499941  0.884694  0.503209  1
  Si  Si288  1  0.235035  0.485830  0.304094  1
  Si  Si289  1  0.764850  0.485824  0.304094  1
  Si  Si290  1  0.135125  0.352102  0.285720  1
  Si  Si291  1  0.864789  0.352102  0.285721  1
  Si  Si292  1  0.635343  0.622177  0.354694  1
  Si  Si293  1  0.364549  0.622181  0.354693  1
  Si  Si294  1  0.364306  0.442445  0.253052  1
  Si  Si295  1  0.635567  0.442438  0.253054  1
  Si  Si296  1  0.000000  0.500084  0.285683  1
  Si  Si297  1  0.235032  0.305335  0.484801  1
  Si  Si298  1  0.764848  0.305333  0.484803  1
  Si  Si299  1  0.135116  0.236592  0.503179  1
  Si  Si300  1  0.864781  0.236592  0.503181  1
  Si  Si301  1  0.135359  0.237431  0.285647  1
  Si  Si302  1  0.135350  0.122179  0.503253  1
  Si  Si303  1  0.864563  0.237432  0.285649  1
  Si  Si304  1  0.864555  0.122179  0.503254  1
  Si  Si305  1  0.499948  -0.000000  0.503210  1
  Si  Si306  1  0.499962  0.115477  0.285686  1
  Si  Si307  1  0.235055  0.694839  0.304092  1
  Si  Si308  1  0.764870  0.694835  0.304093  1
  Si  Si309  1  0.135122  0.763579  0.285713  1
  Si  Si310  1  0.864786  0.763580  0.285715  1
  Si  Si311  1  0.135337  0.762742  0.503246  1
  Si  Si312  1  0.135349  0.877993  0.285640  1
  Si  Si313  1  0.864542  0.762743  0.503248  1
  Si  Si314  1  0.864554  0.877994  0.285643  1
  Si  Si315  1  0.235050  0.514348  0.484799  1
  Si  Si316  1  0.764865  0.514343  0.484800  1
  Si  Si317  1  0.135110  0.648070  0.503173  1
  Si  Si318  1  0.864775  0.648072  0.503175  1
  Si  Si319  1  0.635355  0.377992  0.434201  1
  Si  Si320  1  0.364560  0.377995  0.434200  1
  Si  Si321  1  0.364331  0.557733  0.253052  1
  Si  Si322  1  0.635592  0.557727  0.253054  1
  Si  Si323  1  0.000000  0.500088  0.503211  1
  Si  Si324  1  0.000000  0.615477  0.285683  1
  Si  Si325  1  0.000000  0.384694  0.503211  1
  Si  Si326  1  0.735049  0.014346  0.312160  1
  Si  Si327  1  0.735055  0.194836  0.312161  1
  Si  Si328  1  0.264863  0.014345  0.312159  1
  Si  Si329  1  0.264870  0.194837  0.312160  1
  Si  Si330  1  0.635115  0.148070  0.369417  1
  Si  Si331  1  0.635126  0.263578  0.369418  1
  Si  Si332  1  0.364780  0.148072  0.369417  1
  Si  Si333  1  0.364790  0.263580  0.369417  1
  Si  Si334  1  0.635343  0.262741  0.434200  1
  Si  Si335  1  0.364548  0.262745  0.434200  1
  Si  Si336  1  0.864333  0.057730  0.285657  1
  Si  Si337  1  0.135594  0.057729  0.285654  1
  Si  Si338  1  0.499957  -0.000000  0.285685  1
  Si  Si339  1  0.635359  0.737429  0.637484  1
  Si  Si340  1  0.364564  0.737434  0.637483  1
  Si  Si341  1  0.235035  0.485830  0.586881  1
  Si  Si342  1  0.764850  0.485824  0.586882  1
  Si  Si343  1  0.135125  0.352102  0.568507  1
  Si  Si344  1  0.864789  0.352102  0.568509  1
  Si  Si345  1  0.635343  0.622177  0.637482  1
  Si  Si346  1  0.364549  0.622181  0.637481  1
  Si  Si347  1  0.364306  0.442445  0.535839  1
  Si  Si348  1  0.635567  0.442438  0.535841  1
  Si  Si349  1  -0.000000  0.500084  0.568471  1
  Si  Si350  1  0.135359  0.237431  0.568435  1
  Si  Si351  1  0.864563  0.237432  0.568437  1
  Si  Si352  1  0.499962  0.115477  0.568474  1
  Si  Si353  1  0.235055  0.694839  0.586879  1
  Si  Si354  1  0.764870  0.694835  0.586881  1
  Si  Si355  1  0.135122  0.763579  0.568501  1
  Si  Si356  1  0.864786  0.763580  0.568503  1
  Si  Si357  1  0.135349  0.877993  0.568428  1
  Si  Si358  1  0.864554  0.877994  0.568430  1
  Si  Si359  1  0.364331  0.557733  0.535839  1
  Si  Si360  1  0.635592  0.557727  0.535842  1
  Si  Si361  1  0.000000  0.615477  0.568471  1
  Si  Si362  1  0.735049  0.014346  0.594947  1
  Si  Si363  1  0.735055  0.194836  0.594949  1
  Si  Si364  1  0.264863  0.014345  0.594946  1
  Si  Si365  1  0.264870  0.194837  0.594947  1
  Si  Si366  1  0.864333  0.057730  0.568445  1
  Si  Si367  1  0.135594  0.057729  0.568442  1
  Si  Si368  1  0.499957  0.000000  0.568473  1
  H  H369  1  0.708418  0.921036  0.147866  1
  H  H370  1  0.708400  0.754674  0.147863  1
  H  H371  1  0.291500  0.921040  0.147864  1
  H  H372  1  0.291482  0.754676  0.147861  1
  H  H373  1  0.660633  0.194826  0.105552  1
  H  H374  1  0.339258  0.194831  0.105552  1
  H  H375  1  0.339273  0.331247  0.105552  1
  H  H376  1  0.660645  0.331243  0.105553  1
  H  H377  1  0.339258  0.668928  0.683340  1
  H  H378  1  0.660648  0.805343  0.683344  1
  H  H379  1  0.339274  0.805348  0.683342  1
  H  H380  1  0.660630  0.668923  0.683342  1
  H  H381  1  0.708405  0.079133  0.641031  1
  H  H382  1  0.708421  0.245493  0.641032  1
  H  H383  1  0.291487  0.079136  0.641030  1
  H  H384  1  0.291499  0.245497  0.641031  1
