# generated using pymatgen
data_Si27(HO14)4
_symmetry_space_group_name_H-M   'P 1'
_cell_length_a   14.33040949
_cell_length_b   8.45279806
_cell_length_c   52.86571150
_cell_angle_alpha   90.00000000
_cell_angle_beta   90.00000000
_cell_angle_gamma   90.00000000
_symmetry_Int_Tables_number   1
_chemical_formula_structural   Si27(HO14)4
_chemical_formula_sum   'Si54 H8 O112'
_cell_volume   6403.73240668
_cell_formula_units_Z   2
loop_
 _symmetry_equiv_pos_site_id
 _symmetry_equiv_pos_as_xyz
  1  'x, y, z'
loop_
 _atom_site_type_symbol
 _atom_site_label
 _atom_site_symmetry_multiplicity
 _atom_site_fract_x
 _atom_site_fract_y
 _atom_site_fract_z
 _atom_site_occupancy
  O  O1  1  0.559447  0.721511  0.261251  1
  O  O2  1  0.440654  0.721726  0.369315  1
  O  O3  1  0.056819  0.779517  0.189018  1
  O  O4  1  0.444403  0.279919  0.189651  1
  O  O5  1  0.057276  0.220088  0.369669  1
  O  O6  1  0.945364  0.227813  0.261152  1
  O  O7  1  0.403455  0.608130  0.244516  1
  O  O8  1  0.596296  0.604967  0.386190  1
  O  O9  1  0.901480  0.895789  0.206142  1
  O  O10  1  0.599238  0.392453  0.206796  1
  O  O11  1  0.902793  0.105934  0.387179  1
  O  O12  1  0.095488  0.107752  0.243753  1
  O  O13  1  0.289795  0.497545  0.210998  1
  O  O14  1  0.212235  0.995291  0.390386  1
  O  O15  1  0.783114  0.989928  0.239860  1
  O  O16  1  0.714819  0.495230  0.240491  1
  O  O17  1  0.286032  0.496051  0.390474  1
  O  O18  1  0.214349  0.003684  0.210677  1
  O  O19  1  0.281115  0.305074  0.174535  1
  O  O20  1  0.217231  0.191689  0.354977  1
  O  O21  1  0.782686  0.194482  0.274599  1
  O  O22  1  0.725012  0.700899  0.275414  1
  O  O23  1  0.276341  0.693365  0.354841  1
  O  O24  1  0.220495  0.809893  0.174580  1
  O  O25  1  0.584357  0.765686  0.304662  1
  O  O26  1  0.916143  0.734441  0.124833  1
  O  O27  1  0.415410  0.765418  0.325945  1
  O  O28  1  0.086228  0.731242  0.145508  1
  O  O29  1  0.417015  0.226093  0.145528  1
  O  O30  1  0.084251  0.274266  0.325183  1
  O  O31  1  0.917617  0.272342  0.305158  1
  O  O32  1  0.469805  0.566370  0.291273  1
  O  O33  1  0.033298  0.935576  0.111604  1
  O  O34  1  0.530315  0.566248  0.339361  1
  O  O35  1  0.970556  0.937052  0.159582  1
  O  O36  1  0.530457  0.426383  0.159829  1
  O  O37  1  0.972361  0.071559  0.339968  1
  O  O38  1  0.030999  0.070606  0.291124  1
  O  O39  1  0.454071  0.561645  0.200037  1
  O  O40  1  0.045387  0.932224  0.379908  1
  O  O41  1  0.949711  0.942553  0.251419  1
  O  O42  1  0.548677  0.437701  0.251457  1
  O  O43  1  0.450959  0.438419  0.379055  1
  O  O44  1  0.049513  0.062657  0.199209  1
  O  O45  1  0.656650  0.978347  0.272338  1
  O  O46  1  0.340820  0.974888  0.358339  1
  O  O47  1  0.162080  0.527957  0.179325  1
  O  O48  1  0.342353  0.027187  0.179560  1
  O  O49  1  0.156973  0.471581  0.359090  1
  O  O50  1  0.843711  0.476182  0.271849  1
  O  O51  1  0.161157  0.288397  0.209107  1
  O  O52  1  0.338689  0.211325  0.388413  1
  O  O53  1  0.657737  0.207500  0.241163  1
  O  O54  1  0.843280  0.709620  0.240686  1
  O  O55  1  0.159781  0.712756  0.389213  1
  O  O56  1  0.338437  0.783626  0.208983  1
  O  O57  1  0.559447  0.721511  0.621128  1
  O  O58  1  0.940980  0.778090  0.441652  1
  O  O59  1  0.056819  0.779517  0.548895  1
  O  O60  1  0.444403  0.279919  0.549528  1
  O  O61  1  0.556913  0.276216  0.440810  1
  O  O62  1  0.945364  0.227813  0.621030  1
  O  O63  1  0.403455  0.608130  0.604393  1
  O  O64  1  0.096932  0.893313  0.424705  1
  O  O65  1  0.901480  0.895789  0.566019  1
  O  O66  1  0.599238  0.392453  0.566674  1
  O  O67  1  0.402866  0.391852  0.423461  1
  O  O68  1  0.095488  0.107752  0.603630  1
  O  O69  1  0.289795  0.497545  0.570875  1
  O  O70  1  0.712846  0.501843  0.420044  1
  O  O71  1  0.783114  0.989928  0.599737  1
  O  O72  1  0.714819  0.495230  0.600368  1
  O  O73  1  0.784289  0.011299  0.421066  1
  O  O74  1  0.214349  0.003684  0.570554  1
  O  O75  1  0.281115  0.305074  0.534412  1
  O  O76  1  0.719484  0.298395  0.454738  1
  O  O77  1  0.782686  0.194482  0.634477  1
  O  O78  1  0.725012  0.700899  0.635292  1
  O  O79  1  0.776492  0.807219  0.456083  1
  O  O80  1  0.220495  0.809893  0.534458  1
  O  O81  1  0.584357  0.765686  0.664540  1
  O  O82  1  0.916143  0.734441  0.484710  1
  O  O83  1  0.415410  0.765418  0.685823  1
  O  O84  1  0.086228  0.731242  0.505386  1
  O  O85  1  0.417015  0.226093  0.505406  1
  O  O86  1  0.583309  0.224282  0.485244  1
  O  O87  1  0.917617  0.272342  0.665035  1
  O  O88  1  0.469805  0.566370  0.651150  1
  O  O89  1  0.033298  0.935576  0.471481  1
  O  O90  1  0.530315  0.566248  0.699238  1
  O  O91  1  0.970556  0.937052  0.519460  1
  O  O92  1  0.530457  0.426383  0.519707  1
  O  O93  1  0.471718  0.425801  0.470618  1
  O  O94  1  0.030999  0.070606  0.651001  1
  O  O95  1  0.454071  0.561645  0.559914  1
  O  O96  1  0.546016  0.564831  0.430971  1
  O  O97  1  0.949711  0.942553  0.611297  1
  O  O98  1  0.548677  0.437701  0.611334  1
  O  O99  1  0.952134  0.061290  0.431871  1
  O  O100  1  0.049513  0.062657  0.559087  1
  O  O101  1  0.656650  0.978347  0.632215  1
  O  O102  1  0.840285  0.524496  0.452567  1
  O  O103  1  0.162080  0.527957  0.539202  1
  O  O104  1  0.342353  0.027187  0.539437  1
  O  O105  1  0.651672  0.019389  0.452194  1
  O  O106  1  0.843711  0.476182  0.631727  1
  O  O107  1  0.161157  0.288397  0.568985  1
  O  O108  1  0.844346  0.294212  0.421444  1
  O  O109  1  0.657737  0.207500  0.601040  1
  O  O110  1  0.843280  0.709620  0.600564  1
  O  O111  1  0.660510  0.784854  0.421431  1
  O  O112  1  0.338437  0.783626  0.568861  1
  Si  Si113  1  0.637979  0.804331  0.278590  1
  Si  Si114  1  0.361307  0.802244  0.351940  1
  Si  Si115  1  0.135358  0.701557  0.171395  1
  Si  Si116  1  0.367901  0.200803  0.171572  1
  Si  Si117  1  0.130478  0.300713  0.351255  1
  Si  Si118  1  0.870847  0.302512  0.279118  1
  Si  Si119  1  0.486620  0.576789  0.262069  1
  Si  Si120  1  0.513355  0.576592  0.368548  1
  Si  Si121  1  0.984967  0.925559  0.188767  1
  Si  Si122  1  0.515792  0.424320  0.189567  1
  Si  Si123  1  0.987516  0.072024  0.370313  1
  Si  Si124  1  0.011917  0.081022  0.262211  1
  Si  Si125  1  0.222540  0.398864  0.193479  1
  Si  Si126  1  0.280013  0.091119  0.372917  1
  Si  Si127  1  0.716538  0.094054  0.257003  1
  Si  Si128  1  0.782759  0.600876  0.257046  1
  Si  Si129  1  0.219018  0.593696  0.373278  1
  Si  Si130  1  0.279631  0.902896  0.193446  1
  Si  Si131  1  0.370684  0.616061  0.216977  1
  Si  Si132  1  0.127138  0.883964  0.396923  1
  Si  Si133  1  0.869282  0.879608  0.233640  1
  Si  Si134  1  0.632041  0.377596  0.234377  1
  Si  Si135  1  0.368361  0.381063  0.396141  1
  Si  Si136  1  0.133018  0.120799  0.216149  1
  Si  Si137  1  0.004472  0.840393  0.135906  1
  Si  Si138  1  0.499914  0.661061  0.315352  1
  Si  Si139  1  0.002120  0.171082  0.314746  1
  Si  Si140  1  0.637979  0.804331  0.638468  1
  Si  Si141  1  0.861280  0.697588  0.458737  1
  Si  Si142  1  0.135358  0.701557  0.531272  1
  Si  Si143  1  0.367901  0.200803  0.531449  1
  Si  Si144  1  0.630382  0.191023  0.459207  1
  Si  Si145  1  0.870847  0.302512  0.638996  1
  Si  Si146  1  0.486620  0.576789  0.621947  1
  Si  Si147  1  0.014582  0.921885  0.442541  1
  Si  Si148  1  0.984967  0.925559  0.548644  1
  Si  Si149  1  0.515792  0.424320  0.549445  1
  Si  Si150  1  0.487300  0.425620  0.440434  1
  Si  Si151  1  0.011917  0.081022  0.622089  1
  Si  Si152  1  0.222540  0.398864  0.553356  1
  Si  Si153  1  0.782971  0.405553  0.437187  1
  Si  Si154  1  0.716538  0.094054  0.616880  1
  Si  Si155  1  0.782759  0.600876  0.616924  1
  Si  Si156  1  0.717095  0.907064  0.437917  1
  Si  Si157  1  0.279631  0.902896  0.553323  1
  Si  Si158  1  0.370684  0.616061  0.576855  1
  Si  Si159  1  0.627448  0.613476  0.413896  1
  Si  Si160  1  0.869282  0.879608  0.593517  1
  Si  Si161  1  0.632041  0.377596  0.594255  1
  Si  Si162  1  0.869327  0.123097  0.414642  1
  Si  Si163  1  0.133018  0.120799  0.576026  1
  Si  Si164  1  0.004472  0.840393  0.495783  1
  Si  Si165  1  0.499914  0.661061  0.675230  1
  Si  Si166  1  0.500555  0.326962  0.495333  1
  H  H167  1  0.916143  0.734441  0.107809  1
  H  H168  1  0.417015  0.226093  0.128504  1
  H  H169  1  0.033298  0.935576  0.094579  1
  H  H170  1  0.530457  0.426383  0.142805  1
  H  H171  1  0.415410  0.765418  0.702847  1
  H  H172  1  0.917617  0.272342  0.682059  1
  H  H173  1  0.530315  0.566248  0.716262  1
  H  H174  1  0.030999  0.070606  0.668025  1
