# generated using pymatgen
data_Si8H2O17
_symmetry_space_group_name_H-M   'P 1'
_cell_length_a   9.73031253
_cell_length_b   14.04245113
_cell_length_c   35.81058213
_cell_angle_alpha   90.00000000
_cell_angle_beta   90.00000000
_cell_angle_gamma   90.00000000
_symmetry_Int_Tables_number   1
_chemical_formula_structural   Si8H2O17
_chemical_formula_sum   'Si32 H8 O68'
_cell_volume   4893.06620152
_cell_formula_units_Z   4
loop_
 _symmetry_equiv_pos_site_id
 _symmetry_equiv_pos_as_xyz
  1  'x, y, z'
loop_
 _atom_site_type_symbol
 _atom_site_label
 _atom_site_symmetry_multiplicity
 _atom_site_fract_x
 _atom_site_fract_y
 _atom_site_fract_z
 _atom_site_occupancy
  O  O1  1  -0.000000  0.041051  0.510824  1
  O  O2  1  0.499828  0.041084  0.315216  1
  O  O3  1  -0.000000  0.541084  0.209929  1
  O  O4  1  0.499896  0.541051  0.405535  1
  O  O5  1  -0.000000  0.958844  0.209931  1
  O  O6  1  0.499984  0.958862  0.405535  1
  O  O7  1  -0.000000  0.458862  0.510824  1
  O  O8  1  0.499925  0.458844  0.315212  1
  O  O9  1  0.822339  0.921414  0.489776  1
  O  O10  1  0.322235  0.921383  0.294198  1
  O  O11  1  0.177576  0.921370  0.489803  1
  O  O12  1  0.677474  0.921446  0.294178  1
  O  O13  1  0.822296  0.421446  0.230956  1
  O  O14  1  0.322286  0.421370  0.426565  1
  O  O15  1  0.177535  0.421383  0.230955  1
  O  O16  1  0.677524  0.421414  0.426574  1
  O  O17  1  0.177474  0.078490  0.230972  1
  O  O18  1  0.677575  0.078552  0.426561  1
  O  O19  1  0.822236  0.078537  0.230944  1
  O  O20  1  0.322340  0.078491  0.426582  1
  O  O21  1  0.177522  0.578491  0.489787  1
  O  O22  1  0.677535  0.578537  0.294190  1
  O  O23  1  0.822287  0.578552  0.489788  1
  O  O24  1  0.322296  0.578490  0.294182  1
  O  O25  1  0.807652  -0.000000  0.164756  1
  O  O26  1  0.307651  0.000000  0.360390  1
  O  O27  1  0.192160  0.000000  0.164782  1
  O  O28  1  0.692161  0.000000  0.360363  1
  O  O29  1  0.807655  0.500024  0.164770  1
  O  O30  1  0.307656  0.499926  0.360372  1
  O  O31  1  0.192165  0.499942  0.164764  1
  O  O32  1  0.692164  0.499952  0.360378  1
  O  O33  1  0.750895  0.095346  0.494569  1
  O  O34  1  0.250702  0.095304  0.298985  1
  O  O35  1  0.249083  0.095295  0.494594  1
  O  O36  1  0.748891  0.095383  0.298949  1
  O  O37  1  0.750856  0.595379  0.226184  1
  O  O38  1  0.250802  0.595300  0.421777  1
  O  O39  1  0.249046  0.595309  0.226170  1
  O  O40  1  0.748990  0.595342  0.421779  1
  O  O41  1  0.248917  0.904558  0.226191  1
  O  O42  1  0.749110  0.904633  0.421761  1
  O  O43  1  0.750728  0.904611  0.226166  1
  O  O44  1  0.250919  0.904556  0.421797  1
  O  O45  1  0.248966  0.404560  0.494573  1
  O  O46  1  0.749020  0.404607  0.298966  1
  O  O47  1  0.750775  0.404628  0.494587  1
  O  O48  1  0.250831  0.404562  0.298964  1
  O  O49  1  0.812320  0.749984  0.459521  1
  O  O50  1  0.312274  0.749935  0.263940  1
  O  O51  1  0.187552  0.749930  0.459541  1
  O  O52  1  0.687492  0.749992  0.263939  1
  O  O53  1  0.812271  0.249992  0.261194  1
  O  O54  1  0.312317  0.249930  0.456828  1
  O  O55  1  0.187489  0.249935  0.261215  1
  O  O56  1  0.687549  0.249984  0.456828  1
  O  O57  1  -0.000000  0.868753  0.443484  1
  O  O58  1  0.499840  0.868758  0.247887  1
  O  O59  1  -0.000000  0.368758  0.277258  1
  O  O60  1  0.499892  0.368753  0.472875  1
  O  O61  1  -0.000000  0.131171  0.277259  1
  O  O62  1  0.499972  0.131162  0.472876  1
  O  O63  1  -0.000000  0.631162  0.443483  1
  O  O64  1  0.499928  0.631171  0.247885  1
  O  O65  1  0.807652  0.000000  0.555971  1
  O  O66  1  0.192160  -0.000000  0.555997  1
  O  O67  1  0.807655  0.500024  0.555985  1
  O  O68  1  0.192165  0.499942  0.555979  1
  Si  Si69  1  0.841913  0.015768  0.513369  1
  Si  Si70  1  0.341792  0.015757  0.317782  1
  Si  Si71  1  0.158007  0.015739  0.513389  1
  Si  Si72  1  0.657887  0.015815  0.317761  1
  Si  Si73  1  0.841884  0.515817  0.207375  1
  Si  Si74  1  0.341854  0.515737  0.402978  1
  Si  Si75  1  0.157978  0.515755  0.207370  1
  Si  Si76  1  0.657948  0.515770  0.402982  1
  Si  Si77  1  0.157899  0.984126  0.207385  1
  Si  Si78  1  0.658020  0.984190  0.402971  1
  Si  Si79  1  0.841805  0.984157  0.207365  1
  Si  Si80  1  0.341925  0.984133  0.402992  1
  Si  Si81  1  0.157936  0.484131  0.513375  1
  Si  Si82  1  0.657966  0.484159  0.317771  1
  Si  Si83  1  0.841842  0.484192  0.513380  1
  Si  Si84  1  0.341872  0.484124  0.317767  1
  Si  Si85  1  0.842046  0.859565  0.453235  1
  Si  Si86  1  0.341920  0.859527  0.257658  1
  Si  Si87  1  0.157905  0.859521  0.453260  1
  Si  Si88  1  0.657779  0.859571  0.257643  1
  Si  Si89  1  0.841981  0.359571  0.267492  1
  Si  Si90  1  0.341968  0.359522  0.463108  1
  Si  Si91  1  0.157840  0.359527  0.267495  1
  Si  Si92  1  0.657827  0.359564  0.463115  1
  Si  Si93  1  0.157767  0.140356  0.267508  1
  Si  Si94  1  0.657893  0.140393  0.463106  1
  Si  Si95  1  0.841908  0.140402  0.267483  1
  Si  Si96  1  0.342034  0.140351  0.463121  1
  Si  Si97  1  0.157839  0.640351  0.453248  1
  Si  Si98  1  0.657852  0.640401  0.257652  1
  Si  Si99  1  0.841980  0.640393  0.453244  1
  Si  Si100  1  0.341993  0.640357  0.257645  1
  H  H101  1  0.807652  0.000000  0.139624  1
  H  H102  1  0.192160  0.000000  0.139650  1
  H  H103  1  0.807655  0.500024  0.139638  1
  H  H104  1  0.192165  0.499942  0.139632  1
  H  H105  1  0.807652  0.000000  0.581103  1
  H  H106  1  0.192160  0.000000  0.581129  1
  H  H107  1  0.807655  0.500024  0.581117  1
  H  H108  1  0.192165  0.499942  0.581111  1
