# generated using pymatgen
data_Si45(HO23)4
_symmetry_space_group_name_H-M   'P 1'
_cell_length_a   14.33040949
_cell_length_b   8.45279806
_cell_length_c   71.89088521
_cell_angle_alpha   90.00000000
_cell_angle_beta   90.00000000
_cell_angle_gamma   90.00000000
_symmetry_Int_Tables_number   1
_chemical_formula_structural   Si45(HO23)4
_chemical_formula_sum   'Si90 H8 O184'
_cell_volume   8708.29084316
_cell_formula_units_Z   2
loop_
 _symmetry_equiv_pos_site_id
 _symmetry_equiv_pos_as_xyz
  1  'x, y, z'
loop_
 _atom_site_type_symbol
 _atom_site_label
 _atom_site_symmetry_multiplicity
 _atom_site_fract_x
 _atom_site_fract_y
 _atom_site_fract_z
 _atom_site_occupancy
  O  O1  1  0.559447  0.721511  0.192114  1
  O  O2  1  0.440654  0.721726  0.271580  1
  O  O3  1  0.056819  0.779517  0.138996  1
  O  O4  1  0.444403  0.279919  0.139462  1
  O  O5  1  0.057276  0.220088  0.271840  1
  O  O6  1  0.945364  0.227813  0.192041  1
  O  O7  1  0.403455  0.608130  0.179807  1
  O  O8  1  0.596296  0.604967  0.283989  1
  O  O9  1  0.901480  0.895789  0.151589  1
  O  O10  1  0.599238  0.392453  0.152070  1
  O  O11  1  0.902793  0.105934  0.284716  1
  O  O12  1  0.095488  0.107752  0.179246  1
  O  O13  1  0.289795  0.497545  0.155159  1
  O  O14  1  0.212235  0.995291  0.287074  1
  O  O15  1  0.783114  0.989928  0.176383  1
  O  O16  1  0.714819  0.495230  0.176847  1
  O  O17  1  0.286032  0.496051  0.287139  1
  O  O18  1  0.214349  0.003684  0.154923  1
  O  O19  1  0.281115  0.305074  0.128346  1
  O  O20  1  0.217231  0.191689  0.261036  1
  O  O21  1  0.782686  0.194482  0.201929  1
  O  O22  1  0.725012  0.700899  0.202529  1
  O  O23  1  0.276341  0.693365  0.260936  1
  O  O24  1  0.220495  0.809893  0.128379  1
  O  O25  1  0.584357  0.765686  0.224037  1
  O  O26  1  0.916143  0.734441  0.091797  1
  O  O27  1  0.415410  0.765418  0.239687  1
  O  O28  1  0.086228  0.731242  0.107001  1
  O  O29  1  0.417015  0.226093  0.107016  1
  O  O30  1  0.084251  0.274266  0.239127  1
  O  O31  1  0.917617  0.272342  0.224401  1
  O  O32  1  0.469805  0.566370  0.214190  1
  O  O33  1  0.033298  0.935576  0.082069  1
  O  O34  1  0.530315  0.566248  0.249552  1
  O  O35  1  0.970556  0.937052  0.117351  1
  O  O36  1  0.530457  0.426383  0.117532  1
  O  O37  1  0.972361  0.071559  0.249999  1
  O  O38  1  0.030999  0.070606  0.214081  1
  O  O39  1  0.454071  0.561645  0.147099  1
  O  O40  1  0.045387  0.932224  0.279369  1
  O  O41  1  0.949711  0.942553  0.184884  1
  O  O42  1  0.548677  0.437701  0.184911  1
  O  O43  1  0.450959  0.438419  0.278742  1
  O  O44  1  0.049513  0.062657  0.146491  1
  O  O45  1  0.656650  0.978347  0.200266  1
  O  O46  1  0.340820  0.974888  0.263508  1
  O  O47  1  0.162080  0.527957  0.131868  1
  O  O48  1  0.342353  0.027187  0.132041  1
  O  O49  1  0.156973  0.471581  0.264061  1
  O  O50  1  0.843711  0.476182  0.199907  1
  O  O51  1  0.161157  0.288397  0.153769  1
  O  O52  1  0.338689  0.211325  0.285623  1
  O  O53  1  0.657737  0.207500  0.177341  1
  O  O54  1  0.843280  0.709620  0.176991  1
  O  O55  1  0.159781  0.712756  0.286212  1
  O  O56  1  0.338437  0.783626  0.153678  1
  O  O57  1  0.559447  0.721511  0.456753  1
  O  O58  1  0.940980  0.778090  0.324774  1
  O  O59  1  0.440654  0.721726  0.536219  1
  O  O60  1  0.056819  0.779517  0.403636  1
  O  O61  1  0.444403  0.279919  0.404101  1
  O  O62  1  0.057276  0.220088  0.536480  1
  O  O63  1  0.556913  0.276216  0.324154  1
  O  O64  1  0.945364  0.227813  0.456681  1
  O  O65  1  0.403455  0.608130  0.444447  1
  O  O66  1  0.096932  0.893313  0.312311  1
  O  O67  1  0.596296  0.604967  0.548629  1
  O  O68  1  0.901480  0.895789  0.416228  1
  O  O69  1  0.599238  0.392453  0.416710  1
  O  O70  1  0.902793  0.105934  0.549356  1
  O  O71  1  0.402866  0.391852  0.311397  1
  O  O72  1  0.095488  0.107752  0.443886  1
  O  O73  1  0.289795  0.497545  0.419799  1
  O  O74  1  0.212235  0.995291  0.551714  1
  O  O75  1  0.712846  0.501843  0.308883  1
  O  O76  1  0.783114  0.989928  0.441023  1
  O  O77  1  0.714819  0.495230  0.441487  1
  O  O78  1  0.784289  0.011299  0.309636  1
  O  O79  1  0.286032  0.496051  0.551778  1
  O  O80  1  0.214349  0.003684  0.419563  1
  O  O81  1  0.281115  0.305074  0.392985  1
  O  O82  1  0.217231  0.191689  0.525675  1
  O  O83  1  0.719484  0.298395  0.334397  1
  O  O84  1  0.782686  0.194482  0.466569  1
  O  O85  1  0.725012  0.700899  0.467168  1
  O  O86  1  0.776492  0.807219  0.335386  1
  O  O87  1  0.276341  0.693365  0.525576  1
  O  O88  1  0.220495  0.809893  0.393019  1
  O  O89  1  0.584357  0.765686  0.488676  1
  O  O90  1  0.916143  0.734441  0.356437  1
  O  O91  1  0.415410  0.765418  0.504327  1
  O  O92  1  0.086228  0.731242  0.371641  1
  O  O93  1  0.417015  0.226093  0.371655  1
  O  O94  1  0.084251  0.274266  0.503766  1
  O  O95  1  0.583309  0.224282  0.356830  1
  O  O96  1  0.917617  0.272342  0.489041  1
  O  O97  1  0.469805  0.566370  0.478830  1
  O  O98  1  0.033298  0.935576  0.346708  1
  O  O99  1  0.530315  0.566248  0.514192  1
  O  O100  1  0.970556  0.937052  0.381990  1
  O  O101  1  0.530457  0.426383  0.382172  1
  O  O102  1  0.972361  0.071559  0.514639  1
  O  O103  1  0.471718  0.425801  0.346074  1
  O  O104  1  0.030999  0.070606  0.478720  1
  O  O105  1  0.454071  0.561645  0.411739  1
  O  O106  1  0.045387  0.932224  0.544009  1
  O  O107  1  0.546016  0.564831  0.316919  1
  O  O108  1  0.949711  0.942553  0.449523  1
  O  O109  1  0.548677  0.437701  0.449551  1
  O  O110  1  0.952134  0.061290  0.317581  1
  O  O111  1  0.450959  0.438419  0.543382  1
  O  O112  1  0.049513  0.062657  0.411130  1
  O  O113  1  0.656650  0.978347  0.464906  1
  O  O114  1  0.840285  0.524496  0.332800  1
  O  O115  1  0.340820  0.974888  0.528148  1
  O  O116  1  0.162080  0.527957  0.396508  1
  O  O117  1  0.342353  0.027187  0.396681  1
  O  O118  1  0.156973  0.471581  0.528700  1
  O  O119  1  0.651672  0.019389  0.332526  1
  O  O120  1  0.843711  0.476182  0.464547  1
  O  O121  1  0.161157  0.288397  0.418409  1
  O  O122  1  0.338689  0.211325  0.550263  1
  O  O123  1  0.844346  0.294212  0.309913  1
  O  O124  1  0.657737  0.207500  0.441981  1
  O  O125  1  0.843280  0.709620  0.441631  1
  O  O126  1  0.660510  0.784854  0.309903  1
  O  O127  1  0.159781  0.712756  0.550851  1
  O  O128  1  0.338437  0.783626  0.418318  1
  O  O129  1  0.559447  0.721511  0.721393  1
  O  O130  1  0.940980  0.778090  0.589413  1
  O  O131  1  0.056819  0.779517  0.668275  1
  O  O132  1  0.444403  0.279919  0.668741  1
  O  O133  1  0.556913  0.276216  0.588794  1
  O  O134  1  0.945364  0.227813  0.721320  1
  O  O135  1  0.403455  0.608130  0.709087  1
  O  O136  1  0.096932  0.893313  0.576951  1
  O  O137  1  0.901480  0.895789  0.680868  1
  O  O138  1  0.599238  0.392453  0.681349  1
  O  O139  1  0.402866  0.391852  0.576036  1
  O  O140  1  0.095488  0.107752  0.708525  1
  O  O141  1  0.289795  0.497545  0.684439  1
  O  O142  1  0.712846  0.501843  0.573523  1
  O  O143  1  0.783114  0.989928  0.705663  1
  O  O144  1  0.714819  0.495230  0.706127  1
  O  O145  1  0.784289  0.011299  0.574275  1
  O  O146  1  0.214349  0.003684  0.684202  1
  O  O147  1  0.281115  0.305074  0.657625  1
  O  O148  1  0.719484  0.298395  0.599036  1
  O  O149  1  0.782686  0.194482  0.731209  1
  O  O150  1  0.725012  0.700899  0.731808  1
  O  O151  1  0.776492  0.807219  0.600025  1
  O  O152  1  0.220495  0.809893  0.657659  1
  O  O153  1  0.584357  0.765686  0.753316  1
  O  O154  1  0.916143  0.734441  0.621076  1
  O  O155  1  0.415410  0.765418  0.768967  1
  O  O156  1  0.086228  0.731242  0.636280  1
  O  O157  1  0.417015  0.226093  0.636295  1
  O  O158  1  0.583309  0.224282  0.621469  1
  O  O159  1  0.917617  0.272342  0.753680  1
  O  O160  1  0.469805  0.566370  0.743470  1
  O  O161  1  0.033298  0.935576  0.611348  1
  O  O162  1  0.530315  0.566248  0.778831  1
  O  O163  1  0.970556  0.937052  0.646630  1
  O  O164  1  0.530457  0.426383  0.646811  1
  O  O165  1  0.471718  0.425801  0.610714  1
  O  O166  1  0.030999  0.070606  0.743360  1
  O  O167  1  0.454071  0.561645  0.676378  1
  O  O168  1  0.546016  0.564831  0.581558  1
  O  O169  1  0.949711  0.942553  0.714163  1
  O  O170  1  0.548677  0.437701  0.714191  1
  O  O171  1  0.952134  0.061290  0.582220  1
  O  O172  1  0.049513  0.062657  0.675770  1
  O  O173  1  0.656650  0.978347  0.729546  1
  O  O174  1  0.840285  0.524496  0.597440  1
  O  O175  1  0.162080  0.527957  0.661147  1
  O  O176  1  0.342353  0.027187  0.661320  1
  O  O177  1  0.651672  0.019389  0.597165  1
  O  O178  1  0.843711  0.476182  0.729186  1
  O  O179  1  0.161157  0.288397  0.683048  1
  O  O180  1  0.844346  0.294212  0.574553  1
  O  O181  1  0.657737  0.207500  0.706621  1
  O  O182  1  0.843280  0.709620  0.706270  1
  O  O183  1  0.660510  0.784854  0.574543  1
  O  O184  1  0.338437  0.783626  0.682957  1
  Si  Si185  1  0.637979  0.804331  0.204864  1
  Si  Si186  1  0.361307  0.802244  0.258803  1
  Si  Si187  1  0.135358  0.701557  0.126037  1
  Si  Si188  1  0.367901  0.200803  0.126167  1
  Si  Si189  1  0.130478  0.300713  0.258299  1
  Si  Si190  1  0.870847  0.302512  0.205252  1
  Si  Si191  1  0.486620  0.576789  0.192715  1
  Si  Si192  1  0.513355  0.576592  0.271015  1
  Si  Si193  1  0.984967  0.925559  0.138812  1
  Si  Si194  1  0.515792  0.424320  0.139400  1
  Si  Si195  1  0.987516  0.072024  0.272313  1
  Si  Si196  1  0.011917  0.081022  0.192820  1
  Si  Si197  1  0.222540  0.398864  0.142277  1
  Si  Si198  1  0.280013  0.091119  0.274229  1
  Si  Si199  1  0.716538  0.094054  0.188990  1
  Si  Si200  1  0.782759  0.600876  0.189022  1
  Si  Si201  1  0.219018  0.593696  0.274494  1
  Si  Si202  1  0.279631  0.902896  0.142252  1
  Si  Si203  1  0.370684  0.616061  0.159557  1
  Si  Si204  1  0.127138  0.883964  0.291881  1
  Si  Si205  1  0.869282  0.879608  0.171809  1
  Si  Si206  1  0.632041  0.377596  0.172352  1
  Si  Si207  1  0.368361  0.381063  0.291307  1
  Si  Si208  1  0.133018  0.120799  0.158947  1
  Si  Si209  1  0.004472  0.840393  0.099940  1
  Si  Si210  1  0.499914  0.661061  0.231898  1
  Si  Si211  1  0.002120  0.171082  0.231452  1
  Si  Si212  1  0.637979  0.804331  0.469504  1
  Si  Si213  1  0.861280  0.697588  0.337337  1
  Si  Si214  1  0.361307  0.802244  0.523442  1
  Si  Si215  1  0.135358  0.701557  0.390676  1
  Si  Si216  1  0.367901  0.200803  0.390807  1
  Si  Si217  1  0.130478  0.300713  0.522939  1
  Si  Si218  1  0.630382  0.191023  0.337683  1
  Si  Si219  1  0.870847  0.302512  0.469892  1
  Si  Si220  1  0.486620  0.576789  0.457355  1
  Si  Si221  1  0.014582  0.921885  0.325427  1
  Si  Si222  1  0.513355  0.576592  0.535655  1
  Si  Si223  1  0.984967  0.925559  0.403451  1
  Si  Si224  1  0.515792  0.424320  0.404040  1
  Si  Si225  1  0.987516  0.072024  0.536953  1
  Si  Si226  1  0.487300  0.425620  0.323878  1
  Si  Si227  1  0.011917  0.081022  0.457460  1
  Si  Si228  1  0.222540  0.398864  0.406916  1
  Si  Si229  1  0.280013  0.091119  0.538868  1
  Si  Si230  1  0.782971  0.405553  0.321490  1
  Si  Si231  1  0.716538  0.094054  0.453629  1
  Si  Si232  1  0.782759  0.600876  0.453661  1
  Si  Si233  1  0.717095  0.907064  0.322027  1
  Si  Si234  1  0.219018  0.593696  0.539133  1
  Si  Si235  1  0.279631  0.902896  0.406892  1
  Si  Si236  1  0.370684  0.616061  0.424196  1
  Si  Si237  1  0.127138  0.883964  0.556521  1
  Si  Si238  1  0.627448  0.613476  0.304363  1
  Si  Si239  1  0.869282  0.879608  0.436449  1
  Si  Si240  1  0.632041  0.377596  0.436991  1
  Si  Si241  1  0.869327  0.123097  0.304911  1
  Si  Si242  1  0.368361  0.381063  0.555946  1
  Si  Si243  1  0.133018  0.120799  0.423587  1
  Si  Si244  1  0.004472  0.840393  0.364579  1
  Si  Si245  1  0.499914  0.661061  0.496537  1
  Si  Si246  1  0.002120  0.171082  0.496091  1
  Si  Si247  1  0.500555  0.326962  0.364248  1
  Si  Si248  1  0.637979  0.804331  0.734143  1
  Si  Si249  1  0.861280  0.697588  0.601977  1
  Si  Si250  1  0.135358  0.701557  0.655316  1
  Si  Si251  1  0.367901  0.200803  0.655446  1
  Si  Si252  1  0.630382  0.191023  0.602322  1
  Si  Si253  1  0.870847  0.302512  0.734532  1
  Si  Si254  1  0.486620  0.576789  0.721995  1
  Si  Si255  1  0.014582  0.921885  0.590067  1
  Si  Si256  1  0.984967  0.925559  0.668091  1
  Si  Si257  1  0.515792  0.424320  0.668679  1
  Si  Si258  1  0.487300  0.425620  0.588517  1
  Si  Si259  1  0.011917  0.081022  0.722099  1
  Si  Si260  1  0.222540  0.398864  0.671556  1
  Si  Si261  1  0.782971  0.405553  0.586129  1
  Si  Si262  1  0.716538  0.094054  0.718269  1
  Si  Si263  1  0.782759  0.600876  0.718301  1
  Si  Si264  1  0.717095  0.907064  0.586667  1
  Si  Si265  1  0.279631  0.902896  0.671532  1
  Si  Si266  1  0.370684  0.616061  0.688836  1
  Si  Si267  1  0.627448  0.613476  0.569002  1
  Si  Si268  1  0.869282  0.879608  0.701089  1
  Si  Si269  1  0.632041  0.377596  0.701631  1
  Si  Si270  1  0.869327  0.123097  0.569551  1
  Si  Si271  1  0.133018  0.120799  0.688226  1
  Si  Si272  1  0.004472  0.840393  0.629219  1
  Si  Si273  1  0.499914  0.661061  0.761177  1
  Si  Si274  1  0.500555  0.326962  0.628888  1
  H  H275  1  0.916143  0.734441  0.079278  1
  H  H276  1  0.417015  0.226093  0.094497  1
  H  H277  1  0.033298  0.935576  0.069550  1
  H  H278  1  0.530457  0.426383  0.105013  1
  H  H279  1  0.415410  0.765418  0.781485  1
  H  H280  1  0.917617  0.272342  0.766199  1
  H  H281  1  0.530315  0.566248  0.791350  1
  H  H282  1  0.030999  0.070606  0.755879  1
