# generated using pymatgen
data_Si18H2O37
_symmetry_space_group_name_H-M   'P 1'
_cell_length_a   14.33040949
_cell_length_b   8.45279806
_cell_length_c   61.87902072
_cell_angle_alpha   90.00000000
_cell_angle_beta   90.00000000
_cell_angle_gamma   90.00000000
_symmetry_Int_Tables_number   1
_chemical_formula_structural   Si18H2O37
_chemical_formula_sum   'Si72 H8 O148'
_cell_volume   7495.53309787
_cell_formula_units_Z   4
loop_
 _symmetry_equiv_pos_site_id
 _symmetry_equiv_pos_as_xyz
  1  'x, y, z'
loop_
 _atom_site_type_symbol
 _atom_site_label
 _atom_site_symmetry_multiplicity
 _atom_site_fract_x
 _atom_site_fract_y
 _atom_site_fract_z
 _atom_site_occupancy
  O  O1  1  0.559447  0.721511  0.142429  1
  O  O2  1  0.440654  0.721726  0.234753  1
  O  O3  1  0.057276  0.220088  0.235055  1
  O  O4  1  0.945364  0.227813  0.142345  1
  O  O5  1  0.403455  0.608130  0.128132  1
  O  O6  1  0.596296  0.604967  0.249170  1
  O  O7  1  0.901480  0.895789  0.095347  1
  O  O8  1  0.599238  0.392453  0.095907  1
  O  O9  1  0.902793  0.105934  0.250015  1
  O  O10  1  0.095488  0.107752  0.127480  1
  O  O11  1  0.212235  0.995291  0.252754  1
  O  O12  1  0.783114  0.989928  0.124154  1
  O  O13  1  0.714819  0.495230  0.124693  1
  O  O14  1  0.286032  0.496051  0.252829  1
  O  O15  1  0.217231  0.191689  0.222503  1
  O  O16  1  0.782686  0.194482  0.153833  1
  O  O17  1  0.725012  0.700899  0.154530  1
  O  O18  1  0.276341  0.693365  0.222387  1
  O  O19  1  0.584357  0.765686  0.179517  1
  O  O20  1  0.415410  0.765418  0.197700  1
  O  O21  1  0.084251  0.274266  0.197049  1
  O  O22  1  0.917617  0.272342  0.179941  1
  O  O23  1  0.469805  0.566370  0.168078  1
  O  O24  1  0.530315  0.566248  0.209161  1
  O  O25  1  0.972361  0.071559  0.209681  1
  O  O26  1  0.030999  0.070606  0.167951  1
  O  O27  1  0.045387  0.932224  0.243802  1
  O  O28  1  0.949711  0.942553  0.134029  1
  O  O29  1  0.548677  0.437701  0.134062  1
  O  O30  1  0.450959  0.438419  0.243074  1
  O  O31  1  0.656650  0.978347  0.151901  1
  O  O32  1  0.340820  0.974888  0.225375  1
  O  O33  1  0.156973  0.471581  0.226017  1
  O  O34  1  0.843711  0.476182  0.151484  1
  O  O35  1  0.338689  0.211325  0.251069  1
  O  O36  1  0.657737  0.207500  0.125267  1
  O  O37  1  0.843280  0.709620  0.124860  1
  O  O38  1  0.159781  0.712756  0.251752  1
  O  O39  1  0.559447  0.721511  0.449887  1
  O  O40  1  0.940980  0.778090  0.296553  1
  O  O41  1  0.440654  0.721726  0.542210  1
  O  O42  1  0.056819  0.779517  0.388175  1
  O  O43  1  0.444403  0.279919  0.388716  1
  O  O44  1  0.057276  0.220088  0.542513  1
  O  O45  1  0.556913  0.276216  0.295833  1
  O  O46  1  0.945364  0.227813  0.449803  1
  O  O47  1  0.403455  0.608130  0.435589  1
  O  O48  1  0.096932  0.893313  0.282074  1
  O  O49  1  0.596296  0.604967  0.556627  1
  O  O50  1  0.901480  0.895789  0.402805  1
  O  O51  1  0.599238  0.392453  0.403364  1
  O  O52  1  0.902793  0.105934  0.557472  1
  O  O53  1  0.402866  0.391852  0.281012  1
  O  O54  1  0.095488  0.107752  0.434937  1
  O  O55  1  0.289795  0.497545  0.406953  1
  O  O56  1  0.212235  0.995291  0.560212  1
  O  O57  1  0.712846  0.501843  0.278092  1
  O  O58  1  0.783114  0.989928  0.431612  1
  O  O59  1  0.714819  0.495230  0.432151  1
  O  O60  1  0.784289  0.011299  0.278966  1
  O  O61  1  0.286032  0.496051  0.560287  1
  O  O62  1  0.214349  0.003684  0.406679  1
  O  O63  1  0.281115  0.305074  0.375802  1
  O  O64  1  0.217231  0.191689  0.529960  1
  O  O65  1  0.719484  0.298395  0.307733  1
  O  O66  1  0.782686  0.194482  0.461291  1
  O  O67  1  0.725012  0.700899  0.461987  1
  O  O68  1  0.776492  0.807219  0.308882  1
  O  O69  1  0.276341  0.693365  0.529845  1
  O  O70  1  0.220495  0.809893  0.375841  1
  O  O71  1  0.584357  0.765686  0.486975  1
  O  O72  1  0.916143  0.734441  0.333339  1
  O  O73  1  0.415410  0.765418  0.505158  1
  O  O74  1  0.086228  0.731242  0.351003  1
  O  O75  1  0.417015  0.226093  0.351020  1
  O  O76  1  0.084251  0.274266  0.504506  1
  O  O77  1  0.583309  0.224282  0.333796  1
  O  O78  1  0.917617  0.272342  0.487398  1
  O  O79  1  0.469805  0.566370  0.475536  1
  O  O80  1  0.033298  0.935576  0.322037  1
  O  O81  1  0.530315  0.566248  0.516619  1
  O  O82  1  0.970556  0.937052  0.363027  1
  O  O83  1  0.530457  0.426383  0.363238  1
  O  O84  1  0.972361  0.071559  0.517138  1
  O  O85  1  0.471718  0.425801  0.321300  1
  O  O86  1  0.030999  0.070606  0.475408  1
  O  O87  1  0.454071  0.561645  0.397589  1
  O  O88  1  0.045387  0.932224  0.551260  1
  O  O89  1  0.546016  0.564831  0.287427  1
  O  O90  1  0.949711  0.942553  0.441487  1
  O  O91  1  0.548677  0.437701  0.441519  1
  O  O92  1  0.952134  0.061290  0.288196  1
  O  O93  1  0.450959  0.438419  0.550532  1
  O  O94  1  0.049513  0.062657  0.396882  1
  O  O95  1  0.656650  0.978347  0.459359  1
  O  O96  1  0.840285  0.524496  0.305878  1
  O  O97  1  0.340820  0.974888  0.532833  1
  O  O98  1  0.162080  0.527957  0.379894  1
  O  O99  1  0.342353  0.027187  0.380095  1
  O  O100  1  0.156973  0.471581  0.533475  1
  O  O101  1  0.651672  0.019389  0.305559  1
  O  O102  1  0.843711  0.476182  0.458941  1
  O  O103  1  0.161157  0.288397  0.405338  1
  O  O104  1  0.338689  0.211325  0.558526  1
  O  O105  1  0.844346  0.294212  0.279288  1
  O  O106  1  0.657737  0.207500  0.432725  1
  O  O107  1  0.843280  0.709620  0.432317  1
  O  O108  1  0.660510  0.784854  0.279277  1
  O  O109  1  0.159781  0.712756  0.559210  1
  O  O110  1  0.338437  0.783626  0.405233  1
  O  O111  1  0.940980  0.778090  0.604011  1
  O  O112  1  0.056819  0.779517  0.695633  1
  O  O113  1  0.444403  0.279919  0.696174  1
  O  O114  1  0.556913  0.276216  0.603291  1
  O  O115  1  0.403455  0.608130  0.743047  1
  O  O116  1  0.096932  0.893313  0.589532  1
  O  O117  1  0.901480  0.895789  0.710262  1
  O  O118  1  0.599238  0.392453  0.710822  1
  O  O119  1  0.402866  0.391852  0.588470  1
  O  O120  1  0.095488  0.107752  0.742395  1
  O  O121  1  0.289795  0.497545  0.714411  1
  O  O122  1  0.712846  0.501843  0.585550  1
  O  O123  1  0.784289  0.011299  0.586423  1
  O  O124  1  0.214349  0.003684  0.714137  1
  O  O125  1  0.281115  0.305074  0.683259  1
  O  O126  1  0.719484  0.298395  0.615191  1
  O  O127  1  0.776492  0.807219  0.616340  1
  O  O128  1  0.220495  0.809893  0.683298  1
  O  O129  1  0.916143  0.734441  0.640797  1
  O  O130  1  0.086228  0.731242  0.658461  1
  O  O131  1  0.417015  0.226093  0.658478  1
  O  O132  1  0.583309  0.224282  0.641253  1
  O  O133  1  0.033298  0.935576  0.629495  1
  O  O134  1  0.970556  0.937052  0.670485  1
  O  O135  1  0.530457  0.426383  0.670696  1
  O  O136  1  0.471718  0.425801  0.628758  1
  O  O137  1  0.454071  0.561645  0.705047  1
  O  O138  1  0.546016  0.564831  0.594885  1
  O  O139  1  0.952134  0.061290  0.595654  1
  O  O140  1  0.049513  0.062657  0.704340  1
  O  O141  1  0.840285  0.524496  0.613336  1
  O  O142  1  0.162080  0.527957  0.687351  1
  O  O143  1  0.342353  0.027187  0.687552  1
  O  O144  1  0.651672  0.019389  0.613017  1
  O  O145  1  0.161157  0.288397  0.712796  1
  O  O146  1  0.844346  0.294212  0.586746  1
  O  O147  1  0.660510  0.784854  0.586735  1
  O  O148  1  0.338437  0.783626  0.712690  1
  Si  Si149  1  0.637979  0.804331  0.157243  1
  Si  Si150  1  0.361307  0.802244  0.219909  1
  Si  Si151  1  0.130478  0.300713  0.219323  1
  Si  Si152  1  0.870847  0.302512  0.157694  1
  Si  Si153  1  0.486620  0.576789  0.143128  1
  Si  Si154  1  0.513355  0.576592  0.234097  1
  Si  Si155  1  0.987516  0.072024  0.235605  1
  Si  Si156  1  0.011917  0.081022  0.143250  1
  Si  Si157  1  0.280013  0.091119  0.237830  1
  Si  Si158  1  0.716538  0.094054  0.138800  1
  Si  Si159  1  0.782759  0.600876  0.138837  1
  Si  Si160  1  0.219018  0.593696  0.238138  1
  Si  Si161  1  0.127138  0.883964  0.258339  1
  Si  Si162  1  0.869282  0.879608  0.118840  1
  Si  Si163  1  0.632041  0.377596  0.119470  1
  Si  Si164  1  0.368361  0.381063  0.257671  1
  Si  Si165  1  0.499914  0.661061  0.188650  1
  Si  Si166  1  0.002120  0.171082  0.188132  1
  Si  Si167  1  0.637979  0.804331  0.464700  1
  Si  Si168  1  0.861280  0.697588  0.311150  1
  Si  Si169  1  0.361307  0.802244  0.527366  1
  Si  Si170  1  0.135358  0.701557  0.373119  1
  Si  Si171  1  0.367901  0.200803  0.373270  1
  Si  Si172  1  0.130478  0.300713  0.526781  1
  Si  Si173  1  0.630382  0.191023  0.311551  1
  Si  Si174  1  0.870847  0.302512  0.465151  1
  Si  Si175  1  0.486620  0.576789  0.450586  1
  Si  Si176  1  0.014582  0.921885  0.297313  1
  Si  Si177  1  0.513355  0.576592  0.541555  1
  Si  Si178  1  0.984967  0.925559  0.387961  1
  Si  Si179  1  0.515792  0.424320  0.388645  1
  Si  Si180  1  0.987516  0.072024  0.543063  1
  Si  Si181  1  0.487300  0.425620  0.295512  1
  Si  Si182  1  0.011917  0.081022  0.450707  1
  Si  Si183  1  0.222540  0.398864  0.391986  1
  Si  Si184  1  0.280013  0.091119  0.545288  1
  Si  Si185  1  0.782971  0.405553  0.292738  1
  Si  Si186  1  0.716538  0.094054  0.446257  1
  Si  Si187  1  0.782759  0.600876  0.446294  1
  Si  Si188  1  0.717095  0.907064  0.293362  1
  Si  Si189  1  0.219018  0.593696  0.545596  1
  Si  Si190  1  0.279631  0.902896  0.391958  1
  Si  Si191  1  0.370684  0.616061  0.412062  1
  Si  Si192  1  0.127138  0.883964  0.565797  1
  Si  Si193  1  0.627448  0.613476  0.272840  1
  Si  Si194  1  0.869282  0.879608  0.426297  1
  Si  Si195  1  0.632041  0.377596  0.426927  1
  Si  Si196  1  0.869327  0.123097  0.273477  1
  Si  Si197  1  0.368361  0.381063  0.565129  1
  Si  Si198  1  0.133018  0.120799  0.411354  1
  Si  Si199  1  0.004472  0.840393  0.342799  1
  Si  Si200  1  0.499914  0.661061  0.496108  1
  Si  Si201  1  0.002120  0.171082  0.495590  1
  Si  Si202  1  0.500555  0.326962  0.342415  1
  Si  Si203  1  0.861280  0.697588  0.618607  1
  Si  Si204  1  0.135358  0.701557  0.680577  1
  Si  Si205  1  0.367901  0.200803  0.680728  1
  Si  Si206  1  0.630382  0.191023  0.619009  1
  Si  Si207  1  0.014582  0.921885  0.604770  1
  Si  Si208  1  0.984967  0.925559  0.695418  1
  Si  Si209  1  0.515792  0.424320  0.696102  1
  Si  Si210  1  0.487300  0.425620  0.602970  1
  Si  Si211  1  0.222540  0.398864  0.699444  1
  Si  Si212  1  0.782971  0.405553  0.600196  1
  Si  Si213  1  0.717095  0.907064  0.600820  1
  Si  Si214  1  0.279631  0.902896  0.699416  1
  Si  Si215  1  0.370684  0.616061  0.719520  1
  Si  Si216  1  0.627448  0.613476  0.580298  1
  Si  Si217  1  0.869327  0.123097  0.580934  1
  Si  Si218  1  0.133018  0.120799  0.718812  1
  Si  Si219  1  0.004472  0.840393  0.650257  1
  Si  Si220  1  0.500555  0.326962  0.649873  1
  H  H221  1  0.403455  0.608130  0.113587  1
  H  H222  1  0.901480  0.895789  0.080803  1
  H  H223  1  0.599238  0.392453  0.081362  1
  H  H224  1  0.095488  0.107752  0.112935  1
  H  H225  1  0.403455  0.608130  0.757592  1
  H  H226  1  0.901480  0.895789  0.724807  1
  H  H227  1  0.599238  0.392453  0.725366  1
  H  H228  1  0.095488  0.107752  0.756939  1
