# generated using pymatgen
data_Si10H2O21
_symmetry_space_group_name_H-M   'P 1'
_cell_length_a   11.40919207
_cell_length_b   26.79127551
_cell_length_c   57.22200006
_cell_angle_alpha   134.99934521
_cell_angle_beta   90.00000000
_cell_angle_gamma   90.00000000
_symmetry_Int_Tables_number   1
_chemical_formula_structural   Si10H2O21
_chemical_formula_sum   'Si80 H16 O168'
_cell_volume   12368.0513786
_cell_formula_units_Z   8
loop_
 _symmetry_equiv_pos_site_id
 _symmetry_equiv_pos_as_xyz
  1  'x, y, z'
loop_
 _atom_site_type_symbol
 _atom_site_label
 _atom_site_symmetry_multiplicity
 _atom_site_fract_x
 _atom_site_fract_y
 _atom_site_fract_z
 _atom_site_occupancy
  O  O1  1  0.499963  0.738120  0.159039  1
  O  O2  1  0.339258  0.668928  0.202317  1
  O  O3  1  0.000000  0.937068  0.334704  1
  O  O4  1  0.814656  0.964219  0.321133  1
  O  O5  1  0.814655  0.868917  0.321129  1
  O  O6  1  0.185237  0.964211  0.321125  1
  O  O7  1  0.185238  0.868917  0.321127  1
  O  O8  1  0.290573  0.731765  0.139300  1
  O  O9  1  0.709359  0.731758  0.139301  1
  O  O10  1  0.499943  0.930571  0.330402  1
  O  O11  1  0.708418  0.921036  0.269013  1
  O  O12  1  0.708400  0.754674  0.269010  1
  O  O13  1  0.291500  0.921040  0.269010  1
  O  O14  1  0.291482  0.754676  0.269008  1
  O  O15  1  0.648940  0.801589  0.244998  1
  O  O16  1  0.350961  0.801593  0.244996  1
  O  O17  1  0.499959  0.869748  0.245151  1
  O  O18  1  0.499943  0.733896  0.245149  1
  O  O19  1  0.660648  0.805343  0.202321  1
  O  O20  1  0.339274  0.805348  0.202319  1
  O  O21  1  0.654777  0.670785  0.158388  1
  O  O22  1  0.345131  0.670790  0.158387  1
  O  O23  1  0.660630  0.668923  0.202319  1
  O  O24  1  0.499945  0.605420  0.159037  1
  O  O25  1  0.314644  0.368921  0.344879  1
  O  O26  1  0.685226  0.368914  0.344880  1
  O  O27  1  0.290551  0.552160  0.139299  1
  O  O28  1  0.709335  0.552154  0.139301  1
  O  O29  1  -0.000000  0.105420  0.332503  1
  O  O30  1  0.790560  0.052157  0.316974  1
  O  O31  1  0.209343  0.052157  0.316971  1
  O  O32  1  0.613903  0.004447  0.324610  1
  O  O33  1  0.385991  0.004451  0.324612  1
  O  O34  1  0.208406  0.254675  0.321355  1
  O  O35  1  0.791486  0.254675  0.321357  1
  O  O36  1  -0.000000  0.233896  0.331457  1
  O  O37  1  0.160636  0.168925  0.331269  1
  O  O38  1  0.839264  0.168926  0.331271  1
  O  O39  1  0.790545  0.768413  0.316968  1
  O  O40  1  0.209329  0.768409  0.316963  1
  O  O41  1  0.613898  0.839202  0.324610  1
  O  O42  1  0.385988  0.839197  0.324608  1
  O  O43  1  0.160627  0.694827  0.331261  1
  O  O44  1  0.839253  0.694829  0.331265  1
  O  O45  1  0.000000  0.762055  0.332495  1
  O  O46  1  0.314674  0.535967  0.344879  1
  O  O47  1  0.685258  0.535950  0.344880  1
  O  O48  1  0.290569  0.448018  0.282493  1
  O  O49  1  0.709350  0.448013  0.282495  1
  O  O50  1  0.113922  0.495720  0.321722  1
  O  O51  1  0.113891  0.339196  0.321721  1
  O  O52  1  0.886010  0.495724  0.321721  1
  O  O53  1  0.885980  0.339203  0.321723  1
  O  O54  1  -0.000000  0.437336  0.334881  1
  O  O55  1  0.208402  0.579133  0.321348  1
  O  O56  1  0.791485  0.579135  0.321353  1
  O  O57  1  0.000000  0.630425  0.331451  1
  O  O58  1  0.499958  0.394752  0.262758  1
  O  O59  1  0.499944  0.262055  0.262757  1
  O  O60  1  0.290549  0.268414  0.282494  1
  O  O61  1  0.709333  0.268409  0.282496  1
  O  O62  1  0.708405  0.079133  0.152785  1
  O  O63  1  0.708421  0.245493  0.152786  1
  O  O64  1  0.291487  0.079136  0.152784  1
  O  O65  1  0.291499  0.245497  0.152785  1
  O  O66  1  0.648942  0.198578  0.176798  1
  O  O67  1  0.350963  0.198583  0.176798  1
  O  O68  1  0.499947  0.130425  0.176645  1
  O  O69  1  0.499959  0.266274  0.176645  1
  O  O70  1  0.660633  0.194826  0.219476  1
  O  O71  1  0.339258  0.194831  0.219476  1
  O  O72  1  0.654775  0.329384  0.263408  1
  O  O73  1  0.345128  0.329388  0.263408  1
  O  O74  1  0.339273  0.331247  0.219476  1
  O  O75  1  0.660645  0.331243  0.219477  1
  O  O76  1  0.499963  0.738120  0.490102  1
  O  O77  1  0.339258  0.668928  0.533380  1
  O  O78  1  0.290573  0.731765  0.470362  1
  O  O79  1  0.709359  0.731758  0.470364  1
  O  O80  1  0.708418  0.921036  0.600076  1
  O  O81  1  0.708400  0.754674  0.600073  1
  O  O82  1  0.291500  0.921040  0.600073  1
  O  O83  1  0.291482  0.754676  0.600071  1
  O  O84  1  0.648940  0.801589  0.576061  1
  O  O85  1  0.350961  0.801593  0.576059  1
  O  O86  1  0.499959  0.869748  0.576214  1
  O  O87  1  0.499943  0.733896  0.576212  1
  O  O88  1  0.660648  0.805343  0.533384  1
  O  O89  1  0.339274  0.805348  0.533382  1
  O  O90  1  0.654777  0.670785  0.489451  1
  O  O91  1  0.345131  0.670790  0.489450  1
  O  O92  1  0.660630  0.668923  0.533382  1
  O  O93  1  0.499945  0.605420  0.490099  1
  O  O94  1  0.499935  0.437069  0.376428  1
  O  O95  1  0.314641  0.464223  0.407977  1
  O  O96  1  0.685222  0.464207  0.407979  1
  O  O97  1  0.290551  0.552160  0.470362  1
  O  O98  1  0.709335  0.552154  0.470364  1
  O  O99  1  0.113889  0.504448  0.431137  1
  O  O100  1  0.113922  0.660970  0.431135  1
  O  O101  1  0.885976  0.504451  0.431134  1
  O  O102  1  0.886010  0.660972  0.431136  1
  O  O103  1  0.000000  0.562835  0.417975  1
  O  O104  1  -0.000000  0.430571  0.376429  1
  O  O105  1  0.208415  0.421038  0.431505  1
  O  O106  1  0.791497  0.421038  0.431508  1
  O  O107  1  0.000000  0.369748  0.421407  1
  O  O108  1  0.163380  -0.000000  0.376427  1
  O  O109  1  0.790571  0.231762  0.435894  1
  O  O110  1  0.209357  0.231761  0.435892  1
  O  O111  1  0.613921  0.160969  0.428248  1
  O  O112  1  0.386009  0.160974  0.428250  1
  O  O113  1  0.499957  0.062835  0.376430  1
  O  O114  1  0.148942  0.301589  0.376430  1
  O  O115  1  0.850963  0.301592  0.376433  1
  O  O116  1  0.160647  0.305345  0.421594  1
  O  O117  1  0.839273  0.305346  0.421597  1
  O  O118  1  0.154780  0.170787  0.376432  1
  O  O119  1  0.845134  0.170788  0.376435  1
  O  O120  1  -0.000000  0.238120  0.420364  1
  O  O121  1  0.836532  -0.000000  0.376431  1
  O  O122  1  0.790562  0.948017  0.435888  1
  O  O123  1  0.209344  0.948015  0.435885  1
  O  O124  1  0.613920  0.995720  0.428245  1
  O  O125  1  0.386007  0.995725  0.428250  1
  O  O126  1  0.499938  0.937336  0.376429  1
  O  O127  1  0.208417  0.745496  0.431500  1
  O  O128  1  0.791497  0.745496  0.431503  1
  O  O129  1  0.148938  0.698579  0.376424  1
  O  O130  1  0.850959  0.698583  0.376428  1
  O  O131  1  0.000000  0.766275  0.421400  1
  O  O132  1  0.160639  0.831244  0.421586  1
  O  O133  1  0.839268  0.831247  0.421590  1
  O  O134  1  0.154769  0.829386  0.376424  1
  O  O135  1  0.845122  0.829387  0.376427  1
  O  O136  1  0.000000  0.894752  0.420356  1
  O  O137  1  0.336525  0.500087  0.376425  1
  O  O138  1  0.663373  0.500084  0.376431  1
  O  O139  1  0.499963  0.563102  0.376428  1
  O  O140  1  0.314675  0.631257  0.407978  1
  O  O141  1  0.685254  0.631251  0.407979  1
  O  O142  1  0.290569  0.448018  0.613556  1
  O  O143  1  0.709350  0.448013  0.613558  1
  O  O144  1  0.000000  0.569600  0.376428  1
  O  O145  1  0.499958  0.394752  0.593820  1
  O  O146  1  0.499944  0.262055  0.593819  1
  O  O147  1  0.000000  0.063102  0.418154  1
  O  O148  1  0.814674  0.035962  0.431734  1
  O  O149  1  0.814675  0.131254  0.431730  1
  O  O150  1  0.185258  0.035954  0.431727  1
  O  O151  1  0.185253  0.131253  0.431727  1
  O  O152  1  0.290549  0.268414  0.613557  1
  O  O153  1  0.709333  0.268409  0.613558  1
  O  O154  1  0.499957  0.069600  0.422457  1
  O  O155  1  0.708405  0.079133  0.483848  1
  O  O156  1  0.708421  0.245493  0.483849  1
  O  O157  1  0.291487  0.079136  0.483847  1
  O  O158  1  0.291499  0.245497  0.483848  1
  O  O159  1  0.648942  0.198578  0.507861  1
  O  O160  1  0.350963  0.198583  0.507861  1
  O  O161  1  0.499947  0.130425  0.507708  1
  O  O162  1  0.499959  0.266274  0.507708  1
  O  O163  1  0.660633  0.194826  0.550539  1
  O  O164  1  0.339258  0.194831  0.550539  1
  O  O165  1  0.654775  0.329384  0.594471  1
  O  O166  1  0.345128  0.329388  0.594470  1
  O  O167  1  0.339273  0.331247  0.550539  1
  O  O168  1  0.660645  0.331243  0.550540  1
  Si  Si169  1  0.735044  0.985827  0.307235  1
  Si  Si170  1  0.735034  0.805335  0.307232  1
  Si  Si171  1  0.264859  0.985826  0.307232  1
  Si  Si172  1  0.264851  0.805333  0.307230  1
  Si  Si173  1  0.635126  0.852100  0.240202  1
  Si  Si174  1  0.635112  0.736590  0.240200  1
  Si  Si175  1  0.364791  0.852103  0.240201  1
  Si  Si176  1  0.364777  0.736593  0.240198  1
  Si  Si177  1  0.635359  0.737429  0.164360  1
  Si  Si178  1  0.364564  0.737434  0.164359  1
  Si  Si179  1  0.864318  0.942441  0.338263  1
  Si  Si180  1  0.135580  0.942441  0.338260  1
  Si  Si181  1  0.499941  0.884694  0.338226  1
  Si  Si182  1  0.635343  0.622177  0.164358  1
  Si  Si183  1  0.364549  0.622181  0.164357  1
  Si  Si184  1  0.235032  0.305335  0.316676  1
  Si  Si185  1  0.764848  0.305333  0.316678  1
  Si  Si186  1  0.135116  0.236592  0.338192  1
  Si  Si187  1  0.864781  0.236592  0.338193  1
  Si  Si188  1  0.135350  0.122179  0.338277  1
  Si  Si189  1  0.864555  0.122179  0.338279  1
  Si  Si190  1  0.499948  -0.000000  0.338227  1
  Si  Si191  1  0.135337  0.762742  0.338269  1
  Si  Si192  1  0.864542  0.762743  0.338272  1
  Si  Si193  1  0.235050  0.514348  0.316674  1
  Si  Si194  1  0.764865  0.514343  0.316675  1
  Si  Si195  1  0.135110  0.648070  0.338184  1
  Si  Si196  1  0.864775  0.648072  0.338187  1
  Si  Si197  1  0.635355  0.377992  0.257437  1
  Si  Si198  1  0.364560  0.377995  0.257436  1
  Si  Si199  1  0.000000  0.500088  0.338228  1
  Si  Si200  1  0.000000  0.384694  0.338228  1
  Si  Si201  1  0.635115  0.148070  0.181595  1
  Si  Si202  1  0.635126  0.263578  0.181596  1
  Si  Si203  1  0.364780  0.148072  0.181594  1
  Si  Si204  1  0.364790  0.263580  0.181595  1
  Si  Si205  1  0.635343  0.262741  0.257436  1
  Si  Si206  1  0.364548  0.262745  0.257436  1
  Si  Si207  1  0.635126  0.852100  0.571265  1
  Si  Si208  1  0.635112  0.736590  0.571263  1
  Si  Si209  1  0.364791  0.852103  0.571263  1
  Si  Si210  1  0.364777  0.736593  0.571261  1
  Si  Si211  1  0.635359  0.737429  0.495423  1
  Si  Si212  1  0.364564  0.737434  0.495422  1
  Si  Si213  1  0.235035  0.485830  0.436183  1
  Si  Si214  1  0.764850  0.485824  0.436183  1
  Si  Si215  1  0.135125  0.352102  0.414672  1
  Si  Si216  1  0.864789  0.352102  0.414673  1
  Si  Si217  1  0.635343  0.622177  0.495421  1
  Si  Si218  1  0.364549  0.622181  0.495420  1
  Si  Si219  1  0.364306  0.442445  0.376427  1
  Si  Si220  1  0.635567  0.442438  0.376429  1
  Si  Si221  1  0.000000  0.500084  0.414629  1
  Si  Si222  1  0.135359  0.237431  0.414587  1
  Si  Si223  1  0.864563  0.237432  0.414589  1
  Si  Si224  1  0.499962  0.115477  0.414632  1
  Si  Si225  1  0.235055  0.694839  0.436180  1
  Si  Si226  1  0.764870  0.694835  0.436182  1
  Si  Si227  1  0.135122  0.763579  0.414664  1
  Si  Si228  1  0.864786  0.763580  0.414667  1
  Si  Si229  1  0.135349  0.877993  0.414579  1
  Si  Si230  1  0.864554  0.877994  0.414582  1
  Si  Si231  1  0.635355  0.377992  0.588500  1
  Si  Si232  1  0.364560  0.377995  0.588499  1
  Si  Si233  1  0.364331  0.557733  0.376427  1
  Si  Si234  1  0.635592  0.557727  0.376430  1
  Si  Si235  1  0.000000  0.615477  0.414629  1
  Si  Si236  1  0.735049  0.014346  0.445625  1
  Si  Si237  1  0.735055  0.194836  0.445627  1
  Si  Si238  1  0.264863  0.014345  0.445624  1
  Si  Si239  1  0.264870  0.194837  0.445625  1
  Si  Si240  1  0.635115  0.148070  0.512657  1
  Si  Si241  1  0.635126  0.263578  0.512658  1
  Si  Si242  1  0.364780  0.148072  0.512657  1
  Si  Si243  1  0.364790  0.263580  0.512658  1
  Si  Si244  1  0.635343  0.262741  0.588499  1
  Si  Si245  1  0.364548  0.262745  0.588499  1
  Si  Si246  1  0.864333  0.057730  0.414598  1
  Si  Si247  1  0.135594  0.057729  0.414595  1
  Si  Si248  1  0.499957  0.000000  0.414631  1
  H  H249  1  0.290573  0.731765  0.123571  1
  H  H250  1  0.709359  0.731758  0.123573  1
  H  H251  1  0.290551  0.552160  0.123571  1
  H  H252  1  0.709335  0.552154  0.123573  1
  H  H253  1  0.708405  0.079133  0.137057  1
  H  H254  1  0.708421  0.245493  0.137058  1
  H  H255  1  0.291487  0.079136  0.137056  1
  H  H256  1  0.291499  0.245497  0.137057  1
  H  H257  1  0.708418  0.921036  0.615804  1
  H  H258  1  0.708400  0.754674  0.615801  1
  H  H259  1  0.291500  0.921040  0.615801  1
  H  H260  1  0.291482  0.754676  0.615799  1
  H  H261  1  0.290569  0.448018  0.629284  1
  H  H262  1  0.709350  0.448013  0.629286  1
  H  H263  1  0.290549  0.268414  0.629285  1
  H  H264  1  0.709333  0.268409  0.629287  1
