# generated using pymatgen
data_Si6H2O13
_symmetry_space_group_name_H-M   'P 1'
_cell_length_a   7.41091504
_cell_length_b   19.41922516
_cell_length_c   44.09162439
_cell_angle_alpha   45.48695767
_cell_angle_beta   90.00000000
_cell_angle_gamma   81.17708502
_symmetry_Int_Tables_number   1
_chemical_formula_structural   Si6H2O13
_chemical_formula_sum   'Si24 H8 O52'
_cell_volume   4418.94449894
_cell_formula_units_Z   4
loop_
 _symmetry_equiv_pos_site_id
 _symmetry_equiv_pos_as_xyz
  1  'x, y, z'
loop_
 _atom_site_type_symbol
 _atom_site_label
 _atom_site_symmetry_multiplicity
 _atom_site_fract_x
 _atom_site_fract_y
 _atom_site_fract_z
 _atom_site_occupancy
  O  O1  1  0.104867  0.828247  0.181325  1
  O  O2  1  0.104951  0.328227  0.181323  1
  O  O3  1  0.357324  0.681431  0.242686  1
  O  O4  1  0.357434  0.181410  0.242690  1
  O  O5  1  0.642467  0.315299  0.355711  1
  O  O6  1  0.642548  0.815280  0.355720  1
  O  O7  1  0.642675  0.315339  0.435481  1
  O  O8  1  0.642687  0.815318  0.435484  1
  O  O9  1  0.357117  0.681434  0.322432  1
  O  O10  1  0.357165  0.181411  0.322441  1
  O  O11  1  0.499826  0.498367  0.297052  1
  O  O12  1  0.499928  0.998336  0.297059  1
  O  O13  1  0.499489  0.498348  0.381116  1
  O  O14  1  0.499524  0.998316  0.381126  1
  O  O15  1  0.710565  0.621107  0.247541  1
  O  O16  1  0.710698  0.121077  0.247565  1
  O  O17  1  0.289170  0.375611  0.323319  1
  O  O18  1  0.289287  0.875578  0.323314  1
  O  O19  1  0.289346  0.375841  0.430582  1
  O  O20  1  0.289387  0.875808  0.430602  1
  O  O21  1  0.710332  0.621063  0.354874  1
  O  O22  1  0.710397  0.121030  0.354872  1
  O  O23  1  0.587610  0.602029  0.307089  1
  O  O24  1  0.587627  0.101986  0.307103  1
  O  O25  1  0.412175  0.394550  0.371122  1
  O  O26  1  0.412172  0.894526  0.371126  1
  O  O27  1  0.027875  0.660043  0.243579  1
  O  O28  1  0.027999  0.160051  0.243577  1
  O  O29  1  0.971965  0.336562  0.343473  1
  O  O30  1  0.972054  0.836570  0.343469  1
  O  O31  1  0.972312  0.336499  0.434613  1
  O  O32  1  0.972310  0.836528  0.434614  1
  O  O33  1  0.027614  0.660045  0.334724  1
  O  O34  1  0.027658  0.160071  0.334708  1
  O  O35  1  0.104867  0.828247  0.490098  1
  O  O36  1  0.104951  0.328227  0.490095  1
  O  O37  1  0.894914  0.168426  0.385057  1
  O  O38  1  0.894976  0.668406  0.385072  1
  O  O39  1  0.894995  0.168422  0.188083  1
  O  O40  1  0.895007  0.668418  0.188082  1
  O  O41  1  0.104626  0.828238  0.293111  1
  O  O42  1  0.104674  0.328231  0.293117  1
  O  O43  1  0.118025  0.754795  0.259897  1
  O  O44  1  0.118150  0.254819  0.259886  1
  O  O45  1  0.881589  0.241833  0.418288  1
  O  O46  1  0.881679  0.741865  0.418282  1
  O  O47  1  0.000000  0.498304  0.267839  1
  O  O48  1  -0.000000  0.006033  0.265453  1
  O  O49  1  -0.000000  0.498282  0.410368  1
  O  O50  1  0.000000  0.998325  0.410354  1
  O  O51  1  0.894995  0.168422  0.496855  1
  O  O52  1  0.895007  0.668418  0.496854  1
  Si  Si53  1  0.541666  0.602623  0.272033  1
  Si  Si54  1  0.541758  0.102590  0.272044  1
  Si  Si55  1  0.458086  0.394074  0.336399  1
  Si  Si56  1  0.458154  0.894049  0.336405  1
  Si  Si57  1  0.458206  0.394025  0.406150  1
  Si  Si58  1  0.458210  0.894001  0.406155  1
  Si  Si59  1  0.541458  0.602612  0.341773  1
  Si  Si60  1  0.541492  0.102578  0.341783  1
  Si  Si61  1  0.149201  0.734027  0.231347  1
  Si  Si62  1  0.149330  0.234028  0.231345  1
  Si  Si63  1  0.850522  0.262628  0.376905  1
  Si  Si64  1  0.850615  0.762636  0.376904  1
  Si  Si65  1  0.850713  0.262626  0.446832  1
  Si  Si66  1  0.850747  0.762645  0.446831  1
  Si  Si67  1  0.149002  0.734014  0.301278  1
  Si  Si68  1  0.149078  0.234024  0.301273  1
  Si  Si69  1  0.908349  0.610333  0.236911  1
  Si  Si70  1  0.908444  0.110341  0.236914  1
  Si  Si71  1  0.091348  0.386310  0.306080  1
  Si  Si72  1  0.091423  0.886321  0.306072  1
  Si  Si73  1  0.091520  0.386341  0.441263  1
  Si  Si74  1  0.091542  0.886362  0.441264  1
  Si  Si75  1  0.908202  0.610318  0.372115  1
  Si  Si76  1  0.908243  0.110336  0.372100  1
  H  H77  1  0.104867  0.828247  0.160913  1
  H  H78  1  0.104951  0.328227  0.160911  1
  H  H79  1  0.104867  0.828247  0.510510  1
  H  H80  1  0.104951  0.328227  0.510507  1
  H  H81  1  0.894995  0.168422  0.167671  1
  H  H82  1  0.895007  0.668418  0.167670  1
  H  H83  1  0.894995  0.168422  0.517267  1
  H  H84  1  0.895007  0.668418  0.517266  1
