# generated using pymatgen
data_Si36H2O73
_symmetry_space_group_name_H-M   'P 1'
_cell_length_a   17.86974808
_cell_length_b   25.29356968
_cell_length_c   83.75360231
_cell_angle_alpha   45.01208225
_cell_angle_beta   90.00000000
_cell_angle_gamma   90.00000000
_symmetry_Int_Tables_number   1
_chemical_formula_structural   Si36H2O73
_chemical_formula_sum   'Si144 H8 O292'
_cell_volume   26773.7137569
_cell_formula_units_Z   4
loop_
 _symmetry_equiv_pos_site_id
 _symmetry_equiv_pos_as_xyz
  1  'x, y, z'
loop_
 _atom_site_type_symbol
 _atom_site_label
 _atom_site_symmetry_multiplicity
 _atom_site_fract_x
 _atom_site_fract_y
 _atom_site_fract_z
 _atom_site_occupancy
  O  O1  1  0.453286  0.860191  0.095305  1
  O  O2  1  0.453804  0.142132  0.095155  1
  O  O3  1  0.859093  0.452445  0.182460  1
  O  O4  1  0.859939  0.140043  0.182180  1
  O  O5  1  0.954857  0.640676  0.095523  1
  O  O6  1  0.747203  0.408658  0.212662  1
  O  O7  1  0.959474  0.250348  0.167446  1
  O  O8  1  0.913652  0.540661  0.140449  1
  O  O9  1  0.750214  0.912314  0.229508  1
  O  O10  1  0.749834  0.040543  0.212115  1
  O  O11  1  0.960236  0.412793  0.167756  1
  O  O12  1  0.913019  0.750140  0.264294  1
  O  O13  1  0.748239  0.538995  0.175111  1
  O  O14  1  0.547021  0.141636  0.248733  1
  O  O15  1  0.453286  0.860191  0.308806  1
  O  O16  1  0.640483  0.953665  0.242046  1
  O  O17  1  0.639141  0.639827  0.162331  1
  O  O18  1  0.359200  0.360525  0.221695  1
  O  O19  1  0.360589  0.047109  0.221849  1
  O  O20  1  0.587651  0.041579  0.246698  1
  O  O21  1  0.412058  0.750023  0.140003  1
  O  O22  1  0.540588  0.750603  0.130030  1
  O  O23  1  0.459288  0.088222  0.236788  1
  O  O24  1  0.412535  0.959899  0.264018  1
  O  O25  1  0.590656  0.252980  0.245926  1
  O  O26  1  0.460188  0.251836  0.236518  1
  O  O27  1  0.540913  0.913257  0.274183  1
  O  O28  1  0.499873  -0.000000  0.275928  1
  O  O29  1  0.652924  0.497199  0.202450  1
  O  O30  1  0.653854  -0.000000  0.202155  1
  O  O31  1  0.500394  -0.000000  0.234930  1
  O  O32  1  0.344162  0.500474  0.201486  1
  O  O33  1  0.502059  0.347205  0.234525  1
  O  O34  1  0.141445  0.859665  0.241675  1
  O  O35  1  0.142563  0.553155  0.160208  1
  O  O36  1  0.047110  0.359657  0.155570  1
  O  O37  1  0.251798  0.959518  0.228983  1
  O  O38  1  0.042370  0.585218  0.130819  1
  O  O39  1  0.088001  0.249918  0.157643  1
  O  O40  1  0.247383  0.458320  0.191407  1
  O  O41  1  0.248704  0.585449  0.174640  1
  O  O42  1  0.041674  0.750007  0.274140  1
  O  O43  1  0.090712  0.458016  0.158312  1
  O  O44  1  0.251648  0.087342  0.191754  1
  O  O45  1  0.001473  0.500164  0.128644  1
  O  O46  1  0.153096  0.498982  0.201636  1
  O  O47  1  0.002111  0.498999  0.169678  1
  O  O48  1  0.000000  0.153975  0.169369  1
  O  O49  1  0.000000  0.653844  0.276107  1
  O  O50  1  0.000000  0.346070  0.128342  1
  O  O51  1  0.000000  0.845908  0.234969  1
  O  O52  1  0.953864  0.359469  0.095428  1
  O  O53  1  0.859582  0.859260  0.222221  1
  O  O54  1  0.858275  0.545394  0.222399  1
  O  O55  1  0.913094  0.249530  0.140195  1
  O  O56  1  0.748560  0.457181  0.229448  1
  O  O57  1  0.749465  0.959083  0.192128  1
  O  O58  1  0.958428  0.587272  0.236841  1
  O  O59  1  0.912119  0.458826  0.264202  1
  O  O60  1  0.750244  0.087337  0.174750  1
  O  O61  1  0.748063  0.585684  0.192443  1
  O  O62  1  0.959094  0.749228  0.237041  1
  O  O63  1  0.846031  -0.000000  0.202118  1
  O  O64  1  -0.000000  0.499876  0.234920  1
  O  O65  1  0.000000  0.499940  0.275911  1
  O  O66  1  0.843983  0.497998  0.202586  1
  O  O67  1  0.356830  0.947315  0.182712  1
  O  O68  1  0.358347  0.640555  0.181769  1
  O  O69  1  0.642506  0.357262  0.243910  1
  O  O70  1  0.639306  0.046735  0.162338  1
  O  O71  1  0.453804  0.142132  0.308656  1
  O  O72  1  0.544623  0.859943  0.155423  1
  O  O73  1  0.458163  0.750315  0.167377  1
  O  O74  1  0.539346  0.087747  0.130224  1
  O  O75  1  0.410760  0.041708  0.140293  1
  O  O76  1  0.586837  0.749866  0.157638  1
  O  O77  1  0.542281  0.251594  0.273388  1
  O  O78  1  0.456771  0.914869  0.167169  1
  O  O79  1  0.585227  0.959596  0.157695  1
  O  O80  1  0.413591  0.252008  0.263787  1
  O  O81  1  0.347038  0.001258  0.201189  1
  O  O82  1  0.499331  0.654205  0.169235  1
  O  O83  1  0.496847  -0.000000  0.169319  1
  O  O84  1  0.498311  -0.000000  0.128298  1
  O  O85  1  0.501406  0.156167  0.275645  1
  O  O86  1  0.499453  0.846197  0.128298  1
  O  O87  1  0.046309  0.640120  0.248933  1
  O  O88  1  0.139192  0.453252  0.241790  1
  O  O89  1  0.141520  0.140686  0.162025  1
  O  O90  1  0.086989  0.540912  0.246532  1
  O  O91  1  0.251259  0.914901  0.211058  1
  O  O92  1  0.248444  0.412785  0.228954  1
  O  O93  1  0.041591  0.250274  0.130147  1
  O  O94  1  0.087669  0.750144  0.246666  1
  O  O95  1  0.248209  0.540555  0.211664  1
  O  O96  1  0.252668  0.042228  0.173550  1
  O  O97  1  0.040580  0.412522  0.274125  1
  O  O98  1  0.155871  0.000000  0.201635  1
  O  O99  1  0.859093  0.452445  0.395961  1
  O  O100  1  0.859939  0.140043  0.395681  1
  O  O101  1  0.954857  0.640676  0.309024  1
  O  O102  1  0.747203  0.408658  0.426163  1
  O  O103  1  0.959474  0.250348  0.380947  1
  O  O104  1  0.913652  0.540661  0.353950  1
  O  O105  1  0.750214  0.912314  0.443009  1
  O  O106  1  0.749834  0.040543  0.425616  1
  O  O107  1  0.960236  0.412793  0.381257  1
  O  O108  1  0.913019  0.750140  0.477795  1
  O  O109  1  0.748239  0.538995  0.388612  1
  O  O110  1  0.547021  0.141636  0.462234  1
  O  O111  1  0.453286  0.860191  0.522307  1
  O  O112  1  0.640483  0.953665  0.455547  1
  O  O113  1  0.639141  0.639827  0.375832  1
  O  O114  1  0.359200  0.360525  0.435196  1
  O  O115  1  0.360589  0.047109  0.435350  1
  O  O116  1  0.587651  0.041579  0.460199  1
  O  O117  1  0.412058  0.750023  0.353504  1
  O  O118  1  0.540588  0.750603  0.343531  1
  O  O119  1  0.459288  0.088222  0.450289  1
  O  O120  1  0.412535  0.959899  0.477519  1
  O  O121  1  0.590656  0.252980  0.459427  1
  O  O122  1  0.460188  0.251836  0.450019  1
  O  O123  1  0.540913  0.913257  0.487684  1
  O  O124  1  0.499873  0.000000  0.489429  1
  O  O125  1  0.652924  0.497199  0.415951  1
  O  O126  1  0.653854  -0.000000  0.415656  1
  O  O127  1  0.500394  -0.000000  0.448431  1
  O  O128  1  0.344162  0.500474  0.414987  1
  O  O129  1  0.502059  0.347205  0.448026  1
  O  O130  1  0.141445  0.859665  0.455176  1
  O  O131  1  0.142563  0.553155  0.373709  1
  O  O132  1  0.047110  0.359657  0.369071  1
  O  O133  1  0.251798  0.959518  0.442484  1
  O  O134  1  0.042370  0.585218  0.344320  1
  O  O135  1  0.088001  0.249918  0.371144  1
  O  O136  1  0.247383  0.458320  0.404908  1
  O  O137  1  0.248704  0.585449  0.388141  1
  O  O138  1  0.041674  0.750007  0.487641  1
  O  O139  1  0.090712  0.458016  0.371813  1
  O  O140  1  0.251648  0.087342  0.405256  1
  O  O141  1  0.001473  0.500164  0.342145  1
  O  O142  1  0.153096  0.498982  0.415137  1
  O  O143  1  0.002111  0.498999  0.383179  1
  O  O144  1  -0.000000  0.153975  0.382870  1
  O  O145  1  0.000000  0.653844  0.489608  1
  O  O146  1  0.000000  0.346070  0.341844  1
  O  O147  1  -0.000000  0.845908  0.448470  1
  O  O148  1  0.953864  0.359469  0.308929  1
  O  O149  1  0.859582  0.859260  0.435722  1
  O  O150  1  0.858275  0.545394  0.435900  1
  O  O151  1  0.913094  0.249530  0.353696  1
  O  O152  1  0.748560  0.457181  0.442949  1
  O  O153  1  0.749465  0.959083  0.405629  1
  O  O154  1  0.958428  0.587272  0.450342  1
  O  O155  1  0.912119  0.458826  0.477703  1
  O  O156  1  0.750244  0.087337  0.388251  1
  O  O157  1  0.748063  0.585684  0.405944  1
  O  O158  1  0.959094  0.749228  0.450542  1
  O  O159  1  0.846031  -0.000000  0.415619  1
  O  O160  1  -0.000000  0.499876  0.448421  1
  O  O161  1  0.000000  0.499940  0.489412  1
  O  O162  1  0.843983  0.497998  0.416087  1
  O  O163  1  0.356830  0.947315  0.396213  1
  O  O164  1  0.358347  0.640555  0.395270  1
  O  O165  1  0.642506  0.357262  0.457411  1
  O  O166  1  0.639306  0.046735  0.375839  1
  O  O167  1  0.453804  0.142132  0.522157  1
  O  O168  1  0.544623  0.859943  0.368924  1
  O  O169  1  0.458163  0.750315  0.380878  1
  O  O170  1  0.539346  0.087747  0.343725  1
  O  O171  1  0.410760  0.041708  0.353794  1
  O  O172  1  0.586837  0.749866  0.371140  1
  O  O173  1  0.542281  0.251594  0.486889  1
  O  O174  1  0.456771  0.914869  0.380670  1
  O  O175  1  0.585227  0.959596  0.371196  1
  O  O176  1  0.413591  0.252008  0.477288  1
  O  O177  1  0.347038  0.001258  0.414690  1
  O  O178  1  0.499331  0.654205  0.382736  1
  O  O179  1  0.496847  0.000000  0.382820  1
  O  O180  1  0.498311  0.000000  0.341799  1
  O  O181  1  0.501406  0.156167  0.489146  1
  O  O182  1  0.499453  0.846197  0.341799  1
  O  O183  1  0.046309  0.640120  0.462434  1
  O  O184  1  0.139192  0.453252  0.455291  1
  O  O185  1  0.141520  0.140686  0.375527  1
  O  O186  1  0.086989  0.540912  0.460033  1
  O  O187  1  0.251259  0.914901  0.424559  1
  O  O188  1  0.248444  0.412785  0.442455  1
  O  O189  1  0.041591  0.250274  0.343648  1
  O  O190  1  0.087669  0.750144  0.460167  1
  O  O191  1  0.248209  0.540555  0.425166  1
  O  O192  1  0.252668  0.042228  0.387051  1
  O  O193  1  0.040580  0.412522  0.487626  1
  O  O194  1  0.155871  0.000000  0.415137  1
  O  O195  1  0.859093  0.452445  0.609462  1
  O  O196  1  0.859939  0.140043  0.609182  1
  O  O197  1  0.954857  0.640676  0.522525  1
  O  O198  1  0.747203  0.408658  0.639664  1
  O  O199  1  0.959474  0.250348  0.594448  1
  O  O200  1  0.913652  0.540661  0.567451  1
  O  O201  1  0.750214  0.912314  0.656510  1
  O  O202  1  0.749834  0.040543  0.639117  1
  O  O203  1  0.960236  0.412793  0.594758  1
  O  O204  1  0.913019  0.750140  0.691296  1
  O  O205  1  0.748239  0.538995  0.602114  1
  O  O206  1  0.547021  0.141636  0.675735  1
  O  O207  1  0.453286  0.860191  0.735808  1
  O  O208  1  0.640483  0.953665  0.669048  1
  O  O209  1  0.639141  0.639827  0.589334  1
  O  O210  1  0.359200  0.360525  0.648697  1
  O  O211  1  0.360589  0.047109  0.648851  1
  O  O212  1  0.587651  0.041579  0.673700  1
  O  O213  1  0.412058  0.750023  0.567005  1
  O  O214  1  0.540588  0.750603  0.557032  1
  O  O215  1  0.459288  0.088222  0.663790  1
  O  O216  1  0.412535  0.959899  0.691020  1
  O  O217  1  0.590656  0.252980  0.672928  1
  O  O218  1  0.460188  0.251836  0.663520  1
  O  O219  1  0.540913  0.913257  0.701185  1
  O  O220  1  0.499873  -0.000000  0.702930  1
  O  O221  1  0.652924  0.497199  0.629453  1
  O  O222  1  0.653854  -0.000000  0.629157  1
  O  O223  1  0.500394  0.000000  0.661932  1
  O  O224  1  0.344162  0.500474  0.628488  1
  O  O225  1  0.502059  0.347205  0.661527  1
  O  O226  1  0.141445  0.859665  0.668677  1
  O  O227  1  0.142563  0.553155  0.587210  1
  O  O228  1  0.047110  0.359657  0.582572  1
  O  O229  1  0.251798  0.959518  0.655985  1
  O  O230  1  0.042370  0.585218  0.557821  1
  O  O231  1  0.088001  0.249918  0.584645  1
  O  O232  1  0.247383  0.458320  0.618409  1
  O  O233  1  0.248704  0.585449  0.601643  1
  O  O234  1  0.041674  0.750007  0.701142  1
  O  O235  1  0.090712  0.458016  0.585314  1
  O  O236  1  0.251648  0.087342  0.618757  1
  O  O237  1  0.001473  0.500164  0.555646  1
  O  O238  1  0.153096  0.498982  0.628638  1
  O  O239  1  0.002111  0.498999  0.596681  1
  O  O240  1  0.000000  0.153975  0.596371  1
  O  O241  1  0.000000  0.653844  0.703109  1
  O  O242  1  0.000000  0.346070  0.555345  1
  O  O243  1  0.000000  0.845908  0.661971  1
  O  O244  1  0.953864  0.359469  0.522430  1
  O  O245  1  0.859582  0.859260  0.649223  1
  O  O246  1  0.858275  0.545394  0.649401  1
  O  O247  1  0.913094  0.249530  0.567197  1
  O  O248  1  0.748560  0.457181  0.656450  1
  O  O249  1  0.749465  0.959083  0.619130  1
  O  O250  1  0.958428  0.587272  0.663843  1
  O  O251  1  0.912119  0.458826  0.691204  1
  O  O252  1  0.750244  0.087337  0.601752  1
  O  O253  1  0.748063  0.585684  0.619445  1
  O  O254  1  0.959094  0.749228  0.664043  1
  O  O255  1  0.846031  -0.000000  0.629120  1
  O  O256  1  0.000000  0.499876  0.661922  1
  O  O257  1  0.000000  0.499940  0.702913  1
  O  O258  1  0.843983  0.497998  0.629589  1
  O  O259  1  0.356830  0.947315  0.609714  1
  O  O260  1  0.358347  0.640555  0.608772  1
  O  O261  1  0.642506  0.357262  0.670913  1
  O  O262  1  0.639306  0.046735  0.589340  1
  O  O263  1  0.453804  0.142132  0.735658  1
  O  O264  1  0.544623  0.859943  0.582425  1
  O  O265  1  0.458163  0.750315  0.594379  1
  O  O266  1  0.539346  0.087747  0.557226  1
  O  O267  1  0.410760  0.041708  0.567296  1
  O  O268  1  0.586837  0.749866  0.584641  1
  O  O269  1  0.542281  0.251594  0.700390  1
  O  O270  1  0.456771  0.914869  0.594171  1
  O  O271  1  0.585227  0.959596  0.584697  1
  O  O272  1  0.413591  0.252008  0.690789  1
  O  O273  1  0.347038  0.001258  0.628191  1
  O  O274  1  0.499331  0.654205  0.596238  1
  O  O275  1  0.496847  -0.000000  0.596321  1
  O  O276  1  0.498311  0.000000  0.555300  1
  O  O277  1  0.501406  0.156167  0.702647  1
  O  O278  1  0.499453  0.846197  0.555300  1
  O  O279  1  0.046309  0.640120  0.675935  1
  O  O280  1  0.139192  0.453252  0.668792  1
  O  O281  1  0.141520  0.140686  0.589028  1
  O  O282  1  0.086989  0.540912  0.673534  1
  O  O283  1  0.251259  0.914901  0.638060  1
  O  O284  1  0.248444  0.412785  0.655956  1
  O  O285  1  0.041591  0.250274  0.557149  1
  O  O286  1  0.087669  0.750144  0.673668  1
  O  O287  1  0.248209  0.540555  0.638667  1
  O  O288  1  0.252668  0.042228  0.600552  1
  O  O289  1  0.040580  0.412522  0.701127  1
  O  O290  1  0.155871  -0.000000  0.628638  1
  O  O291  1  0.954857  0.640676  0.736027  1
  O  O292  1  0.953864  0.359469  0.735931  1
  Si  Si293  1  0.806146  0.074075  0.192131  1
  Si  Si294  1  0.692109  0.573535  0.180429  1
  Si  Si295  1  0.693962  0.972345  0.223883  1
  Si  Si296  1  0.973436  0.694053  0.283413  1
  Si  Si297  1  0.925615  0.472310  0.167017  1
  Si  Si298  1  0.803612  0.469750  0.192719  1
  Si  Si299  1  0.926114  0.193830  0.166695  1
  Si  Si300  1  0.973218  0.574653  0.121062  1
  Si  Si301  1  0.574690  0.973306  0.249362  1
  Si  Si302  1  0.527427  0.075173  0.251532  1
  Si  Si303  1  0.472250  0.806355  0.120894  1
  Si  Si304  1  0.573850  0.694221  0.154914  1
  Si  Si305  1  0.425881  0.028212  0.237546  1
  Si  Si306  1  0.472425  0.926413  0.283246  1
  Si  Si307  1  0.529533  0.196496  0.251107  1
  Si  Si308  1  0.425556  0.307959  0.237233  1
  Si  Si309  1  0.307797  0.027903  0.211808  1
  Si  Si310  1  0.194973  0.925490  0.223550  1
  Si  Si311  1  0.078910  0.525982  0.155726  1
  Si  Si312  1  0.027783  0.306275  0.152760  1
  Si  Si313  1  0.303821  0.426037  0.211341  1
  Si  Si314  1  0.191386  0.526150  0.179466  1
  Si  Si315  1  0.074893  0.806125  0.249262  1
  Si  Si316  1  0.029571  0.425654  0.153186  1
  Si  Si317  1  0.973151  0.305991  0.120992  1
  Si  Si318  1  0.691184  0.420506  0.224620  1
  Si  Si319  1  0.805907  0.925470  0.212099  1
  Si  Si320  1  0.924838  0.527052  0.237709  1
  Si  Si321  1  0.972425  0.425497  0.283304  1
  Si  Si322  1  0.693762  0.027384  0.180403  1
  Si  Si323  1  0.804828  0.526284  0.212417  1
  Si  Si324  1  0.925751  0.805694  0.237803  1
  Si  Si325  1  0.473122  0.195246  0.283195  1
  Si  Si326  1  0.424828  0.694159  0.166498  1
  Si  Si327  1  0.572894  0.027909  0.155089  1
  Si  Si328  1  0.471050  0.075830  0.120764  1
  Si  Si329  1  0.526502  0.806104  0.152755  1
  Si  Si330  1  0.578877  0.308960  0.248469  1
  Si  Si331  1  0.421095  0.973341  0.166977  1
  Si  Si332  1  0.525521  0.926026  0.152701  1
  Si  Si333  1  0.073727  0.472586  0.249236  1
  Si  Si334  1  0.026981  0.574311  0.251463  1
  Si  Si335  1  0.308664  0.974262  0.190564  1
  Si  Si336  1  0.192303  0.472155  0.223658  1
  Si  Si337  1  0.075269  0.194018  0.154999  1
  Si  Si338  1  0.027584  0.693606  0.251684  1
  Si  Si339  1  0.304974  0.574734  0.191684  1
  Si  Si340  1  0.196237  0.074418  0.179727  1
  Si  Si341  1  0.806146  0.074075  0.405632  1
  Si  Si342  1  0.692109  0.573535  0.393930  1
  Si  Si343  1  0.693962  0.972345  0.437384  1
  Si  Si344  1  0.973436  0.694053  0.496914  1
  Si  Si345  1  0.925615  0.472310  0.380518  1
  Si  Si346  1  0.803612  0.469750  0.406220  1
  Si  Si347  1  0.926114  0.193830  0.380196  1
  Si  Si348  1  0.973218  0.574653  0.334563  1
  Si  Si349  1  0.574690  0.973306  0.462863  1
  Si  Si350  1  0.527427  0.075173  0.465033  1
  Si  Si351  1  0.472250  0.806355  0.334395  1
  Si  Si352  1  0.573850  0.694221  0.368415  1
  Si  Si353  1  0.425881  0.028212  0.451047  1
  Si  Si354  1  0.472425  0.926413  0.496747  1
  Si  Si355  1  0.529533  0.196496  0.464608  1
  Si  Si356  1  0.425556  0.307959  0.450734  1
  Si  Si357  1  0.307797  0.027903  0.425309  1
  Si  Si358  1  0.194973  0.925490  0.437051  1
  Si  Si359  1  0.078910  0.525982  0.369227  1
  Si  Si360  1  0.027783  0.306275  0.366261  1
  Si  Si361  1  0.303821  0.426037  0.424842  1
  Si  Si362  1  0.191386  0.526150  0.392967  1
  Si  Si363  1  0.074893  0.806125  0.462764  1
  Si  Si364  1  0.029571  0.425654  0.366687  1
  Si  Si365  1  0.973151  0.305991  0.334493  1
  Si  Si366  1  0.691184  0.420506  0.438121  1
  Si  Si367  1  0.805907  0.925470  0.425600  1
  Si  Si368  1  0.924838  0.527052  0.451210  1
  Si  Si369  1  0.972425  0.425497  0.496805  1
  Si  Si370  1  0.693762  0.027384  0.393904  1
  Si  Si371  1  0.804828  0.526284  0.425918  1
  Si  Si372  1  0.925751  0.805694  0.451304  1
  Si  Si373  1  0.473122  0.195246  0.496697  1
  Si  Si374  1  0.424828  0.694159  0.379999  1
  Si  Si375  1  0.572894  0.027909  0.368590  1
  Si  Si376  1  0.471050  0.075830  0.334265  1
  Si  Si377  1  0.526502  0.806104  0.366256  1
  Si  Si378  1  0.578877  0.308960  0.461970  1
  Si  Si379  1  0.421095  0.973341  0.380478  1
  Si  Si380  1  0.525521  0.926026  0.366203  1
  Si  Si381  1  0.073727  0.472586  0.462737  1
  Si  Si382  1  0.026981  0.574311  0.464964  1
  Si  Si383  1  0.308664  0.974262  0.404065  1
  Si  Si384  1  0.192303  0.472155  0.437159  1
  Si  Si385  1  0.075269  0.194018  0.368500  1
  Si  Si386  1  0.027584  0.693606  0.465185  1
  Si  Si387  1  0.304974  0.574734  0.405185  1
  Si  Si388  1  0.196237  0.074418  0.393228  1
  Si  Si389  1  0.806146  0.074075  0.619133  1
  Si  Si390  1  0.692109  0.573535  0.607431  1
  Si  Si391  1  0.693962  0.972345  0.650885  1
  Si  Si392  1  0.973436  0.694053  0.710416  1
  Si  Si393  1  0.925615  0.472310  0.594019  1
  Si  Si394  1  0.803612  0.469750  0.619721  1
  Si  Si395  1  0.926114  0.193830  0.593697  1
  Si  Si396  1  0.973218  0.574653  0.548064  1
  Si  Si397  1  0.574690  0.973306  0.676364  1
  Si  Si398  1  0.527427  0.075173  0.678535  1
  Si  Si399  1  0.472250  0.806355  0.547896  1
  Si  Si400  1  0.573850  0.694221  0.581916  1
  Si  Si401  1  0.425881  0.028212  0.664548  1
  Si  Si402  1  0.472425  0.926413  0.710248  1
  Si  Si403  1  0.529533  0.196496  0.678109  1
  Si  Si404  1  0.425556  0.307959  0.664235  1
  Si  Si405  1  0.307797  0.027903  0.638810  1
  Si  Si406  1  0.194973  0.925490  0.650552  1
  Si  Si407  1  0.078910  0.525982  0.582728  1
  Si  Si408  1  0.027783  0.306275  0.579762  1
  Si  Si409  1  0.303821  0.426037  0.638343  1
  Si  Si410  1  0.191386  0.526150  0.606469  1
  Si  Si411  1  0.074893  0.806125  0.676265  1
  Si  Si412  1  0.029571  0.425654  0.580188  1
  Si  Si413  1  0.973151  0.305991  0.547994  1
  Si  Si414  1  0.691184  0.420506  0.651622  1
  Si  Si415  1  0.805907  0.925470  0.639101  1
  Si  Si416  1  0.924838  0.527052  0.664711  1
  Si  Si417  1  0.972425  0.425497  0.710306  1
  Si  Si418  1  0.693762  0.027384  0.607405  1
  Si  Si419  1  0.804828  0.526284  0.639419  1
  Si  Si420  1  0.925751  0.805694  0.664805  1
  Si  Si421  1  0.473122  0.195246  0.710198  1
  Si  Si422  1  0.424828  0.694159  0.593500  1
  Si  Si423  1  0.572894  0.027909  0.582091  1
  Si  Si424  1  0.471050  0.075830  0.547766  1
  Si  Si425  1  0.526502  0.806104  0.579757  1
  Si  Si426  1  0.578877  0.308960  0.675471  1
  Si  Si427  1  0.421095  0.973341  0.593979  1
  Si  Si428  1  0.525521  0.926026  0.579704  1
  Si  Si429  1  0.073727  0.472586  0.676238  1
  Si  Si430  1  0.026981  0.574311  0.678465  1
  Si  Si431  1  0.308664  0.974262  0.617566  1
  Si  Si432  1  0.192303  0.472155  0.650660  1
  Si  Si433  1  0.075269  0.194018  0.582001  1
  Si  Si434  1  0.027584  0.693606  0.678686  1
  Si  Si435  1  0.304974  0.574734  0.618687  1
  Si  Si436  1  0.196237  0.074418  0.606729  1
  H  H437  1  0.453286  0.860191  0.084559  1
  H  H438  1  0.453804  0.142132  0.084409  1
  H  H439  1  0.954857  0.640676  0.084778  1
  H  H440  1  0.953864  0.359469  0.084682  1
  H  H441  1  0.453286  0.860191  0.746554  1
  H  H442  1  0.453804  0.142132  0.746404  1
  H  H443  1  0.954857  0.640676  0.746772  1
  H  H444  1  0.953864  0.359469  0.746677  1
