# generated using pymatgen
data_Si14H2O29
_symmetry_space_group_name_H-M   'P 1'
_cell_length_a   7.15454545
_cell_length_b   7.18682161
_cell_length_c   55.06965905
_cell_angle_alpha   90.00000000
_cell_angle_beta   90.00000000
_cell_angle_gamma   90.00300000
_symmetry_Int_Tables_number   1
_chemical_formula_structural   Si14H2O29
_chemical_formula_sum   'Si28 H4 O58'
_cell_volume   2831.59605752
_cell_formula_units_Z   2
loop_
 _symmetry_equiv_pos_site_id
 _symmetry_equiv_pos_as_xyz
  1  'x, y, z'
loop_
 _atom_site_type_symbol
 _atom_site_label
 _atom_site_symmetry_multiplicity
 _atom_site_fract_x
 _atom_site_fract_y
 _atom_site_fract_z
 _atom_site_occupancy
  O  O1  1  0.171590  0.994364  0.711267  1
  O  O2  1  0.671647  0.994384  0.333629  1
  O  O3  1  0.828132  0.994356  0.711275  1
  O  O4  1  0.328188  0.994374  0.333643  1
  O  O5  1  0.828097  0.994426  0.107137  1
  O  O6  1  0.328197  0.994301  0.484765  1
  O  O7  1  0.171556  0.994434  0.107141  1
  O  O8  1  0.671655  0.994310  0.484778  1
  O  O9  1  0.823645  0.814246  0.370645  1
  O  O10  1  0.176408  0.173465  0.370711  1
  O  O11  1  0.176410  0.173474  0.447702  1
  O  O12  1  0.823648  0.814255  0.447757  1
  O  O13  1  0.500010  0.993706  0.372141  1
  O  O14  1  0.500013  0.993723  0.446267  1
  O  O15  1  0.823599  0.173455  0.370691  1
  O  O16  1  0.176331  0.814259  0.370668  1
  O  O17  1  0.176337  0.814269  0.447734  1
  O  O18  1  0.823606  0.173465  0.447721  1
  O  O19  1  0.000000  0.493903  0.375107  1
  O  O20  1  -0.000000  0.493917  0.443300  1
  O  O21  1  0.000000  0.734655  0.409202  1
  O  O22  1  -0.000000  0.253336  0.409206  1
  O  O23  1  -0.000000  0.830428  0.672721  1
  O  O24  1  0.499819  0.830513  0.295085  1
  O  O25  1  -0.000000  0.172138  0.674058  1
  O  O26  1  0.499809  0.172223  0.296424  1
  O  O27  1  -0.000000  0.172293  0.144347  1
  O  O28  1  0.499835  0.172044  0.521990  1
  O  O29  1  0.000000  0.830585  0.145693  1
  O  O30  1  0.499845  0.830331  0.523316  1
  O  O31  1  0.179520  0.685306  0.635334  1
  O  O32  1  0.679473  0.685407  0.257697  1
  O  O33  1  0.819559  0.332904  0.637731  1
  O  O34  1  0.319511  0.333004  0.260098  1
  O  O35  1  0.819504  0.333116  0.180671  1
  O  O36  1  0.319566  0.332746  0.558323  1
  O  O37  1  0.179463  0.685513  0.183084  1
  O  O38  1  0.679532  0.685152  0.560699  1
  O  O39  1  -0.000000  0.010279  0.634861  1
  O  O40  1  0.499736  0.010383  0.257226  1
  O  O41  1  0.000000  0.010499  0.183548  1
  O  O42  1  0.499796  0.010112  0.561182  1
  O  O43  1  0.820078  0.685292  0.635339  1
  O  O44  1  0.320023  0.685390  0.257706  1
  O  O45  1  0.180015  0.332917  0.637727  1
  O  O46  1  0.679963  0.333014  0.260090  1
  O  O47  1  0.179958  0.333128  0.180677  1
  O  O48  1  0.680021  0.332758  0.558326  1
  O  O49  1  0.820021  0.685498  0.183076  1
  O  O50  1  0.320079  0.685137  0.560694  1
  O  O51  1  0.499792  0.508111  0.631136  1
  O  O52  1  0.000000  0.508209  0.253500  1
  O  O53  1  0.499734  0.508311  0.187273  1
  O  O54  1  0.000000  0.507966  0.564908  1
  O  O55  1  0.749806  0.492441  0.598024  1
  O  O56  1  0.249764  0.492569  0.220390  1
  O  O57  1  0.249810  0.492441  0.598021  1
  O  O58  1  0.749761  0.492568  0.220383  1
  Si  Si59  1  0.712687  0.993877  0.362469  1
  Si  Si60  1  0.287288  0.993884  0.362486  1
  Si  Si61  1  0.287296  0.993880  0.455922  1
  Si  Si62  1  0.712688  0.993873  0.455938  1
  Si  Si63  1  -0.000000  0.708558  0.380958  1
  Si  Si64  1  -0.000000  0.279257  0.380967  1
  Si  Si65  1  0.000000  0.279264  0.437444  1
  Si  Si66  1  0.000000  0.708569  0.437446  1
  Si  Si67  1  -0.000000  0.796265  0.643720  1
  Si  Si68  1  0.499762  0.796357  0.266083  1
  Si  Si69  1  0.000000  0.219940  0.645422  1
  Si  Si70  1  0.499746  0.220046  0.267788  1
  Si  Si71  1  0.000000  0.220136  0.172981  1
  Si  Si72  1  0.499798  0.219801  0.550628  1
  Si  Si73  1  0.000000  0.796478  0.174695  1
  Si  Si74  1  0.499813  0.796106  0.552317  1
  Si  Si75  1  0.716299  0.505082  0.625991  1
  Si  Si76  1  0.216253  0.505179  0.248358  1
  Si  Si77  1  0.283289  0.505095  0.625988  1
  Si  Si78  1  0.783235  0.505193  0.248352  1
  Si  Si79  1  0.283233  0.505279  0.192422  1
  Si  Si80  1  0.783289  0.504974  0.570055  1
  Si  Si81  1  0.716243  0.505266  0.192416  1
  Si  Si82  1  0.216311  0.504960  0.570052  1
  Si  Si83  1  0.000000  0.996880  0.692339  1
  Si  Si84  1  0.499870  0.996953  0.314704  1
  Si  Si85  1  -0.000000  0.997002  0.126075  1
  Si  Si86  1  0.499882  0.996819  0.503702  1
  H  H87  1  0.171590  0.994364  0.727610  1
  H  H88  1  0.828132  0.994356  0.727618  1
  H  H89  1  0.828097  0.994426  0.090794  1
  H  H90  1  0.171556  0.994434  0.090798  1
