# generated using pymatgen
data_Si16H2O33
_symmetry_space_group_name_H-M   'P 1'
_cell_length_a   7.67612438
_cell_length_b   7.67900504
_cell_length_c   49.10766592
_cell_angle_alpha   90.00000000
_cell_angle_beta   90.00000000
_cell_angle_gamma   90.00000000
_symmetry_Int_Tables_number   1
_chemical_formula_structural   Si16H2O33
_chemical_formula_sum   'Si32 H4 O66'
_cell_volume   2894.65125993
_cell_formula_units_Z   2
loop_
 _symmetry_equiv_pos_site_id
 _symmetry_equiv_pos_as_xyz
  1  'x, y, z'
loop_
 _atom_site_type_symbol
 _atom_site_label
 _atom_site_symmetry_multiplicity
 _atom_site_fract_x
 _atom_site_fract_y
 _atom_site_fract_z
 _atom_site_occupancy
  O  O1  1  0.169268  0.010207  0.165784  1
  O  O2  1  0.670049  0.515009  0.443514  1
  O  O3  1  0.736152  0.419197  0.582525  1
  O  O4  1  0.238157  0.919793  0.304644  1
  O  O5  1  0.330247  0.985212  0.443400  1
  O  O6  1  0.830181  0.487775  0.165694  1
  O  O7  1  0.761685  0.580432  0.304685  1
  O  O8  1  0.264800  0.079677  0.582553  1
  O  O9  1  0.830212  0.011085  0.165737  1
  O  O10  1  0.330313  0.515011  0.443465  1
  O  O11  1  0.264791  0.419205  0.582458  1
  O  O12  1  0.761929  0.919748  0.304611  1
  O  O13  1  0.670085  0.985157  0.443439  1
  O  O14  1  0.169226  0.488591  0.165742  1
  O  O15  1  0.238369  0.580477  0.304731  1
  O  O16  1  0.736201  0.079644  0.582628  1
  O  O17  1  0.830586  0.984919  0.630450  1
  O  O18  1  0.330290  0.488139  0.352279  1
  O  O19  1  0.264793  0.579605  0.213424  1
  O  O20  1  0.761112  0.080793  0.491117  1
  O  O21  1  0.669630  0.011690  0.352164  1
  O  O22  1  0.170087  0.513604  0.630279  1
  O  O23  1  0.238698  0.419875  0.491153  1
  O  O24  1  0.735030  0.919442  0.213421  1
  O  O25  1  0.170101  0.984950  0.630347  1
  O  O26  1  0.669591  0.488253  0.352223  1
  O  O27  1  0.734974  0.579697  0.213382  1
  O  O28  1  0.239477  0.080799  0.491078  1
  O  O29  1  0.330335  0.011833  0.352204  1
  O  O30  1  0.830553  0.513582  0.630378  1
  O  O31  1  0.761954  0.419854  0.491205  1
  O  O32  1  0.264797  0.919465  0.213464  1
  O  O33  1  0.000000  0.026598  0.336043  1
  O  O34  1  0.500348  0.526508  0.614226  1
  O  O35  1  0.723228  0.249566  0.197103  1
  O  O36  1  0.222617  0.750335  0.475191  1
  O  O37  1  0.500363  0.972101  0.614298  1
  O  O38  1  -0.000000  0.473586  0.336085  1
  O  O39  1  0.777849  0.750325  0.475231  1
  O  O40  1  0.275964  0.249537  0.197061  1
  O  O41  1  0.000000  0.974169  0.459792  1
  O  O42  1  0.499704  0.472009  0.181640  1
  O  O43  1  0.277794  0.749412  0.598613  1
  O  O44  1  0.776609  0.250103  0.320817  1
  O  O45  1  0.499733  0.026979  0.181676  1
  O  O46  1  -0.000000  0.526650  0.459781  1
  O  O47  1  0.223343  0.250143  0.320843  1
  O  O48  1  0.723122  0.749393  0.598689  1
  O  O49  1  0.998798  0.749418  0.151662  1
  O  O50  1  0.500260  0.250123  0.431973  1
  O  O51  1  -0.000000  0.249382  0.570761  1
  O  O52  1  0.499973  0.750238  0.290801  1
  O  O53  1  0.000000  0.249369  0.642129  1
  O  O54  1  0.499894  0.750069  0.366077  1
  O  O55  1  -0.000000  0.749476  0.224917  1
  O  O56  1  0.500301  0.251156  0.505222  1
  O  O57  1  0.001185  0.491977  0.120144  1
  O  O58  1  0.500354  0.008182  0.397647  1
  O  O59  1  0.242643  0.248645  0.536678  1
  O  O60  1  0.757737  0.749412  0.259180  1
  O  O61  1  0.500447  0.492354  0.397716  1
  O  O62  1  0.001226  0.007106  0.120203  1
  O  O63  1  0.241942  0.749365  0.259221  1
  O  O64  1  0.757717  0.248528  0.536738  1
  O  O65  1  0.001185  0.491977  0.676163  1
  O  O66  1  0.001226  0.007106  0.676222  1
  Si  Si67  1  -0.000000  0.548365  0.150559  1
  Si  Si68  1  0.500248  0.049565  0.428690  1
  Si  Si69  1  0.200859  0.249254  0.567696  1
  Si  Si70  1  0.701068  0.749980  0.289571  1
  Si  Si71  1  0.500274  0.450713  0.428749  1
  Si  Si72  1  -0.000000  0.950484  0.150604  1
  Si  Si73  1  0.298873  0.749990  0.289601  1
  Si  Si74  1  0.799859  0.249226  0.567747  1
  Si  Si75  1  0.000000  0.449926  0.645152  1
  Si  Si76  1  0.500041  0.951218  0.367267  1
  Si  Si77  1  0.799365  0.749489  0.228147  1
  Si  Si78  1  0.299284  0.250263  0.506278  1
  Si  Si79  1  0.500037  0.548929  0.367320  1
  Si  Si80  1  0.000000  0.048838  0.645201  1
  Si  Si81  1  0.701309  0.250237  0.506326  1
  Si  Si82  1  0.200424  0.749463  0.228182  1
  Si  Si83  1  0.699441  0.948424  0.606526  1
  Si  Si84  1  0.199210  0.449382  0.328494  1
  Si  Si85  1  0.801001  0.949450  0.467411  1
  Si  Si86  1  0.300610  0.448761  0.189443  1
  Si  Si87  1  0.800765  0.050773  0.328406  1
  Si  Si88  1  0.301373  0.550285  0.606391  1
  Si  Si89  1  0.698833  0.050345  0.189464  1
  Si  Si90  1  0.199349  0.551161  0.467412  1
  Si  Si91  1  0.301396  0.948438  0.606455  1
  Si  Si92  1  0.800724  0.449360  0.328456  1
  Si  Si93  1  0.199386  0.949460  0.467380  1
  Si  Si94  1  0.698811  0.448735  0.189432  1
  Si  Si95  1  0.199220  0.050812  0.328434  1
  Si  Si96  1  0.699430  0.550258  0.606457  1
  Si  Si97  1  0.300643  0.050265  0.189476  1
  Si  Si98  1  0.801067  0.551141  0.467453  1
  H  H99  1  0.001185  0.491977  0.101817  1
  H  H100  1  0.001226  0.007106  0.101875  1
  H  H101  1  0.001185  0.491977  0.694490  1
  H  H102  1  0.001226  0.007106  0.694549  1
