# generated using pymatgen
data_Si24H2O49
_symmetry_space_group_name_H-M   'P 1'
_cell_length_a   17.86974808
_cell_length_b   25.29356968
_cell_length_c   65.87211962
_cell_angle_alpha   45.01208225
_cell_angle_beta   90.00000000
_cell_angle_gamma   90.00000000
_symmetry_Int_Tables_number   1
_chemical_formula_structural   Si24H2O49
_chemical_formula_sum   'Si96 H8 O196'
_cell_volume   21057.497548
_cell_formula_units_Z   4
loop_
 _symmetry_equiv_pos_site_id
 _symmetry_equiv_pos_as_xyz
  1  'x, y, z'
loop_
 _atom_site_type_symbol
 _atom_site_label
 _atom_site_symmetry_multiplicity
 _atom_site_fract_x
 _atom_site_fract_y
 _atom_site_fract_z
 _atom_site_occupancy
  O  O1  1  0.453286  0.860191  0.121176  1
  O  O2  1  0.453804  0.142132  0.120986  1
  O  O3  1  0.859093  0.452445  0.231990  1
  O  O4  1  0.859939  0.140043  0.231634  1
  O  O5  1  0.954857  0.640676  0.121454  1
  O  O6  1  0.747203  0.408658  0.270391  1
  O  O7  1  0.959474  0.250348  0.212900  1
  O  O8  1  0.913652  0.540661  0.178575  1
  O  O9  1  0.750214  0.912314  0.291809  1
  O  O10  1  0.749834  0.040543  0.269695  1
  O  O11  1  0.960236  0.412793  0.213294  1
  O  O12  1  0.913019  0.750140  0.336038  1
  O  O13  1  0.748239  0.538995  0.222647  1
  O  O14  1  0.547021  0.141636  0.316253  1
  O  O15  1  0.453286  0.860191  0.392634  1
  O  O16  1  0.640483  0.953665  0.307752  1
  O  O17  1  0.639141  0.639827  0.206398  1
  O  O18  1  0.359200  0.360525  0.281876  1
  O  O19  1  0.360589  0.047109  0.282072  1
  O  O20  1  0.587651  0.041579  0.313666  1
  O  O21  1  0.412058  0.750023  0.178008  1
  O  O22  1  0.540588  0.750603  0.165327  1
  O  O23  1  0.459288  0.088222  0.301065  1
  O  O24  1  0.412535  0.959899  0.335688  1
  O  O25  1  0.590656  0.252980  0.312684  1
  O  O26  1  0.460188  0.251836  0.300722  1
  O  O27  1  0.540913  0.913257  0.348611  1
  O  O28  1  0.499873  0.000000  0.350831  1
  O  O29  1  0.652924  0.497199  0.257407  1
  O  O30  1  0.653854  0.000000  0.257032  1
  O  O31  1  0.500394  0.000000  0.298703  1
  O  O32  1  0.344162  0.500474  0.256181  1
  O  O33  1  0.502059  0.347205  0.298188  1
  O  O34  1  0.141445  0.859665  0.307279  1
  O  O35  1  0.142563  0.553155  0.203697  1
  O  O36  1  0.047110  0.359657  0.197800  1
  O  O37  1  0.251798  0.959518  0.291142  1
  O  O38  1  0.042370  0.585218  0.166331  1
  O  O39  1  0.088001  0.249918  0.200436  1
  O  O40  1  0.247383  0.458320  0.243365  1
  O  O41  1  0.248704  0.585449  0.222048  1
  O  O42  1  0.041674  0.750007  0.348557  1
  O  O43  1  0.090712  0.458016  0.201287  1
  O  O44  1  0.251648  0.087342  0.243808  1
  O  O45  1  0.001473  0.500164  0.163565  1
  O  O46  1  0.153096  0.498982  0.256372  1
  O  O47  1  0.002111  0.498999  0.215739  1
  O  O48  1  0.000000  0.153975  0.215346  1
  O  O49  1  0.000000  0.653844  0.351058  1
  O  O50  1  0.000000  0.346070  0.163182  1
  O  O51  1  0.000000  0.845908  0.298753  1
  O  O52  1  0.953864  0.359469  0.121333  1
  O  O53  1  0.859582  0.859260  0.282545  1
  O  O54  1  0.858275  0.545394  0.282770  1
  O  O55  1  0.913094  0.249530  0.178252  1
  O  O56  1  0.748560  0.457181  0.291734  1
  O  O57  1  0.749465  0.959083  0.244282  1
  O  O58  1  0.958428  0.587272  0.301133  1
  O  O59  1  0.912119  0.458826  0.335922  1
  O  O60  1  0.750244  0.087337  0.222188  1
  O  O61  1  0.748063  0.585684  0.244683  1
  O  O62  1  0.959094  0.749228  0.301387  1
  O  O63  1  0.846031  0.000000  0.256984  1
  O  O64  1  0.000000  0.499876  0.298690  1
  O  O65  1  -0.000000  0.499940  0.350809  1
  O  O66  1  0.843983  0.497998  0.257580  1
  O  O67  1  0.356830  0.947315  0.232310  1
  O  O68  1  0.358347  0.640555  0.231112  1
  O  O69  1  0.642506  0.357262  0.310122  1
  O  O70  1  0.639306  0.046735  0.206406  1
  O  O71  1  0.453804  0.142132  0.392443  1
  O  O72  1  0.544623  0.859943  0.197613  1
  O  O73  1  0.458163  0.750315  0.212813  1
  O  O74  1  0.539346  0.087747  0.165575  1
  O  O75  1  0.410760  0.041708  0.178377  1
  O  O76  1  0.586837  0.749866  0.200431  1
  O  O77  1  0.542281  0.251594  0.347601  1
  O  O78  1  0.456771  0.914869  0.212548  1
  O  O79  1  0.585227  0.959596  0.200503  1
  O  O80  1  0.413591  0.252008  0.335394  1
  O  O81  1  0.347038  0.001258  0.255803  1
  O  O82  1  0.499331  0.654205  0.215176  1
  O  O83  1  0.496847  0.000000  0.215282  1
  O  O84  1  0.498311  -0.000000  0.163126  1
  O  O85  1  0.501406  0.156167  0.350470  1
  O  O86  1  0.499453  0.846197  0.163125  1
  O  O87  1  0.046309  0.640120  0.316508  1
  O  O88  1  0.139192  0.453252  0.307425  1
  O  O89  1  0.141520  0.140686  0.206009  1
  O  O90  1  0.086989  0.540912  0.313455  1
  O  O91  1  0.251259  0.914901  0.268351  1
  O  O92  1  0.248444  0.412785  0.291105  1
  O  O93  1  0.041591  0.250274  0.165477  1
  O  O94  1  0.087669  0.750144  0.313625  1
  O  O95  1  0.248209  0.540555  0.269122  1
  O  O96  1  0.252668  0.042228  0.220662  1
  O  O97  1  0.040580  0.412522  0.348539  1
  O  O98  1  0.155871  0.000000  0.256371  1
  O  O99  1  0.859093  0.452445  0.503447  1
  O  O100  1  0.859939  0.140043  0.503092  1
  O  O101  1  0.954857  0.640676  0.392911  1
  O  O102  1  0.747203  0.408658  0.541848  1
  O  O103  1  0.959474  0.250348  0.484358  1
  O  O104  1  0.913652  0.540661  0.450033  1
  O  O105  1  0.750214  0.912314  0.563267  1
  O  O106  1  0.749834  0.040543  0.541153  1
  O  O107  1  0.960236  0.412793  0.484752  1
  O  O108  1  0.913019  0.750140  0.607496  1
  O  O109  1  0.748239  0.538995  0.494104  1
  O  O110  1  0.547021  0.141636  0.587711  1
  O  O111  1  0.453286  0.860191  0.664091  1
  O  O112  1  0.640483  0.953665  0.579209  1
  O  O113  1  0.639141  0.639827  0.477855  1
  O  O114  1  0.359200  0.360525  0.553333  1
  O  O115  1  0.360589  0.047109  0.553529  1
  O  O116  1  0.587651  0.041579  0.585123  1
  O  O117  1  0.412058  0.750023  0.449466  1
  O  O118  1  0.540588  0.750603  0.436785  1
  O  O119  1  0.459288  0.088222  0.572523  1
  O  O120  1  0.412535  0.959899  0.607146  1
  O  O121  1  0.590656  0.252980  0.584142  1
  O  O122  1  0.460188  0.251836  0.572180  1
  O  O123  1  0.540913  0.913257  0.620069  1
  O  O124  1  0.499873  -0.000000  0.622289  1
  O  O125  1  0.652924  0.497199  0.528865  1
  O  O126  1  0.653854  0.000000  0.528489  1
  O  O127  1  0.500394  0.000000  0.570161  1
  O  O128  1  0.344162  0.500474  0.527639  1
  O  O129  1  0.502059  0.347205  0.569646  1
  O  O130  1  0.141445  0.859665  0.578737  1
  O  O131  1  0.142563  0.553155  0.475155  1
  O  O132  1  0.047110  0.359657  0.469258  1
  O  O133  1  0.251798  0.959518  0.562599  1
  O  O134  1  0.042370  0.585218  0.437788  1
  O  O135  1  0.088001  0.249918  0.471894  1
  O  O136  1  0.247383  0.458320  0.514823  1
  O  O137  1  0.248704  0.585449  0.493505  1
  O  O138  1  0.041674  0.750007  0.620015  1
  O  O139  1  0.090712  0.458016  0.472744  1
  O  O140  1  0.251648  0.087342  0.515265  1
  O  O141  1  0.001473  0.500164  0.435023  1
  O  O142  1  0.153096  0.498982  0.527829  1
  O  O143  1  0.002111  0.498999  0.487196  1
  O  O144  1  0.000000  0.153975  0.486803  1
  O  O145  1  0.000000  0.653844  0.622516  1
  O  O146  1  0.000000  0.346070  0.434640  1
  O  O147  1  0.000000  0.845908  0.570211  1
  O  O148  1  0.953864  0.359469  0.392790  1
  O  O149  1  0.859582  0.859260  0.554002  1
  O  O150  1  0.858275  0.545394  0.554228  1
  O  O151  1  0.913094  0.249530  0.449709  1
  O  O152  1  0.748560  0.457181  0.563191  1
  O  O153  1  0.749465  0.959083  0.515740  1
  O  O154  1  0.958428  0.587272  0.572590  1
  O  O155  1  0.912119  0.458826  0.607379  1
  O  O156  1  0.750244  0.087337  0.493645  1
  O  O157  1  0.748063  0.585684  0.516141  1
  O  O158  1  0.959094  0.749228  0.572845  1
  O  O159  1  0.846031  0.000000  0.528442  1
  O  O160  1  0.000000  0.499876  0.570148  1
  O  O161  1  -0.000000  0.499940  0.622266  1
  O  O162  1  0.843983  0.497998  0.529038  1
  O  O163  1  0.356830  0.947315  0.503768  1
  O  O164  1  0.358347  0.640555  0.502570  1
  O  O165  1  0.642506  0.357262  0.581579  1
  O  O166  1  0.639306  0.046735  0.477864  1
  O  O167  1  0.453804  0.142132  0.663901  1
  O  O168  1  0.544623  0.859943  0.469071  1
  O  O169  1  0.458163  0.750315  0.484271  1
  O  O170  1  0.539346  0.087747  0.437032  1
  O  O171  1  0.410760  0.041708  0.449835  1
  O  O172  1  0.586837  0.749866  0.471888  1
  O  O173  1  0.542281  0.251594  0.619059  1
  O  O174  1  0.456771  0.914869  0.484006  1
  O  O175  1  0.585227  0.959596  0.471960  1
  O  O176  1  0.413591  0.252008  0.606852  1
  O  O177  1  0.347038  0.001258  0.527260  1
  O  O178  1  0.499331  0.654205  0.486633  1
  O  O179  1  0.496847  0.000000  0.486740  1
  O  O180  1  0.498311  0.000000  0.434583  1
  O  O181  1  0.501406  0.156167  0.621928  1
  O  O182  1  0.499453  0.846197  0.434583  1
  O  O183  1  0.046309  0.640120  0.587966  1
  O  O184  1  0.139192  0.453252  0.578883  1
  O  O185  1  0.141520  0.140686  0.477466  1
  O  O186  1  0.086989  0.540912  0.584912  1
  O  O187  1  0.251259  0.914901  0.539809  1
  O  O188  1  0.248444  0.412785  0.562562  1
  O  O189  1  0.041591  0.250274  0.436934  1
  O  O190  1  0.087669  0.750144  0.585083  1
  O  O191  1  0.248209  0.540555  0.540580  1
  O  O192  1  0.252668  0.042228  0.492119  1
  O  O193  1  0.040580  0.412522  0.619996  1
  O  O194  1  0.155871  0.000000  0.527828  1
  O  O195  1  0.954857  0.640676  0.664369  1
  O  O196  1  0.953864  0.359469  0.664248  1
  Si  Si197  1  0.806146  0.074075  0.244287  1
  Si  Si198  1  0.692109  0.573535  0.229407  1
  Si  Si199  1  0.693962  0.972345  0.284658  1
  Si  Si200  1  0.973436  0.694053  0.360348  1
  Si  Si201  1  0.925615  0.472310  0.212355  1
  Si  Si202  1  0.803612  0.469750  0.245034  1
  Si  Si203  1  0.926114  0.193830  0.211945  1
  Si  Si204  1  0.973218  0.574653  0.153925  1
  Si  Si205  1  0.574690  0.973306  0.317054  1
  Si  Si206  1  0.527427  0.075173  0.319813  1
  Si  Si207  1  0.472250  0.806355  0.153711  1
  Si  Si208  1  0.573850  0.694221  0.196967  1
  Si  Si209  1  0.425881  0.028212  0.302030  1
  Si  Si210  1  0.472425  0.926413  0.360136  1
  Si  Si211  1  0.529533  0.196496  0.319272  1
  Si  Si212  1  0.425556  0.307959  0.301632  1
  Si  Si213  1  0.307797  0.027903  0.269305  1
  Si  Si214  1  0.194973  0.925490  0.284234  1
  Si  Si215  1  0.078910  0.525982  0.197999  1
  Si  Si216  1  0.027783  0.306275  0.194227  1
  Si  Si217  1  0.303821  0.426037  0.268711  1
  Si  Si218  1  0.191386  0.526150  0.228184  1
  Si  Si219  1  0.074893  0.806125  0.316927  1
  Si  Si220  1  0.029571  0.425654  0.194769  1
  Si  Si221  1  0.973151  0.305991  0.153836  1
  Si  Si222  1  0.691184  0.420506  0.285594  1
  Si  Si223  1  0.805907  0.925470  0.269674  1
  Si  Si224  1  0.924838  0.527052  0.302237  1
  Si  Si225  1  0.972425  0.425497  0.360209  1
  Si  Si226  1  0.693762  0.027384  0.229375  1
  Si  Si227  1  0.804828  0.526284  0.270080  1
  Si  Si228  1  0.925751  0.805694  0.302357  1
  Si  Si229  1  0.473122  0.195246  0.360071  1
  Si  Si230  1  0.424828  0.694159  0.211695  1
  Si  Si231  1  0.572894  0.027909  0.197189  1
  Si  Si232  1  0.471050  0.075830  0.153546  1
  Si  Si233  1  0.526502  0.806104  0.194222  1
  Si  Si234  1  0.578877  0.308960  0.315918  1
  Si  Si235  1  0.421095  0.973341  0.212304  1
  Si  Si236  1  0.525521  0.926026  0.194153  1
  Si  Si237  1  0.073727  0.472586  0.316893  1
  Si  Si238  1  0.026981  0.574311  0.319724  1
  Si  Si239  1  0.308664  0.974262  0.242293  1
  Si  Si240  1  0.192303  0.472155  0.284372  1
  Si  Si241  1  0.075269  0.194018  0.197075  1
  Si  Si242  1  0.027584  0.693606  0.320006  1
  Si  Si243  1  0.304974  0.574734  0.243719  1
  Si  Si244  1  0.196237  0.074418  0.228515  1
  Si  Si245  1  0.806146  0.074075  0.515744  1
  Si  Si246  1  0.692109  0.573535  0.500865  1
  Si  Si247  1  0.693962  0.972345  0.556116  1
  Si  Si248  1  0.973436  0.694053  0.631806  1
  Si  Si249  1  0.925615  0.472310  0.483813  1
  Si  Si250  1  0.803612  0.469750  0.516491  1
  Si  Si251  1  0.926114  0.193830  0.483403  1
  Si  Si252  1  0.973218  0.574653  0.425382  1
  Si  Si253  1  0.574690  0.973306  0.588511  1
  Si  Si254  1  0.527427  0.075173  0.591270  1
  Si  Si255  1  0.472250  0.806355  0.425169  1
  Si  Si256  1  0.573850  0.694221  0.468424  1
  Si  Si257  1  0.425881  0.028212  0.573487  1
  Si  Si258  1  0.472425  0.926413  0.631593  1
  Si  Si259  1  0.529533  0.196496  0.590730  1
  Si  Si260  1  0.425556  0.307959  0.573089  1
  Si  Si261  1  0.307797  0.027903  0.540762  1
  Si  Si262  1  0.194973  0.925490  0.555692  1
  Si  Si263  1  0.078910  0.525982  0.469457  1
  Si  Si264  1  0.027783  0.306275  0.465685  1
  Si  Si265  1  0.303821  0.426037  0.540169  1
  Si  Si266  1  0.191386  0.526150  0.499641  1
  Si  Si267  1  0.074893  0.806125  0.588384  1
  Si  Si268  1  0.029571  0.425654  0.466227  1
  Si  Si269  1  0.973151  0.305991  0.425294  1
  Si  Si270  1  0.691184  0.420506  0.557052  1
  Si  Si271  1  0.805907  0.925470  0.541132  1
  Si  Si272  1  0.924838  0.527052  0.573695  1
  Si  Si273  1  0.972425  0.425497  0.631666  1
  Si  Si274  1  0.693762  0.027384  0.500832  1
  Si  Si275  1  0.804828  0.526284  0.541537  1
  Si  Si276  1  0.925751  0.805694  0.573814  1
  Si  Si277  1  0.473122  0.195246  0.631529  1
  Si  Si278  1  0.424828  0.694159  0.483153  1
  Si  Si279  1  0.572894  0.027909  0.468647  1
  Si  Si280  1  0.471050  0.075830  0.425003  1
  Si  Si281  1  0.526502  0.806104  0.465679  1
  Si  Si282  1  0.578877  0.308960  0.587375  1
  Si  Si283  1  0.421095  0.973341  0.483762  1
  Si  Si284  1  0.525521  0.926026  0.465611  1
  Si  Si285  1  0.073727  0.472586  0.588351  1
  Si  Si286  1  0.026981  0.574311  0.591182  1
  Si  Si287  1  0.308664  0.974262  0.513751  1
  Si  Si288  1  0.192303  0.472155  0.555829  1
  Si  Si289  1  0.075269  0.194018  0.468532  1
  Si  Si290  1  0.027584  0.693606  0.591463  1
  Si  Si291  1  0.304974  0.574734  0.515176  1
  Si  Si292  1  0.196237  0.074418  0.499972  1
  H  H293  1  0.453286  0.860191  0.107514  1
  H  H294  1  0.453804  0.142132  0.107323  1
  H  H295  1  0.954857  0.640676  0.107791  1
  H  H296  1  0.953864  0.359469  0.107670  1
  H  H297  1  0.453286  0.860191  0.677754  1
  H  H298  1  0.453804  0.142132  0.677563  1
  H  H299  1  0.954857  0.640676  0.678032  1
  H  H300  1  0.953864  0.359469  0.677911  1
