# generated using pymatgen
data_Si6H2O13
_symmetry_space_group_name_H-M   'P 1'
_cell_length_a   14.85039366
_cell_length_b   21.00746127
_cell_length_c   44.93717149
_cell_angle_alpha   134.99733787
_cell_angle_beta   90.00000000
_cell_angle_gamma   90.00000000
_symmetry_Int_Tables_number   1
_chemical_formula_structural   Si6H2O13
_chemical_formula_sum   'Si48 H16 O104'
_cell_volume   9913.39590138
_cell_formula_units_Z   8
loop_
 _symmetry_equiv_pos_site_id
 _symmetry_equiv_pos_as_xyz
  1  'x, y, z'
loop_
 _atom_site_type_symbol
 _atom_site_label
 _atom_site_symmetry_multiplicity
 _atom_site_fract_x
 _atom_site_fract_y
 _atom_site_fract_z
 _atom_site_occupancy
  O  O1  1  0.876612  0.667538  0.288088  1
  O  O2  1  -0.000000  0.614777  0.305949  1
  O  O3  1  0.876601  0.667501  0.177377  1
  O  O4  1  0.832469  0.832598  0.246545  1
  O  O5  1  0.832452  0.623333  0.438752  1
  O  O6  1  0.832480  0.623349  0.328052  1
  O  O7  1  0.832493  0.832629  0.328053  1
  O  O8  1  0.885191  0.725762  0.251983  1
  O  O9  1  0.667375  0.876819  0.246562  1
  O  O10  1  0.885205  0.500094  0.251984  1
  O  O11  1  0.725644  0.885398  0.304748  1
  O  O12  1  0.774212  0.614769  0.380567  1
  O  O13  1  0.667384  0.667565  0.357268  1
  O  O14  1  -0.000000  0.774311  0.230114  1
  O  O15  1  0.667360  0.667535  0.438755  1
  O  O16  1  0.667404  0.876836  0.357272  1
  O  O17  1  0.725595  0.500074  0.380565  1
  O  O18  1  0.885192  0.500064  0.433322  1
  O  O19  1  0.725610  0.500099  0.304745  1
  O  O20  1  -0.000000  0.614760  0.455180  1
  O  O21  1  -0.000000  0.774332  0.305947  1
  O  O22  1  0.499918  0.725843  0.455191  1
  O  O23  1  0.376599  0.832649  0.177383  1
  O  O24  1  0.623246  0.832628  0.177384  1
  O  O25  1  0.623259  0.832664  0.397243  1
  O  O26  1  0.376615  0.832670  0.397239  1
  O  O27  1  0.499942  0.885416  0.379370  1
  O  O28  1  0.499917  0.885397  0.230127  1
  O  O29  1  0.499934  0.725864  0.379372  1
  O  O30  1  0.614667  0.774405  0.433334  1
  O  O31  1  0.385189  0.774416  0.433332  1
  O  O32  1  0.123260  0.667536  0.288081  1
  O  O33  1  0.123244  0.667514  0.177375  1
  O  O34  1  0.167365  0.832614  0.246548  1
  O  O35  1  0.167376  0.623340  0.438747  1
  O  O36  1  0.167397  0.623355  0.328048  1
  O  O37  1  0.167388  0.832628  0.328050  1
  O  O38  1  0.114669  0.725768  0.251980  1
  O  O39  1  0.274215  0.885404  0.304744  1
  O  O40  1  0.332484  0.876843  0.357267  1
  O  O41  1  0.225642  0.614779  0.380565  1
  O  O42  1  0.114661  0.500075  0.433322  1
  O  O43  1  0.332485  0.667574  0.357267  1
  O  O44  1  0.332455  0.876826  0.246556  1
  O  O45  1  0.332468  0.667559  0.438761  1
  O  O46  1  0.274270  0.500108  0.304746  1
  O  O47  1  0.114674  0.500094  0.251981  1
  O  O48  1  0.274257  0.500093  0.380569  1
  O  O49  1  0.832472  0.376818  0.357257  1
  O  O50  1  0.832489  0.167529  0.357251  1
  O  O51  1  0.832483  0.376838  0.246561  1
  O  O52  1  0.832496  0.167554  0.438755  1
  O  O53  1  0.876617  0.332653  0.177383  1
  O  O54  1  0.876606  0.332622  0.397218  1
  O  O55  1  0.667382  0.332607  0.328040  1
  O  O56  1  -0.000000  0.385404  0.230125  1
  O  O57  1  -0.000000  0.225836  0.379359  1
  O  O58  1  0.774256  0.000000  0.304733  1
  O  O59  1  0.774222  0.385407  0.304745  1
  O  O60  1  0.725653  0.114760  0.380555  1
  O  O61  1  0.885195  0.274399  0.433324  1
  O  O62  1  0.774270  0.000000  0.380568  1
  O  O63  1  0.667403  0.123350  0.438746  1
  O  O64  1  0.667392  0.123331  0.328036  1
  O  O65  1  0.667389  0.332637  0.246553  1
  O  O66  1  -0.000000  0.385386  0.379354  1
  O  O67  1  -0.000000  0.225855  0.455191  1
  O  O68  1  0.376607  0.167529  0.288071  1
  O  O69  1  0.623253  0.167510  0.288067  1
  O  O70  1  0.376615  0.167556  0.177378  1
  O  O71  1  0.623268  0.167547  0.177378  1
  O  O72  1  0.614658  0.000000  0.251976  1
  O  O73  1  0.385199  0.225780  0.251976  1
  O  O74  1  0.614678  0.225767  0.251974  1
  O  O75  1  0.385190  0.000000  0.251977  1
  O  O76  1  0.499944  0.274342  0.230117  1
  O  O77  1  0.499927  0.114771  0.305940  1
  O  O78  1  0.499943  0.114789  0.455181  1
  O  O79  1  0.499937  0.274319  0.305935  1
  O  O80  1  0.614675  0.000000  0.433334  1
  O  O81  1  0.385206  0.000000  0.433331  1
  O  O82  1  0.167397  0.376827  0.357258  1
  O  O83  1  0.167373  0.167541  0.357253  1
  O  O84  1  0.167408  0.376841  0.246559  1
  O  O85  1  0.167386  0.167556  0.438754  1
  O  O86  1  0.123265  0.332653  0.177381  1
  O  O87  1  0.123256  0.332633  0.397220  1
  O  O88  1  0.332482  0.123354  0.438743  1
  O  O89  1  0.332494  0.332629  0.328045  1
  O  O90  1  0.225656  0.385418  0.304746  1
  O  O91  1  0.274218  0.114765  0.380554  1
  O  O92  1  0.114674  0.274405  0.433324  1
  O  O93  1  0.225610  0.000000  0.380566  1
  O  O94  1  0.332502  0.332649  0.246556  1
  O  O95  1  0.225593  0.000000  0.304734  1
  O  O96  1  0.332463  0.123342  0.328037  1
  O  O97  1  0.876601  0.667501  0.507923  1
  O  O98  1  0.376599  0.832649  0.507930  1
  O  O99  1  0.623246  0.832628  0.507930  1
  O  O100  1  0.123244  0.667514  0.507922  1
  O  O101  1  0.876617  0.332653  0.507930  1
  O  O102  1  0.376615  0.167556  0.507925  1
  O  O103  1  0.623268  0.167547  0.507924  1
  O  O104  1  0.123265  0.332653  0.507928  1
  Si  Si105  1  0.896594  0.750060  0.294164  1
  Si  Si106  1  0.749917  0.603403  0.342659  1
  Si  Si107  1  0.896577  0.750037  0.225855  1
  Si  Si108  1  0.749902  0.603381  0.410953  1
  Si  Si109  1  0.896593  0.603397  0.294164  1
  Si  Si110  1  0.749955  0.896784  0.342662  1
  Si  Si111  1  0.896576  0.603373  0.459444  1
  Si  Si112  1  0.749939  0.896764  0.274354  1
  Si  Si113  1  0.396590  0.750139  0.391157  1
  Si  Si114  1  0.603279  0.750130  0.391158  1
  Si  Si115  1  0.396576  0.896784  0.225863  1
  Si  Si116  1  0.603263  0.896771  0.225864  1
  Si  Si117  1  0.396597  0.896802  0.391157  1
  Si  Si118  1  0.603285  0.896796  0.391160  1
  Si  Si119  1  0.396576  0.750121  0.459452  1
  Si  Si120  1  0.603264  0.750107  0.459452  1
  Si  Si121  1  0.249901  0.896774  0.274352  1
  Si  Si122  1  0.103263  0.603381  0.459442  1
  Si  Si123  1  0.103280  0.603398  0.294160  1
  Si  Si124  1  0.249923  0.896786  0.342658  1
  Si  Si125  1  0.103282  0.750063  0.294161  1
  Si  Si126  1  0.249953  0.603411  0.342657  1
  Si  Si127  1  0.103265  0.750045  0.225854  1
  Si  Si128  1  0.249936  0.603397  0.410954  1
  Si  Si129  1  0.896596  0.250123  0.459451  1
  Si  Si130  1  0.749925  0.396793  0.274358  1
  Si  Si131  1  0.749913  0.396772  0.342653  1
  Si  Si132  1  0.896589  0.396763  0.391142  1
  Si  Si133  1  0.749949  0.103374  0.342641  1
  Si  Si134  1  0.896599  0.396787  0.225863  1
  Si  Si135  1  0.749961  0.103394  0.410949  1
  Si  Si136  1  0.896587  0.250100  0.391142  1
  Si  Si137  1  0.603279  0.250041  0.294149  1
  Si  Si138  1  0.396598  0.103412  0.459444  1
  Si  Si139  1  0.603272  0.103381  0.294151  1
  Si  Si140  1  0.396584  0.103394  0.294152  1
  Si  Si141  1  0.603286  0.250068  0.225856  1
  Si  Si142  1  0.396599  0.250075  0.225856  1
  Si  Si143  1  0.603285  0.103406  0.459445  1
  Si  Si144  1  0.396591  0.250058  0.294152  1
  Si  Si145  1  0.249962  0.396801  0.274359  1
  Si  Si146  1  0.103277  0.396771  0.391142  1
  Si  Si147  1  0.249910  0.103383  0.342642  1
  Si  Si148  1  0.103287  0.396788  0.225861  1
  Si  Si149  1  0.249921  0.103396  0.410948  1
  Si  Si150  1  0.103275  0.250110  0.391144  1
  Si  Si151  1  0.249956  0.396787  0.342656  1
  Si  Si152  1  0.103284  0.250124  0.459450  1
  H  H153  1  0.876601  0.667501  0.157349  1
  H  H154  1  0.376599  0.832649  0.157355  1
  H  H155  1  0.623246  0.832628  0.157356  1
  H  H156  1  0.123244  0.667514  0.157347  1
  H  H157  1  0.876617  0.332653  0.157355  1
  H  H158  1  0.376615  0.167556  0.157350  1
  H  H159  1  0.623268  0.167547  0.157350  1
  H  H160  1  0.123265  0.332653  0.157354  1
  H  H161  1  0.876601  0.667501  0.527951  1
  H  H162  1  0.376599  0.832649  0.527958  1
  H  H163  1  0.623246  0.832628  0.527958  1
  H  H164  1  0.123244  0.667514  0.527950  1
  H  H165  1  0.876617  0.332653  0.527958  1
  H  H166  1  0.376615  0.167556  0.527953  1
  H  H167  1  0.623268  0.167547  0.527952  1
  H  H168  1  0.123265  0.332653  0.527956  1
