# generated using pymatgen
data_Si48H2O97
_symmetry_space_group_name_H-M   'P 1'
_cell_length_a   7.67612438
_cell_length_b   7.67900504
_cell_length_c   103.71726376
_cell_angle_alpha   90.00000000
_cell_angle_beta   90.00000000
_cell_angle_gamma   90.00000000
_symmetry_Int_Tables_number   1
_chemical_formula_structural   Si48H2O97
_chemical_formula_sum   'Si96 H4 O194'
_cell_volume   6113.61388456
_cell_formula_units_Z   2
loop_
 _symmetry_equiv_pos_site_id
 _symmetry_equiv_pos_as_xyz
  1  'x, y, z'
loop_
 _atom_site_type_symbol
 _atom_site_label
 _atom_site_symmetry_multiplicity
 _atom_site_fract_x
 _atom_site_fract_y
 _atom_site_fract_z
 _atom_site_occupancy
  O  O1  1  0.169268  0.010207  0.078495  1
  O  O2  1  0.670049  0.515009  0.209994  1
  O  O3  1  0.736152  0.419197  0.275812  1
  O  O4  1  0.238157  0.919793  0.144241  1
  O  O5  1  0.330247  0.985212  0.209940  1
  O  O6  1  0.830181  0.487775  0.078452  1
  O  O7  1  0.761685  0.580432  0.144261  1
  O  O8  1  0.264800  0.079677  0.275825  1
  O  O9  1  0.830212  0.011085  0.078473  1
  O  O10  1  0.330313  0.515011  0.209970  1
  O  O11  1  0.264791  0.419205  0.275780  1
  O  O12  1  0.761929  0.919748  0.144226  1
  O  O13  1  0.670085  0.985157  0.209958  1
  O  O14  1  0.169226  0.488591  0.078475  1
  O  O15  1  0.238369  0.580477  0.144283  1
  O  O16  1  0.736201  0.079644  0.275861  1
  O  O17  1  0.830586  0.984919  0.298503  1
  O  O18  1  0.330290  0.488139  0.166796  1
  O  O19  1  0.264793  0.579605  0.101051  1
  O  O20  1  0.761112  0.080793  0.232532  1
  O  O21  1  0.669630  0.011690  0.166741  1
  O  O22  1  0.170087  0.513604  0.298422  1
  O  O23  1  0.238698  0.419875  0.232550  1
  O  O24  1  0.735030  0.919442  0.101050  1
  O  O25  1  0.170101  0.984950  0.298454  1
  O  O26  1  0.669591  0.488253  0.166769  1
  O  O27  1  0.734974  0.579697  0.101031  1
  O  O28  1  0.239477  0.080799  0.232514  1
  O  O29  1  0.330335  0.011833  0.166760  1
  O  O30  1  0.830553  0.513582  0.298469  1
  O  O31  1  0.761954  0.419854  0.232574  1
  O  O32  1  0.264797  0.919465  0.101070  1
  O  O33  1  0.000000  0.026598  0.159108  1
  O  O34  1  0.500348  0.526508  0.290821  1
  O  O35  1  0.723228  0.249566  0.093323  1
  O  O36  1  0.222617  0.750335  0.224992  1
  O  O37  1  0.500363  0.972101  0.290856  1
  O  O38  1  0.000000  0.473586  0.159128  1
  O  O39  1  0.777849  0.750325  0.225010  1
  O  O40  1  0.275964  0.249537  0.093304  1
  O  O41  1  -0.000000  0.974169  0.217701  1
  O  O42  1  0.499704  0.472009  0.086002  1
  O  O43  1  0.277794  0.749412  0.283429  1
  O  O44  1  0.776609  0.250103  0.151899  1
  O  O45  1  0.499733  0.026979  0.086019  1
  O  O46  1  0.000000  0.526650  0.217695  1
  O  O47  1  0.223343  0.250143  0.151912  1
  O  O48  1  0.723122  0.749393  0.283465  1
  O  O49  1  0.998798  0.749418  0.071808  1
  O  O50  1  0.500260  0.250123  0.204529  1
  O  O51  1  -0.000000  0.249382  0.270242  1
  O  O52  1  0.499973  0.750238  0.137688  1
  O  O53  1  0.000000  0.249369  0.304033  1
  O  O54  1  0.499894  0.750069  0.173329  1
  O  O55  1  0.000000  0.749476  0.106493  1
  O  O56  1  0.500301  0.251156  0.239211  1
  O  O57  1  0.001185  0.491977  0.056885  1
  O  O58  1  0.500354  0.008182  0.188276  1
  O  O59  1  0.242643  0.248645  0.254104  1
  O  O60  1  0.757737  0.749412  0.122716  1
  O  O61  1  0.500447  0.492354  0.188309  1
  O  O62  1  0.001226  0.007106  0.056913  1
  O  O63  1  0.241942  0.749365  0.122735  1
  O  O64  1  0.757717  0.248528  0.254133  1
  O  O65  1  0.169268  0.010207  0.341757  1
  O  O66  1  0.670049  0.515009  0.473255  1
  O  O67  1  0.736152  0.419197  0.539073  1
  O  O68  1  0.238157  0.919793  0.407503  1
  O  O69  1  0.330247  0.985212  0.473201  1
  O  O70  1  0.830181  0.487775  0.341714  1
  O  O71  1  0.761685  0.580432  0.407523  1
  O  O72  1  0.264800  0.079677  0.539087  1
  O  O73  1  0.830212  0.011085  0.341734  1
  O  O74  1  0.330313  0.515011  0.473232  1
  O  O75  1  0.264791  0.419205  0.539042  1
  O  O76  1  0.761929  0.919748  0.407488  1
  O  O77  1  0.670085  0.985157  0.473220  1
  O  O78  1  0.169226  0.488591  0.341737  1
  O  O79  1  0.238369  0.580477  0.407545  1
  O  O80  1  0.736201  0.079644  0.539122  1
  O  O81  1  0.830586  0.984919  0.561765  1
  O  O82  1  0.330290  0.488139  0.430058  1
  O  O83  1  0.264793  0.579605  0.364313  1
  O  O84  1  0.761112  0.080793  0.495794  1
  O  O85  1  0.669630  0.011690  0.430003  1
  O  O86  1  0.170087  0.513604  0.561684  1
  O  O87  1  0.238698  0.419875  0.495811  1
  O  O88  1  0.735030  0.919442  0.364312  1
  O  O89  1  0.170101  0.984950  0.561716  1
  O  O90  1  0.669591  0.488253  0.430031  1
  O  O91  1  0.734974  0.579697  0.364293  1
  O  O92  1  0.239477  0.080799  0.495776  1
  O  O93  1  0.330335  0.011833  0.430022  1
  O  O94  1  0.830553  0.513582  0.561731  1
  O  O95  1  0.761954  0.419854  0.495836  1
  O  O96  1  0.264797  0.919465  0.364332  1
  O  O97  1  0.000000  0.026598  0.422370  1
  O  O98  1  0.500348  0.526508  0.554083  1
  O  O99  1  0.723228  0.249566  0.356585  1
  O  O100  1  0.222617  0.750335  0.488254  1
  O  O101  1  0.500363  0.972101  0.554118  1
  O  O102  1  0.000000  0.473586  0.422390  1
  O  O103  1  0.777849  0.750325  0.488272  1
  O  O104  1  0.275964  0.249537  0.356566  1
  O  O105  1  0.000000  0.974169  0.480963  1
  O  O106  1  0.499704  0.472009  0.349264  1
  O  O107  1  0.277794  0.749412  0.546691  1
  O  O108  1  0.776609  0.250103  0.415161  1
  O  O109  1  0.499733  0.026979  0.349281  1
  O  O110  1  0.000000  0.526650  0.480957  1
  O  O111  1  0.223343  0.250143  0.415173  1
  O  O112  1  0.723122  0.749393  0.546727  1
  O  O113  1  0.998798  0.749418  0.335070  1
  O  O114  1  0.500260  0.250123  0.467791  1
  O  O115  1  0.000000  0.249382  0.533504  1
  O  O116  1  0.499973  0.750238  0.400949  1
  O  O117  1  0.000000  0.249369  0.567295  1
  O  O118  1  0.499894  0.750069  0.436591  1
  O  O119  1  0.000000  0.749476  0.369754  1
  O  O120  1  0.500301  0.251156  0.502472  1
  O  O121  1  0.001185  0.491977  0.320147  1
  O  O122  1  0.500354  0.008182  0.451538  1
  O  O123  1  0.242643  0.248645  0.517366  1
  O  O124  1  0.757737  0.749412  0.385977  1
  O  O125  1  0.500447  0.492354  0.451571  1
  O  O126  1  0.001226  0.007106  0.320175  1
  O  O127  1  0.241942  0.749365  0.385997  1
  O  O128  1  0.757717  0.248528  0.517395  1
  O  O129  1  0.169268  0.010207  0.605019  1
  O  O130  1  0.670049  0.515009  0.736517  1
  O  O131  1  0.736152  0.419197  0.802335  1
  O  O132  1  0.238157  0.919793  0.670765  1
  O  O133  1  0.330247  0.985212  0.736463  1
  O  O134  1  0.830181  0.487775  0.604976  1
  O  O135  1  0.761685  0.580432  0.670785  1
  O  O136  1  0.264800  0.079677  0.802349  1
  O  O137  1  0.830212  0.011085  0.604996  1
  O  O138  1  0.330313  0.515011  0.736494  1
  O  O139  1  0.264791  0.419205  0.802304  1
  O  O140  1  0.761929  0.919748  0.670750  1
  O  O141  1  0.670085  0.985157  0.736481  1
  O  O142  1  0.169226  0.488591  0.604998  1
  O  O143  1  0.238369  0.580477  0.670807  1
  O  O144  1  0.736201  0.079644  0.802384  1
  O  O145  1  0.830586  0.984919  0.825027  1
  O  O146  1  0.330290  0.488139  0.693320  1
  O  O147  1  0.264793  0.579605  0.627575  1
  O  O148  1  0.761112  0.080793  0.759056  1
  O  O149  1  0.669630  0.011690  0.693265  1
  O  O150  1  0.170087  0.513604  0.824946  1
  O  O151  1  0.238698  0.419875  0.759073  1
  O  O152  1  0.735030  0.919442  0.627573  1
  O  O153  1  0.170101  0.984950  0.824978  1
  O  O154  1  0.669591  0.488253  0.693293  1
  O  O155  1  0.734974  0.579697  0.627555  1
  O  O156  1  0.239477  0.080799  0.759037  1
  O  O157  1  0.330335  0.011833  0.693284  1
  O  O158  1  0.830553  0.513582  0.824993  1
  O  O159  1  0.761954  0.419854  0.759098  1
  O  O160  1  0.264797  0.919465  0.627594  1
  O  O161  1  0.000000  0.026598  0.685632  1
  O  O162  1  0.500348  0.526508  0.817345  1
  O  O163  1  0.723228  0.249566  0.619847  1
  O  O164  1  0.222617  0.750335  0.751516  1
  O  O165  1  0.500363  0.972101  0.817379  1
  O  O166  1  0.000000  0.473586  0.685652  1
  O  O167  1  0.777849  0.750325  0.751534  1
  O  O168  1  0.275964  0.249537  0.619827  1
  O  O169  1  -0.000000  0.974169  0.744224  1
  O  O170  1  0.499704  0.472009  0.612526  1
  O  O171  1  0.277794  0.749412  0.809953  1
  O  O172  1  0.776609  0.250103  0.678423  1
  O  O173  1  0.499733  0.026979  0.612543  1
  O  O174  1  0.000000  0.526650  0.744219  1
  O  O175  1  0.223343  0.250143  0.678435  1
  O  O176  1  0.723122  0.749393  0.809989  1
  O  O177  1  0.998798  0.749418  0.598332  1
  O  O178  1  0.500260  0.250123  0.731053  1
  O  O179  1  0.000000  0.249382  0.796765  1
  O  O180  1  0.499973  0.750238  0.664211  1
  O  O181  1  0.000000  0.249369  0.830557  1
  O  O182  1  0.499894  0.750069  0.699852  1
  O  O183  1  0.000000  0.749476  0.633016  1
  O  O184  1  0.500301  0.251156  0.765734  1
  O  O185  1  0.001185  0.491977  0.583409  1
  O  O186  1  0.500354  0.008182  0.714800  1
  O  O187  1  0.242643  0.248645  0.780628  1
  O  O188  1  0.757737  0.749412  0.649239  1
  O  O189  1  0.500447  0.492354  0.714833  1
  O  O190  1  0.001226  0.007106  0.583437  1
  O  O191  1  0.241942  0.749365  0.649259  1
  O  O192  1  0.757717  0.248528  0.780656  1
  O  O193  1  0.001185  0.491977  0.846671  1
  O  O194  1  0.001226  0.007106  0.846699  1
  Si  Si195  1  0.000000  0.548365  0.071286  1
  Si  Si196  1  0.500248  0.049565  0.202975  1
  Si  Si197  1  0.200859  0.249254  0.268791  1
  Si  Si198  1  0.701068  0.749980  0.137105  1
  Si  Si199  1  0.500274  0.450713  0.203002  1
  Si  Si200  1  0.000000  0.950484  0.071307  1
  Si  Si201  1  0.298873  0.749990  0.137119  1
  Si  Si202  1  0.799859  0.249226  0.268815  1
  Si  Si203  1  0.000000  0.449926  0.305464  1
  Si  Si204  1  0.500041  0.951218  0.173892  1
  Si  Si205  1  0.799365  0.749489  0.108022  1
  Si  Si206  1  0.299284  0.250263  0.239711  1
  Si  Si207  1  0.500037  0.548929  0.173917  1
  Si  Si208  1  0.000000  0.048838  0.305488  1
  Si  Si209  1  0.701309  0.250237  0.239733  1
  Si  Si210  1  0.200424  0.749463  0.108039  1
  Si  Si211  1  0.699441  0.948424  0.287176  1
  Si  Si212  1  0.199210  0.449382  0.155534  1
  Si  Si213  1  0.801001  0.949450  0.221308  1
  Si  Si214  1  0.300610  0.448761  0.089697  1
  Si  Si215  1  0.800765  0.050773  0.155493  1
  Si  Si216  1  0.301373  0.550285  0.287112  1
  Si  Si217  1  0.698833  0.050345  0.089707  1
  Si  Si218  1  0.199349  0.551161  0.221309  1
  Si  Si219  1  0.301396  0.948438  0.287142  1
  Si  Si220  1  0.800724  0.449360  0.155516  1
  Si  Si221  1  0.199386  0.949460  0.221293  1
  Si  Si222  1  0.698811  0.448735  0.089692  1
  Si  Si223  1  0.199220  0.050812  0.155506  1
  Si  Si224  1  0.699430  0.550258  0.287143  1
  Si  Si225  1  0.300643  0.050265  0.089712  1
  Si  Si226  1  0.801067  0.551141  0.221328  1
  Si  Si227  1  0.000000  0.548365  0.334548  1
  Si  Si228  1  0.500248  0.049565  0.466237  1
  Si  Si229  1  0.200859  0.249254  0.532053  1
  Si  Si230  1  0.701068  0.749980  0.400367  1
  Si  Si231  1  0.500274  0.450713  0.466264  1
  Si  Si232  1  -0.000000  0.950484  0.334569  1
  Si  Si233  1  0.298873  0.749990  0.400381  1
  Si  Si234  1  0.799859  0.249226  0.532076  1
  Si  Si235  1  0.000000  0.449926  0.568726  1
  Si  Si236  1  0.500041  0.951218  0.437154  1
  Si  Si237  1  0.799365  0.749489  0.371284  1
  Si  Si238  1  0.299284  0.250263  0.502973  1
  Si  Si239  1  0.500037  0.548929  0.437179  1
  Si  Si240  1  0.000000  0.048838  0.568749  1
  Si  Si241  1  0.701309  0.250237  0.502995  1
  Si  Si242  1  0.200424  0.749463  0.371301  1
  Si  Si243  1  0.699441  0.948424  0.550438  1
  Si  Si244  1  0.199210  0.449382  0.418796  1
  Si  Si245  1  0.801001  0.949450  0.484570  1
  Si  Si246  1  0.300610  0.448761  0.352958  1
  Si  Si247  1  0.800765  0.050773  0.418754  1
  Si  Si248  1  0.301373  0.550285  0.550374  1
  Si  Si249  1  0.698833  0.050345  0.352969  1
  Si  Si250  1  0.199349  0.551161  0.484570  1
  Si  Si251  1  0.301396  0.948438  0.550404  1
  Si  Si252  1  0.800724  0.449360  0.418778  1
  Si  Si253  1  0.199386  0.949460  0.484555  1
  Si  Si254  1  0.698811  0.448735  0.352954  1
  Si  Si255  1  0.199220  0.050812  0.418768  1
  Si  Si256  1  0.699430  0.550258  0.550405  1
  Si  Si257  1  0.300643  0.050265  0.352974  1
  Si  Si258  1  0.801067  0.551141  0.484590  1
  Si  Si259  1  0.000000  0.548365  0.597810  1
  Si  Si260  1  0.500248  0.049565  0.729498  1
  Si  Si261  1  0.200859  0.249254  0.795314  1
  Si  Si262  1  0.701068  0.749980  0.663629  1
  Si  Si263  1  0.500274  0.450713  0.729526  1
  Si  Si264  1  0.000000  0.950484  0.597831  1
  Si  Si265  1  0.298873  0.749990  0.663643  1
  Si  Si266  1  0.799859  0.249226  0.795338  1
  Si  Si267  1  -0.000000  0.449926  0.831988  1
  Si  Si268  1  0.500041  0.951218  0.700416  1
  Si  Si269  1  0.799365  0.749489  0.634546  1
  Si  Si270  1  0.299284  0.250263  0.766234  1
  Si  Si271  1  0.500037  0.548929  0.700441  1
  Si  Si272  1  0.000000  0.048838  0.832011  1
  Si  Si273  1  0.701309  0.250237  0.766257  1
  Si  Si274  1  0.200424  0.749463  0.634562  1
  Si  Si275  1  0.699441  0.948424  0.813700  1
  Si  Si276  1  0.199210  0.449382  0.682058  1
  Si  Si277  1  0.801001  0.949450  0.747832  1
  Si  Si278  1  0.300610  0.448761  0.616220  1
  Si  Si279  1  0.800765  0.050773  0.682016  1
  Si  Si280  1  0.301373  0.550285  0.813636  1
  Si  Si281  1  0.698833  0.050345  0.616231  1
  Si  Si282  1  0.199349  0.551161  0.747832  1
  Si  Si283  1  0.301396  0.948438  0.813666  1
  Si  Si284  1  0.800724  0.449360  0.682040  1
  Si  Si285  1  0.199386  0.949460  0.747817  1
  Si  Si286  1  0.698811  0.448735  0.616215  1
  Si  Si287  1  0.199220  0.050812  0.682030  1
  Si  Si288  1  0.699430  0.550258  0.813667  1
  Si  Si289  1  0.300643  0.050265  0.616236  1
  Si  Si290  1  0.801067  0.551141  0.747851  1
  H  H291  1  0.001185  0.491977  0.048208  1
  H  H292  1  0.001226  0.007106  0.048236  1
  H  H293  1  0.001185  0.491977  0.855348  1
  H  H294  1  0.001226  0.007106  0.855376  1
