# generated using pymatgen
data_Si12H2O25
_symmetry_space_group_name_H-M   'P 1'
_cell_length_a   17.86974808
_cell_length_b   25.29356968
_cell_length_c   47.99063693
_cell_angle_alpha   45.01208225
_cell_angle_beta   90.00000000
_cell_angle_gamma   90.00000000
_symmetry_Int_Tables_number   1
_chemical_formula_structural   Si12H2O25
_chemical_formula_sum   'Si48 H8 O100'
_cell_volume   15341.2813391
_cell_formula_units_Z   4
loop_
 _symmetry_equiv_pos_site_id
 _symmetry_equiv_pos_as_xyz
  1  'x, y, z'
loop_
 _atom_site_type_symbol
 _atom_site_label
 _atom_site_symmetry_multiplicity
 _atom_site_fract_x
 _atom_site_fract_y
 _atom_site_fract_z
 _atom_site_occupancy
  O  O1  1  0.453286  0.860191  0.166327  1
  O  O2  1  0.453804  0.142132  0.166065  1
  O  O3  1  0.859093  0.452445  0.318430  1
  O  O4  1  0.859939  0.140043  0.317942  1
  O  O5  1  0.954857  0.640676  0.166708  1
  O  O6  1  0.747203  0.408658  0.371139  1
  O  O7  1  0.959474  0.250348  0.292228  1
  O  O8  1  0.913652  0.540661  0.245113  1
  O  O9  1  0.750214  0.912314  0.400539  1
  O  O10  1  0.749834  0.040543  0.370185  1
  O  O11  1  0.960236  0.412793  0.292769  1
  O  O12  1  0.913019  0.750140  0.461247  1
  O  O13  1  0.748239  0.538995  0.305606  1
  O  O14  1  0.547021  0.141636  0.434090  1
  O  O15  1  0.453286  0.860191  0.538931  1
  O  O16  1  0.640483  0.953665  0.422421  1
  O  O17  1  0.639141  0.639827  0.283302  1
  O  O18  1  0.359200  0.360525  0.386904  1
  O  O19  1  0.360589  0.047109  0.387173  1
  O  O20  1  0.587651  0.041579  0.430539  1
  O  O21  1  0.412058  0.750023  0.244335  1
  O  O22  1  0.540588  0.750603  0.226929  1
  O  O23  1  0.459288  0.088222  0.413243  1
  O  O24  1  0.412535  0.959899  0.460767  1
  O  O25  1  0.590656  0.252980  0.429191  1
  O  O26  1  0.460188  0.251836  0.412772  1
  O  O27  1  0.540913  0.913257  0.478505  1
  O  O28  1  0.499873  -0.000000  0.481552  1
  O  O29  1  0.652924  0.497199  0.353318  1
  O  O30  1  0.653854  -0.000000  0.352803  1
  O  O31  1  0.500394  0.000000  0.410001  1
  O  O32  1  0.344162  0.500474  0.351635  1
  O  O33  1  0.502059  0.347205  0.409294  1
  O  O34  1  0.141445  0.859665  0.421773  1
  O  O35  1  0.142563  0.553155  0.279596  1
  O  O36  1  0.047110  0.359657  0.271502  1
  O  O37  1  0.251798  0.959518  0.399622  1
  O  O38  1  0.042370  0.585218  0.228306  1
  O  O39  1  0.088001  0.249918  0.275120  1
  O  O40  1  0.247383  0.458320  0.334044  1
  O  O41  1  0.248704  0.585449  0.304784  1
  O  O42  1  0.041674  0.750007  0.478431  1
  O  O43  1  0.090712  0.458016  0.276287  1
  O  O44  1  0.251648  0.087342  0.334651  1
  O  O45  1  0.001473  0.500164  0.224510  1
  O  O46  1  0.153096  0.498982  0.351897  1
  O  O47  1  0.002111  0.498999  0.296124  1
  O  O48  1  -0.000000  0.153975  0.295584  1
  O  O49  1  0.000000  0.653844  0.481864  1
  O  O50  1  -0.000000  0.346070  0.223984  1
  O  O51  1  -0.000000  0.845908  0.410070  1
  O  O52  1  0.953864  0.359469  0.166542  1
  O  O53  1  0.859582  0.859260  0.387822  1
  O  O54  1  0.858275  0.545394  0.388132  1
  O  O55  1  0.913094  0.249530  0.244669  1
  O  O56  1  0.748560  0.457181  0.400435  1
  O  O57  1  0.749465  0.959083  0.335303  1
  O  O58  1  0.958428  0.587272  0.413336  1
  O  O59  1  0.912119  0.458826  0.461088  1
  O  O60  1  0.750244  0.087337  0.304976  1
  O  O61  1  0.748063  0.585684  0.335853  1
  O  O62  1  0.959094  0.749228  0.413685  1
  O  O63  1  0.846031  -0.000000  0.352737  1
  O  O64  1  -0.000000  0.499876  0.409983  1
  O  O65  1  -0.000000  0.499940  0.481521  1
  O  O66  1  0.843983  0.497998  0.353555  1
  O  O67  1  0.356830  0.947315  0.318870  1
  O  O68  1  0.358347  0.640555  0.317225  1
  O  O69  1  0.642506  0.357262  0.425674  1
  O  O70  1  0.639306  0.046735  0.283314  1
  O  O71  1  0.453804  0.142132  0.538669  1
  O  O72  1  0.544623  0.859943  0.271245  1
  O  O73  1  0.458163  0.750315  0.292108  1
  O  O74  1  0.539346  0.087747  0.227268  1
  O  O75  1  0.410760  0.041708  0.244841  1
  O  O76  1  0.586837  0.749866  0.275112  1
  O  O77  1  0.542281  0.251594  0.477118  1
  O  O78  1  0.456771  0.914869  0.291745  1
  O  O79  1  0.585227  0.959596  0.275211  1
  O  O80  1  0.413591  0.252008  0.460363  1
  O  O81  1  0.347038  0.001258  0.351116  1
  O  O82  1  0.499331  0.654205  0.295351  1
  O  O83  1  0.496847  -0.000000  0.295497  1
  O  O84  1  0.498311  -0.000000  0.223907  1
  O  O85  1  0.501406  0.156167  0.481057  1
  O  O86  1  0.499453  0.846197  0.223906  1
  O  O87  1  0.046309  0.640120  0.434440  1
  O  O88  1  0.139192  0.453252  0.421973  1
  O  O89  1  0.141520  0.140686  0.282768  1
  O  O90  1  0.086989  0.540912  0.430249  1
  O  O91  1  0.251259  0.914901  0.368340  1
  O  O92  1  0.248444  0.412785  0.399571  1
  O  O93  1  0.041591  0.250274  0.227134  1
  O  O94  1  0.087669  0.750144  0.430483  1
  O  O95  1  0.248209  0.540555  0.369398  1
  O  O96  1  0.252668  0.042228  0.302881  1
  O  O97  1  0.040580  0.412522  0.478405  1
  O  O98  1  0.155871  -0.000000  0.351896  1
  O  O99  1  0.954857  0.640676  0.539312  1
  O  O100  1  0.953864  0.359469  0.539145  1
  Si  Si101  1  0.806146  0.074075  0.335309  1
  Si  Si102  1  0.692109  0.573535  0.314885  1
  Si  Si103  1  0.693962  0.972345  0.390723  1
  Si  Si104  1  0.973436  0.694053  0.494615  1
  Si  Si105  1  0.925615  0.472310  0.291480  1
  Si  Si106  1  0.803612  0.469750  0.336334  1
  Si  Si107  1  0.926114  0.193830  0.290917  1
  Si  Si108  1  0.973218  0.574653  0.211278  1
  Si  Si109  1  0.574690  0.973306  0.435189  1
  Si  Si110  1  0.527427  0.075173  0.438976  1
  Si  Si111  1  0.472250  0.806355  0.210984  1
  Si  Si112  1  0.573850  0.694221  0.270357  1
  Si  Si113  1  0.425881  0.028212  0.414567  1
  Si  Si114  1  0.472425  0.926413  0.494323  1
  Si  Si115  1  0.529533  0.196496  0.438234  1
  Si  Si116  1  0.425556  0.307959  0.414021  1
  Si  Si117  1  0.307797  0.027903  0.369648  1
  Si  Si118  1  0.194973  0.925490  0.390141  1
  Si  Si119  1  0.078910  0.525982  0.271775  1
  Si  Si120  1  0.027783  0.306275  0.266597  1
  Si  Si121  1  0.303821  0.426037  0.368834  1
  Si  Si122  1  0.191386  0.526150  0.313206  1
  Si  Si123  1  0.074893  0.806125  0.435015  1
  Si  Si124  1  0.029571  0.425654  0.267341  1
  Si  Si125  1  0.973151  0.305991  0.211156  1
  Si  Si126  1  0.691184  0.420506  0.392008  1
  Si  Si127  1  0.805907  0.925470  0.370156  1
  Si  Si128  1  0.924838  0.527052  0.414852  1
  Si  Si129  1  0.972425  0.425497  0.494424  1
  Si  Si130  1  0.693762  0.027384  0.314841  1
  Si  Si131  1  0.804828  0.526284  0.370712  1
  Si  Si132  1  0.925751  0.805694  0.415016  1
  Si  Si133  1  0.473122  0.195246  0.494235  1
  Si  Si134  1  0.424828  0.694159  0.290573  1
  Si  Si135  1  0.572894  0.027909  0.270663  1
  Si  Si136  1  0.471050  0.075830  0.210758  1
  Si  Si137  1  0.526502  0.806104  0.266590  1
  Si  Si138  1  0.578877  0.308960  0.433630  1
  Si  Si139  1  0.421095  0.973341  0.291410  1
  Si  Si140  1  0.525521  0.926026  0.266496  1
  Si  Si141  1  0.073727  0.472586  0.434969  1
  Si  Si142  1  0.026981  0.574311  0.438855  1
  Si  Si143  1  0.308664  0.974262  0.332573  1
  Si  Si144  1  0.192303  0.472155  0.390330  1
  Si  Si145  1  0.075269  0.194018  0.270505  1
  Si  Si146  1  0.027584  0.693606  0.439241  1
  Si  Si147  1  0.304974  0.574734  0.334529  1
  Si  Si148  1  0.196237  0.074418  0.313660  1
  H  H149  1  0.453286  0.860191  0.147574  1
  H  H150  1  0.453804  0.142132  0.147312  1
  H  H151  1  0.954857  0.640676  0.147954  1
  H  H152  1  0.453286  0.860191  0.557684  1
  H  H153  1  0.953864  0.359469  0.147788  1
  H  H154  1  0.453804  0.142132  0.557422  1
  H  H155  1  0.954857  0.640676  0.558065  1
  H  H156  1  0.953864  0.359469  0.557899  1
