# generated using pymatgen
data_Si9(HO5)4
_symmetry_space_group_name_H-M   'P 1'
_cell_length_a   12.47604033
_cell_length_b   18.64366065
_cell_length_c   46.74182572
_cell_angle_alpha   134.83717606
_cell_angle_beta   114.84200000
_cell_angle_gamma   72.76914432
_symmetry_Int_Tables_number   1
_chemical_formula_structural   Si9(HO5)4
_chemical_formula_sum   'Si36 H16 O80'
_cell_volume   6996.18811943
_cell_formula_units_Z   4
loop_
 _symmetry_equiv_pos_site_id
 _symmetry_equiv_pos_as_xyz
  1  'x, y, z'
loop_
 _atom_site_type_symbol
 _atom_site_label
 _atom_site_symmetry_multiplicity
 _atom_site_fract_x
 _atom_site_fract_y
 _atom_site_fract_z
 _atom_site_occupancy
  O  O1  1  0.991432  0.860028  0.251247  1
  O  O2  1  0.904668  0.808682  0.179039  1
  O  O3  1  0.094852  0.691683  0.221830  1
  O  O4  1  0.770341  0.864791  0.220952  1
  O  O5  1  0.554026  0.814866  0.178085  1
  O  O6  1  0.445888  0.685501  0.223155  1
  O  O7  1  0.642539  0.864046  0.251611  1
  O  O8  1  0.598299  0.822325  0.288310  1
  O  O9  1  0.189445  0.853201  0.297446  1
  O  O10  1  0.998904  0.783292  0.279821  1
  O  O11  1  0.810389  0.353509  0.302272  1
  O  O12  1  0.991920  0.140284  0.329976  1
  O  O13  1  0.904409  0.191549  0.286608  1
  O  O14  1  0.770781  0.135378  0.297137  1
  O  O15  1  0.554642  0.185680  0.282491  1
  O  O16  1  0.642902  0.136265  0.328244  1
  O  O17  1  0.401803  0.322410  0.294158  1
  O  O18  1  0.617700  -0.000000  0.249567  1
  O  O19  1  0.666421  -0.000000  0.330109  1
  O  O20  1  0.897442  -0.000000  0.250122  1
  O  O21  1  0.904697  0.691427  0.286646  1
  O  O22  1  0.401601  0.822383  0.294159  1
  O  O23  1  0.554384  0.685590  0.282407  1
  O  O24  1  0.810249  0.853375  0.302386  1
  O  O25  1  0.991048  0.359846  0.251263  1
  O  O26  1  0.991611  0.640393  0.330124  1
  O  O27  1  0.897659  0.500066  0.250240  1
  O  O28  1  0.770151  0.364728  0.220845  1
  O  O29  1  0.770611  0.635417  0.297106  1
  O  O30  1  0.617619  0.500193  0.249497  1
  O  O31  1  0.642379  0.364093  0.251561  1
  O  O32  1  0.642739  0.636246  0.328190  1
  O  O33  1  0.666466  0.500167  0.330086  1
  O  O34  1  0.189512  0.352946  0.297240  1
  O  O35  1  0.904829  0.308768  0.179094  1
  O  O36  1  0.094383  0.191459  0.221681  1
  O  O37  1  0.553874  0.314859  0.178027  1
  O  O38  1  0.446155  0.185416  0.223192  1
  O  O39  1  0.598579  0.322306  0.288310  1
  O  O40  1  0.000000  0.283319  0.280055  1
  O  O41  1  0.401527  0.677835  0.394103  1
  O  O42  1  0.904668  0.808682  0.460276  1
  O  O43  1  0.094852  0.691683  0.503067  1
  O  O44  1  0.554026  0.814866  0.459322  1
  O  O45  1  0.445888  0.685501  0.504392  1
  O  O46  1  0.008689  0.359672  0.351892  1
  O  O47  1  0.009199  0.640634  0.430899  1
  O  O48  1  0.101681  0.500220  0.431848  1
  O  O49  1  0.229414  0.364975  0.385253  1
  O  O50  1  0.229828  0.635400  0.461426  1
  O  O51  1  0.382561  0.500083  0.432901  1
  O  O52  1  0.357184  0.364090  0.354195  1
  O  O53  1  0.357469  0.636135  0.430780  1
  O  O54  1  0.332779  0.500103  0.352211  1
  O  O55  1  0.810341  0.646825  0.384934  1
  O  O56  1  0.094905  0.308711  0.395391  1
  O  O57  1  0.445414  0.314601  0.399970  1
  O  O58  1  0.597905  0.177844  0.388253  1
  O  O59  1  0.189267  0.147154  0.380229  1
  O  O60  1  0.998430  0.216723  0.401559  1
  O  O61  1  0.009030  0.859473  0.351742  1
  O  O62  1  0.598285  0.678006  0.388329  1
  O  O63  1  0.094650  0.808806  0.395378  1
  O  O64  1  0.229566  0.864906  0.385309  1
  O  O65  1  0.445546  0.814582  0.400022  1
  O  O66  1  0.357299  0.864139  0.354270  1
  O  O67  1  0.000000  0.716864  0.401838  1
  O  O68  1  0.189465  0.647235  0.380145  1
  O  O69  1  0.009501  0.140761  0.430810  1
  O  O70  1  0.904829  0.308768  0.460331  1
  O  O71  1  0.094383  0.191459  0.502919  1
  O  O72  1  0.230001  0.135484  0.461533  1
  O  O73  1  0.553874  0.314859  0.459264  1
  O  O74  1  0.446155  0.185416  0.504429  1
  O  O75  1  0.357569  0.136151  0.430845  1
  O  O76  1  0.401141  0.178034  0.394136  1
  O  O77  1  0.810173  0.146884  0.385062  1
  O  O78  1  0.382595  -0.000000  0.432964  1
  O  O79  1  0.101432  -0.000000  0.431710  1
  O  O80  1  0.332883  0.000000  0.352297  1
  Si  Si81  1  0.070111  0.796665  0.263155  1
  Si  Si82  1  0.677259  0.883516  0.293083  1
  Si  Si83  1  0.891483  0.884035  0.224562  1
  Si  Si84  1  0.642934  0.883949  0.224052  1
  Si  Si85  1  0.499988  0.755631  0.272488  1
  Si  Si86  1  0.322343  0.383440  0.323635  1
  Si  Si87  1  0.929532  0.296578  0.304404  1
  Si  Si88  1  0.891701  0.116111  0.289798  1
  Si  Si89  1  0.643340  0.116403  0.289509  1
  Si  Si90  1  0.929475  0.796343  0.304313  1
  Si  Si91  1  0.322278  0.883516  0.323705  1
  Si  Si92  1  0.891470  0.384041  0.224604  1
  Si  Si93  1  0.891722  0.616113  0.289880  1
  Si  Si94  1  0.642798  0.383926  0.223981  1
  Si  Si95  1  0.643168  0.616376  0.289448  1
  Si  Si96  1  0.677342  0.383562  0.293044  1
  Si  Si97  1  0.070108  0.296474  0.263131  1
  Si  Si98  1  0.500265  0.255647  0.272529  1
  Si  Si99  1  0.929597  0.703677  0.418930  1
  Si  Si100  1  0.107992  0.384154  0.392252  1
  Si  Si101  1  0.108251  0.616248  0.457557  1
  Si  Si102  1  0.356908  0.383906  0.392936  1
  Si  Si103  1  0.357257  0.616327  0.458388  1
  Si  Si104  1  0.322336  0.616739  0.389305  1
  Si  Si105  1  0.499564  0.244634  0.409934  1
  Si  Si106  1  0.070071  0.203603  0.377592  1
  Si  Si107  1  0.677246  0.116769  0.358732  1
  Si  Si108  1  0.107955  0.884081  0.392192  1
  Si  Si109  1  0.070152  0.703761  0.377704  1
  Si  Si110  1  0.357016  0.883897  0.392999  1
  Si  Si111  1  0.499856  0.744622  0.409984  1
  Si  Si112  1  0.677343  0.616800  0.358707  1
  Si  Si113  1  0.929520  0.203835  0.418918  1
  Si  Si114  1  0.322233  0.116823  0.389377  1
  Si  Si115  1  0.357388  0.116323  0.458451  1
  Si  Si116  1  0.108167  0.116221  0.457471  1
  H  H117  1  0.904668  0.808682  0.159784  1
  H  H118  1  0.094852  0.691683  0.202575  1
  H  H119  1  0.554026  0.814866  0.158831  1
  H  H120  1  0.445888  0.685501  0.203900  1
  H  H121  1  0.904829  0.308768  0.159839  1
  H  H122  1  0.094383  0.191459  0.202427  1
  H  H123  1  0.553874  0.314859  0.158772  1
  H  H124  1  0.446155  0.185416  0.203937  1
  H  H125  1  0.904668  0.808682  0.479531  1
  H  H126  1  0.094852  0.691683  0.522322  1
  H  H127  1  0.554026  0.814866  0.478577  1
  H  H128  1  0.445888  0.685501  0.523647  1
  H  H129  1  0.904829  0.308768  0.479586  1
  H  H130  1  0.094383  0.191459  0.522173  1
  H  H131  1  0.553874  0.314859  0.478519  1
  H  H132  1  0.446155  0.185416  0.523684  1
