# generated using pymatgen
data_Si36H2O73
_symmetry_space_group_name_H-M   'P 1'
_cell_length_a   7.15454545
_cell_length_b   7.18682161
_cell_length_c   104.98485764
_cell_angle_alpha   90.00000000
_cell_angle_beta   90.00000000
_cell_angle_gamma   90.00300000
_symmetry_Int_Tables_number   1
_chemical_formula_structural   Si36H2O73
_chemical_formula_sum   'Si72 H4 O146'
_cell_volume   5398.15779035
_cell_formula_units_Z   2
loop_
 _symmetry_equiv_pos_site_id
 _symmetry_equiv_pos_as_xyz
  1  'x, y, z'
loop_
 _atom_site_type_symbol
 _atom_site_label
 _atom_site_symmetry_multiplicity
 _atom_site_fract_x
 _atom_site_fract_y
 _atom_site_fract_z
 _atom_site_occupancy
  O  O1  1  0.171590  0.994364  0.412733  1
  O  O2  1  0.671647  0.994384  0.214643  1
  O  O3  1  0.828132  0.994356  0.412737  1
  O  O4  1  0.328188  0.994374  0.214651  1
  O  O5  1  0.828097  0.994426  0.095837  1
  O  O6  1  0.328197  0.994301  0.293922  1
  O  O7  1  0.171556  0.994434  0.095839  1
  O  O8  1  0.671655  0.994310  0.293928  1
  O  O9  1  0.323550  0.814324  0.432153  1
  O  O10  1  0.823645  0.814246  0.234060  1
  O  O11  1  0.676313  0.173543  0.432178  1
  O  O12  1  0.176408  0.173465  0.234095  1
  O  O13  1  0.676259  0.173537  0.076396  1
  O  O14  1  0.176410  0.173474  0.274480  1
  O  O15  1  0.323497  0.814317  0.076421  1
  O  O16  1  0.823648  0.814255  0.274509  1
  O  O17  1  -0.000000  0.993793  0.432933  1
  O  O18  1  0.500010  0.993706  0.234845  1
  O  O19  1  0.000000  0.993779  0.075641  1
  O  O20  1  0.500013  0.993723  0.273727  1
  O  O21  1  0.323509  0.173533  0.432172  1
  O  O22  1  0.823599  0.173455  0.234084  1
  O  O23  1  0.676241  0.814338  0.432161  1
  O  O24  1  0.176331  0.814259  0.234072  1
  O  O25  1  0.676184  0.814328  0.076417  1
  O  O26  1  0.176337  0.814269  0.274497  1
  O  O27  1  0.323452  0.173525  0.076398  1
  O  O28  1  0.823606  0.173465  0.274490  1
  O  O29  1  0.499898  0.493985  0.434489  1
  O  O30  1  0.000000  0.493903  0.236401  1
  O  O31  1  0.499846  0.493972  0.074085  1
  O  O32  1  -0.000000  0.493917  0.272171  1
  O  O33  1  0.499798  0.734722  0.056201  1
  O  O34  1  0.000000  0.734655  0.254285  1
  O  O35  1  0.499835  0.253404  0.056199  1
  O  O36  1  -0.000000  0.253336  0.254287  1
  O  O37  1  -0.000000  0.830428  0.392514  1
  O  O38  1  0.499819  0.830513  0.194425  1
  O  O39  1  -0.000000  0.172138  0.393215  1
  O  O40  1  0.499809  0.172223  0.195128  1
  O  O41  1  0.000000  0.172293  0.115356  1
  O  O42  1  0.499835  0.172044  0.313448  1
  O  O43  1  0.000000  0.830585  0.116062  1
  O  O44  1  0.499845  0.830331  0.314143  1
  O  O45  1  0.179520  0.685306  0.372902  1
  O  O46  1  0.679473  0.685407  0.174813  1
  O  O47  1  0.819559  0.332904  0.374160  1
  O  O48  1  0.319511  0.333004  0.176073  1
  O  O49  1  0.819504  0.333116  0.134409  1
  O  O50  1  0.319566  0.332746  0.332506  1
  O  O51  1  0.179463  0.685513  0.135675  1
  O  O52  1  0.679532  0.685152  0.333753  1
  O  O53  1  0.000000  0.010279  0.372654  1
  O  O54  1  0.499736  0.010383  0.174566  1
  O  O55  1  0.000000  0.010499  0.135919  1
  O  O56  1  0.499796  0.010112  0.334006  1
  O  O57  1  0.820078  0.685292  0.372905  1
  O  O58  1  0.320023  0.685390  0.174818  1
  O  O59  1  0.180015  0.332917  0.374158  1
  O  O60  1  0.679963  0.333014  0.176069  1
  O  O61  1  0.179958  0.333128  0.134413  1
  O  O62  1  0.680021  0.332758  0.332508  1
  O  O63  1  0.820021  0.685498  0.135671  1
  O  O64  1  0.320079  0.685137  0.333750  1
  O  O65  1  0.499792  0.508111  0.370700  1
  O  O66  1  -0.000000  0.508209  0.172612  1
  O  O67  1  0.499734  0.508311  0.137873  1
  O  O68  1  0.000000  0.507966  0.335961  1
  O  O69  1  0.749806  0.492441  0.353331  1
  O  O70  1  0.249764  0.492569  0.155244  1
  O  O71  1  0.249810  0.492441  0.353330  1
  O  O72  1  0.749761  0.492568  0.155241  1
  O  O73  1  0.171590  0.994364  0.808908  1
  O  O74  1  0.671647  0.994384  0.610818  1
  O  O75  1  0.828132  0.994356  0.808912  1
  O  O76  1  0.328188  0.994374  0.610825  1
  O  O77  1  0.828097  0.994426  0.492012  1
  O  O78  1  0.328197  0.994301  0.690096  1
  O  O79  1  0.171556  0.994434  0.492014  1
  O  O80  1  0.671655  0.994310  0.690103  1
  O  O81  1  0.323550  0.814324  0.828328  1
  O  O82  1  0.823645  0.814246  0.630234  1
  O  O83  1  0.676313  0.173543  0.828352  1
  O  O84  1  0.176408  0.173465  0.630269  1
  O  O85  1  0.676259  0.173537  0.472570  1
  O  O86  1  0.176410  0.173474  0.670655  1
  O  O87  1  0.323497  0.814317  0.472595  1
  O  O88  1  0.823648  0.814255  0.670684  1
  O  O89  1  0.000000  0.993793  0.829107  1
  O  O90  1  0.500010  0.993706  0.631019  1
  O  O91  1  -0.000000  0.993779  0.471815  1
  O  O92  1  0.500013  0.993723  0.669902  1
  O  O93  1  0.323509  0.173533  0.828346  1
  O  O94  1  0.823599  0.173455  0.630259  1
  O  O95  1  0.676241  0.814338  0.828335  1
  O  O96  1  0.176331  0.814259  0.630247  1
  O  O97  1  0.676184  0.814328  0.472592  1
  O  O98  1  0.176337  0.814269  0.670672  1
  O  O99  1  0.323452  0.173525  0.472572  1
  O  O100  1  0.823606  0.173465  0.670665  1
  O  O101  1  0.499898  0.493985  0.830663  1
  O  O102  1  -0.000000  0.493903  0.632575  1
  O  O103  1  0.499846  0.493972  0.470259  1
  O  O104  1  0.000000  0.493917  0.668346  1
  O  O105  1  0.499798  0.734722  0.452375  1
  O  O106  1  0.000000  0.734655  0.650460  1
  O  O107  1  0.499835  0.253404  0.452373  1
  O  O108  1  0.000000  0.253336  0.650462  1
  O  O109  1  0.000000  0.830428  0.788688  1
  O  O110  1  0.499819  0.830513  0.590600  1
  O  O111  1  0.000000  0.172138  0.789390  1
  O  O112  1  0.499809  0.172223  0.591302  1
  O  O113  1  0.000000  0.172293  0.511530  1
  O  O114  1  0.499835  0.172044  0.709623  1
  O  O115  1  -0.000000  0.830585  0.512237  1
  O  O116  1  0.499845  0.830331  0.710318  1
  O  O117  1  0.179520  0.685306  0.769077  1
  O  O118  1  0.679473  0.685407  0.570988  1
  O  O119  1  0.819559  0.332904  0.770334  1
  O  O120  1  0.319511  0.333004  0.572247  1
  O  O121  1  0.819504  0.333116  0.530584  1
  O  O122  1  0.319566  0.332746  0.728681  1
  O  O123  1  0.179463  0.685513  0.531850  1
  O  O124  1  0.679532  0.685152  0.729927  1
  O  O125  1  0.000000  0.010279  0.768829  1
  O  O126  1  0.499736  0.010383  0.570741  1
  O  O127  1  0.000000  0.010499  0.532093  1
  O  O128  1  0.499796  0.010112  0.730181  1
  O  O129  1  0.820078  0.685292  0.769079  1
  O  O130  1  0.320023  0.685390  0.570992  1
  O  O131  1  0.180015  0.332917  0.770332  1
  O  O132  1  0.679963  0.333014  0.572243  1
  O  O133  1  0.179958  0.333128  0.530587  1
  O  O134  1  0.680021  0.332758  0.728683  1
  O  O135  1  0.820021  0.685498  0.531846  1
  O  O136  1  0.320079  0.685137  0.729925  1
  O  O137  1  0.499792  0.508111  0.766875  1
  O  O138  1  -0.000000  0.508209  0.568787  1
  O  O139  1  0.499734  0.508311  0.534047  1
  O  O140  1  0.000000  0.507966  0.732135  1
  O  O141  1  0.749806  0.492441  0.749506  1
  O  O142  1  0.249764  0.492569  0.551419  1
  O  O143  1  0.249810  0.492441  0.749504  1
  O  O144  1  0.749761  0.492568  0.551415  1
  O  O145  1  0.499798  0.734722  0.848550  1
  O  O146  1  0.499835  0.253404  0.848548  1
  Si  Si147  1  0.212600  0.993940  0.427862  1
  Si  Si148  1  0.712687  0.993877  0.229771  1
  Si  Si149  1  0.787196  0.993948  0.427867  1
  Si  Si150  1  0.287288  0.993884  0.229780  1
  Si  Si151  1  0.787139  0.993953  0.080708  1
  Si  Si152  1  0.287296  0.993880  0.278792  1
  Si  Si153  1  0.212553  0.993945  0.080710  1
  Si  Si154  1  0.712688  0.993873  0.278801  1
  Si  Si155  1  0.499870  0.708637  0.437560  1
  Si  Si156  1  0.000000  0.708558  0.239470  1
  Si  Si157  1  0.499893  0.279333  0.437561  1
  Si  Si158  1  -0.000000  0.279257  0.239474  1
  Si  Si159  1  0.499849  0.279322  0.071011  1
  Si  Si160  1  0.000000  0.279264  0.269100  1
  Si  Si161  1  0.499827  0.708633  0.071016  1
  Si  Si162  1  0.000000  0.708569  0.269100  1
  Si  Si163  1  -0.000000  0.796265  0.377301  1
  Si  Si164  1  0.499762  0.796357  0.179212  1
  Si  Si165  1  0.000000  0.219940  0.378194  1
  Si  Si166  1  0.499746  0.220046  0.180107  1
  Si  Si167  1  -0.000000  0.220136  0.130376  1
  Si  Si168  1  0.499798  0.219801  0.328470  1
  Si  Si169  1  -0.000000  0.796478  0.131275  1
  Si  Si170  1  0.499813  0.796106  0.329356  1
  Si  Si171  1  0.716299  0.505082  0.368002  1
  Si  Si172  1  0.216253  0.505179  0.169915  1
  Si  Si173  1  0.283289  0.505095  0.368000  1
  Si  Si174  1  0.783235  0.505193  0.169911  1
  Si  Si175  1  0.283233  0.505279  0.140573  1
  Si  Si176  1  0.783289  0.504974  0.338660  1
  Si  Si177  1  0.716243  0.505266  0.140570  1
  Si  Si178  1  0.216311  0.504960  0.338659  1
  Si  Si179  1  0.000000  0.996880  0.402804  1
  Si  Si180  1  0.499870  0.996953  0.204716  1
  Si  Si181  1  0.000000  0.997002  0.105771  1
  Si  Si182  1  0.499882  0.996819  0.303855  1
  Si  Si183  1  0.212600  0.993940  0.824036  1
  Si  Si184  1  0.712687  0.993877  0.625946  1
  Si  Si185  1  0.787196  0.993948  0.824041  1
  Si  Si186  1  0.287288  0.993884  0.625955  1
  Si  Si187  1  0.787139  0.993953  0.476882  1
  Si  Si188  1  0.287296  0.993880  0.674967  1
  Si  Si189  1  0.212553  0.993945  0.476885  1
  Si  Si190  1  0.712688  0.993873  0.674975  1
  Si  Si191  1  0.499870  0.708637  0.833734  1
  Si  Si192  1  -0.000000  0.708558  0.635644  1
  Si  Si193  1  0.499893  0.279333  0.833735  1
  Si  Si194  1  -0.000000  0.279257  0.635649  1
  Si  Si195  1  0.499849  0.279322  0.467186  1
  Si  Si196  1  0.000000  0.279264  0.665274  1
  Si  Si197  1  0.499827  0.708633  0.467190  1
  Si  Si198  1  0.000000  0.708569  0.665275  1
  Si  Si199  1  0.000000  0.796265  0.773476  1
  Si  Si200  1  0.499762  0.796357  0.575387  1
  Si  Si201  1  -0.000000  0.219940  0.774369  1
  Si  Si202  1  0.499746  0.220046  0.576281  1
  Si  Si203  1  -0.000000  0.220136  0.526550  1
  Si  Si204  1  0.499798  0.219801  0.724644  1
  Si  Si205  1  -0.000000  0.796478  0.527449  1
  Si  Si206  1  0.499813  0.796106  0.725530  1
  Si  Si207  1  0.716299  0.505082  0.764176  1
  Si  Si208  1  0.216253  0.505179  0.566089  1
  Si  Si209  1  0.283289  0.505095  0.764175  1
  Si  Si210  1  0.783235  0.505193  0.566086  1
  Si  Si211  1  0.283233  0.505279  0.536748  1
  Si  Si212  1  0.783289  0.504974  0.734835  1
  Si  Si213  1  0.716243  0.505266  0.536745  1
  Si  Si214  1  0.216311  0.504960  0.734833  1
  Si  Si215  1  0.000000  0.996880  0.798979  1
  Si  Si216  1  0.499870  0.996953  0.600891  1
  Si  Si217  1  0.000000  0.997002  0.501946  1
  Si  Si218  1  0.499882  0.996819  0.700029  1
  H  H219  1  0.499798  0.734722  0.047628  1
  H  H220  1  0.499835  0.253404  0.047626  1
  H  H221  1  0.499798  0.734722  0.857122  1
  H  H222  1  0.499835  0.253404  0.857120  1
