# generated using pymatgen
data_Si18H2O37
_symmetry_space_group_name_H-M   'P 1'
_cell_length_a   14.85039366
_cell_length_b   21.00746127
_cell_length_c   74.64482773
_cell_angle_alpha   134.99733787
_cell_angle_beta   90.00000000
_cell_angle_gamma   90.00000000
_symmetry_Int_Tables_number   1
_chemical_formula_structural   Si18H2O37
_chemical_formula_sum   'Si144 H16 O296'
_cell_volume   16467.0740227
_cell_formula_units_Z   8
loop_
 _symmetry_equiv_pos_site_id
 _symmetry_equiv_pos_as_xyz
  1  'x, y, z'
loop_
 _atom_site_type_symbol
 _atom_site_label
 _atom_site_symmetry_multiplicity
 _atom_site_fract_x
 _atom_site_fract_y
 _atom_site_fract_z
 _atom_site_occupancy
  O  O1  1  0.876612  0.667538  0.173433  1
  O  O2  1  0.000000  0.614777  0.184185  1
  O  O3  1  0.876601  0.667501  0.106783  1
  O  O4  1  0.832469  0.832598  0.148424  1
  O  O5  1  0.832452  0.623333  0.264134  1
  O  O6  1  0.832480  0.623349  0.197492  1
  O  O7  1  0.832493  0.832629  0.197492  1
  O  O8  1  0.885191  0.725762  0.151697  1
  O  O9  1  0.667375  0.876819  0.148434  1
  O  O10  1  0.885205  0.500094  0.151698  1
  O  O11  1  0.725644  0.885398  0.183463  1
  O  O12  1  0.774212  0.614769  0.229107  1
  O  O13  1  0.667384  0.667565  0.215080  1
  O  O14  1  0.000000  0.774311  0.138532  1
  O  O15  1  0.667360  0.667535  0.264136  1
  O  O16  1  0.667404  0.876836  0.215082  1
  O  O17  1  0.725595  0.500074  0.229105  1
  O  O18  1  0.885192  0.500064  0.260865  1
  O  O19  1  0.725610  0.500099  0.183461  1
  O  O20  1  0.000000  0.614760  0.274024  1
  O  O21  1  0.000000  0.774332  0.184184  1
  O  O22  1  0.499918  0.725843  0.274031  1
  O  O23  1  0.376599  0.832649  0.106787  1
  O  O24  1  0.623246  0.832628  0.106787  1
  O  O25  1  0.623259  0.832664  0.239146  1
  O  O26  1  0.376615  0.832670  0.239143  1
  O  O27  1  0.499942  0.885416  0.228386  1
  O  O28  1  0.499917  0.885397  0.138540  1
  O  O29  1  0.499934  0.725864  0.228387  1
  O  O30  1  0.614667  0.774405  0.260873  1
  O  O31  1  0.385189  0.774416  0.260872  1
  O  O32  1  0.123260  0.667536  0.173429  1
  O  O33  1  0.123244  0.667514  0.106782  1
  O  O34  1  0.167365  0.832614  0.148425  1
  O  O35  1  0.167376  0.623340  0.264132  1
  O  O36  1  0.167397  0.623355  0.197489  1
  O  O37  1  0.167388  0.832628  0.197490  1
  O  O38  1  0.114669  0.725768  0.151695  1
  O  O39  1  0.274215  0.885404  0.183460  1
  O  O40  1  0.332484  0.876843  0.215079  1
  O  O41  1  0.225642  0.614779  0.229105  1
  O  O42  1  0.114661  0.500075  0.260865  1
  O  O43  1  0.332485  0.667574  0.215080  1
  O  O44  1  0.332455  0.876826  0.148430  1
  O  O45  1  0.332468  0.667559  0.264140  1
  O  O46  1  0.274270  0.500108  0.183461  1
  O  O47  1  0.114674  0.500094  0.151696  1
  O  O48  1  0.274257  0.500093  0.229107  1
  O  O49  1  0.832472  0.376818  0.215073  1
  O  O50  1  0.832489  0.167529  0.215070  1
  O  O51  1  0.832483  0.376838  0.148433  1
  O  O52  1  0.832496  0.167554  0.264136  1
  O  O53  1  0.876617  0.332653  0.106787  1
  O  O54  1  0.876606  0.332622  0.239131  1
  O  O55  1  0.667382  0.332607  0.197485  1
  O  O56  1  0.000000  0.385404  0.138538  1
  O  O57  1  0.000000  0.225836  0.228379  1
  O  O58  1  0.774256  0.000000  0.183453  1
  O  O59  1  0.774222  0.385407  0.183461  1
  O  O60  1  0.725653  0.114760  0.229099  1
  O  O61  1  0.885195  0.274399  0.260867  1
  O  O62  1  0.774270  0.000000  0.229107  1
  O  O63  1  0.667403  0.123350  0.264131  1
  O  O64  1  0.667392  0.123331  0.197482  1
  O  O65  1  0.667389  0.332637  0.148428  1
  O  O66  1  -0.000000  0.385386  0.228376  1
  O  O67  1  -0.000000  0.225855  0.274031  1
  O  O68  1  0.376607  0.167529  0.173423  1
  O  O69  1  0.623253  0.167510  0.173420  1
  O  O70  1  0.376615  0.167556  0.106784  1
  O  O71  1  0.623268  0.167547  0.106784  1
  O  O72  1  0.614658  0.000000  0.151693  1
  O  O73  1  0.385199  0.225780  0.151693  1
  O  O74  1  0.614678  0.225767  0.151691  1
  O  O75  1  0.385190  0.000000  0.151693  1
  O  O76  1  0.499944  0.274342  0.138534  1
  O  O77  1  0.499927  0.114771  0.184180  1
  O  O78  1  0.499943  0.114789  0.274025  1
  O  O79  1  0.499937  0.274319  0.184177  1
  O  O80  1  0.614675  -0.000000  0.260873  1
  O  O81  1  0.385206  0.000000  0.260871  1
  O  O82  1  0.167397  0.376827  0.215074  1
  O  O83  1  0.167373  0.167541  0.215071  1
  O  O84  1  0.167408  0.376841  0.148432  1
  O  O85  1  0.167386  0.167556  0.264136  1
  O  O86  1  0.123265  0.332653  0.106786  1
  O  O87  1  0.123256  0.332633  0.239132  1
  O  O88  1  0.332482  0.123354  0.264129  1
  O  O89  1  0.332494  0.332629  0.197487  1
  O  O90  1  0.225656  0.385418  0.183461  1
  O  O91  1  0.274218  0.114765  0.229099  1
  O  O92  1  0.114674  0.274405  0.260867  1
  O  O93  1  0.225610  0.000000  0.229106  1
  O  O94  1  0.332502  0.332649  0.148430  1
  O  O95  1  0.225593  -0.000000  0.183454  1
  O  O96  1  0.332463  0.123342  0.197482  1
  O  O97  1  0.876612  0.667538  0.372426  1
  O  O98  1  0.000000  0.614777  0.383179  1
  O  O99  1  0.876601  0.667501  0.305777  1
  O  O100  1  0.832469  0.832598  0.347417  1
  O  O101  1  0.832452  0.623333  0.463128  1
  O  O102  1  0.832480  0.623349  0.396485  1
  O  O103  1  0.832493  0.832629  0.396486  1
  O  O104  1  0.885191  0.725762  0.350690  1
  O  O105  1  0.667375  0.876819  0.347427  1
  O  O106  1  0.885205  0.500094  0.350691  1
  O  O107  1  0.725644  0.885398  0.382456  1
  O  O108  1  0.774212  0.614769  0.428100  1
  O  O109  1  0.667384  0.667565  0.414074  1
  O  O110  1  -0.000000  0.774311  0.337525  1
  O  O111  1  0.667360  0.667535  0.463130  1
  O  O112  1  0.667404  0.876836  0.414076  1
  O  O113  1  0.725595  0.500074  0.428098  1
  O  O114  1  0.885192  0.500064  0.459859  1
  O  O115  1  0.725610  0.500099  0.382454  1
  O  O116  1  -0.000000  0.614760  0.473018  1
  O  O117  1  -0.000000  0.774332  0.383177  1
  O  O118  1  0.499918  0.725843  0.473024  1
  O  O119  1  0.376599  0.832649  0.305781  1
  O  O120  1  0.623246  0.832628  0.305781  1
  O  O121  1  0.623259  0.832664  0.438139  1
  O  O122  1  0.376615  0.832670  0.438136  1
  O  O123  1  0.499942  0.885416  0.427379  1
  O  O124  1  0.499917  0.885397  0.337533  1
  O  O125  1  0.499934  0.725864  0.427380  1
  O  O126  1  0.614667  0.774405  0.459866  1
  O  O127  1  0.385189  0.774416  0.459865  1
  O  O128  1  0.123260  0.667536  0.372422  1
  O  O129  1  0.123244  0.667514  0.305776  1
  O  O130  1  0.167365  0.832614  0.347419  1
  O  O131  1  0.167376  0.623340  0.463125  1
  O  O132  1  0.167397  0.623355  0.396483  1
  O  O133  1  0.167388  0.832628  0.396484  1
  O  O134  1  0.114669  0.725768  0.350689  1
  O  O135  1  0.274215  0.885404  0.382454  1
  O  O136  1  0.332484  0.876843  0.414073  1
  O  O137  1  0.225642  0.614779  0.428099  1
  O  O138  1  0.114661  0.500075  0.459859  1
  O  O139  1  0.332485  0.667574  0.414073  1
  O  O140  1  0.332455  0.876826  0.347424  1
  O  O141  1  0.332468  0.667559  0.463133  1
  O  O142  1  0.274270  0.500108  0.382454  1
  O  O143  1  0.114674  0.500094  0.350689  1
  O  O144  1  0.274257  0.500093  0.428101  1
  O  O145  1  0.832472  0.376818  0.414067  1
  O  O146  1  0.832489  0.167529  0.414063  1
  O  O147  1  0.832483  0.376838  0.347427  1
  O  O148  1  0.832496  0.167554  0.463130  1
  O  O149  1  0.876617  0.332653  0.305781  1
  O  O150  1  0.876606  0.332622  0.438124  1
  O  O151  1  0.667382  0.332607  0.396478  1
  O  O152  1  0.000000  0.385404  0.337532  1
  O  O153  1  -0.000000  0.225836  0.427373  1
  O  O154  1  0.774256  -0.000000  0.382447  1
  O  O155  1  0.774222  0.385407  0.382454  1
  O  O156  1  0.725653  0.114760  0.428093  1
  O  O157  1  0.885195  0.274399  0.459860  1
  O  O158  1  0.774270  0.000000  0.428100  1
  O  O159  1  0.667403  0.123350  0.463124  1
  O  O160  1  0.667392  0.123331  0.396476  1
  O  O161  1  0.667389  0.332637  0.347422  1
  O  O162  1  0.000000  0.385386  0.427370  1
  O  O163  1  0.000000  0.225855  0.473024  1
  O  O164  1  0.376607  0.167529  0.372416  1
  O  O165  1  0.623253  0.167510  0.372413  1
  O  O166  1  0.376615  0.167556  0.305777  1
  O  O167  1  0.623268  0.167547  0.305777  1
  O  O168  1  0.614658  -0.000000  0.350686  1
  O  O169  1  0.385199  0.225780  0.350686  1
  O  O170  1  0.614678  0.225767  0.350685  1
  O  O171  1  0.385190  -0.000000  0.350687  1
  O  O172  1  0.499944  0.274342  0.337527  1
  O  O173  1  0.499927  0.114771  0.383173  1
  O  O174  1  0.499943  0.114789  0.473018  1
  O  O175  1  0.499937  0.274319  0.383171  1
  O  O176  1  0.614675  0.000000  0.459866  1
  O  O177  1  0.385206  0.000000  0.459865  1
  O  O178  1  0.167397  0.376827  0.414067  1
  O  O179  1  0.167373  0.167541  0.414064  1
  O  O180  1  0.167408  0.376841  0.347425  1
  O  O181  1  0.167386  0.167556  0.463129  1
  O  O182  1  0.123265  0.332653  0.305779  1
  O  O183  1  0.123256  0.332633  0.438125  1
  O  O184  1  0.332482  0.123354  0.463123  1
  O  O185  1  0.332494  0.332629  0.396481  1
  O  O186  1  0.225656  0.385418  0.382455  1
  O  O187  1  0.274218  0.114765  0.428092  1
  O  O188  1  0.114674  0.274405  0.459860  1
  O  O189  1  0.225610  -0.000000  0.428099  1
  O  O190  1  0.332502  0.332649  0.347423  1
  O  O191  1  0.225593  -0.000000  0.382448  1
  O  O192  1  0.332463  0.123342  0.396476  1
  O  O193  1  0.876612  0.667538  0.571419  1
  O  O194  1  0.000000  0.614777  0.582172  1
  O  O195  1  0.876601  0.667501  0.504770  1
  O  O196  1  0.832469  0.832598  0.546410  1
  O  O197  1  0.832452  0.623333  0.662121  1
  O  O198  1  0.832480  0.623349  0.595479  1
  O  O199  1  0.832493  0.832629  0.595479  1
  O  O200  1  0.885191  0.725762  0.549684  1
  O  O201  1  0.667375  0.876819  0.546420  1
  O  O202  1  0.885205  0.500094  0.549685  1
  O  O203  1  0.725644  0.885398  0.581449  1
  O  O204  1  0.774212  0.614769  0.627093  1
  O  O205  1  0.667384  0.667565  0.613067  1
  O  O206  1  0.000000  0.774311  0.536519  1
  O  O207  1  0.667360  0.667535  0.662123  1
  O  O208  1  0.667404  0.876836  0.613069  1
  O  O209  1  0.725595  0.500074  0.627092  1
  O  O210  1  0.885192  0.500064  0.658852  1
  O  O211  1  0.725610  0.500099  0.581448  1
  O  O212  1  -0.000000  0.614760  0.672011  1
  O  O213  1  0.000000  0.774332  0.582171  1
  O  O214  1  0.499918  0.725843  0.672018  1
  O  O215  1  0.376599  0.832649  0.504774  1
  O  O216  1  0.623246  0.832628  0.504774  1
  O  O217  1  0.623259  0.832664  0.637132  1
  O  O218  1  0.376615  0.832670  0.637130  1
  O  O219  1  0.499942  0.885416  0.626373  1
  O  O220  1  0.499917  0.885397  0.536526  1
  O  O221  1  0.499934  0.725864  0.626374  1
  O  O222  1  0.614667  0.774405  0.658860  1
  O  O223  1  0.385189  0.774416  0.658859  1
  O  O224  1  0.123260  0.667536  0.571415  1
  O  O225  1  0.123244  0.667514  0.504769  1
  O  O226  1  0.167365  0.832614  0.546412  1
  O  O227  1  0.167376  0.623340  0.662118  1
  O  O228  1  0.167397  0.623355  0.595476  1
  O  O229  1  0.167388  0.832628  0.595477  1
  O  O230  1  0.114669  0.725768  0.549682  1
  O  O231  1  0.274215  0.885404  0.581447  1
  O  O232  1  0.332484  0.876843  0.613066  1
  O  O233  1  0.225642  0.614779  0.627092  1
  O  O234  1  0.114661  0.500075  0.658852  1
  O  O235  1  0.332485  0.667574  0.613066  1
  O  O236  1  0.332455  0.876826  0.546417  1
  O  O237  1  0.332468  0.667559  0.662126  1
  O  O238  1  0.274270  0.500108  0.581448  1
  O  O239  1  0.114674  0.500094  0.549682  1
  O  O240  1  0.274257  0.500093  0.627094  1
  O  O241  1  0.832472  0.376818  0.613060  1
  O  O242  1  0.832489  0.167529  0.613056  1
  O  O243  1  0.832483  0.376838  0.546420  1
  O  O244  1  0.832496  0.167554  0.662123  1
  O  O245  1  0.876617  0.332653  0.504774  1
  O  O246  1  0.876606  0.332622  0.637117  1
  O  O247  1  0.667382  0.332607  0.595471  1
  O  O248  1  0.000000  0.385404  0.536525  1
  O  O249  1  0.000000  0.225836  0.626366  1
  O  O250  1  0.774256  0.000000  0.581440  1
  O  O251  1  0.774222  0.385407  0.581448  1
  O  O252  1  0.725653  0.114760  0.627086  1
  O  O253  1  0.885195  0.274399  0.658853  1
  O  O254  1  0.774270  -0.000000  0.627094  1
  O  O255  1  0.667403  0.123350  0.662117  1
  O  O256  1  0.667392  0.123331  0.595469  1
  O  O257  1  0.667389  0.332637  0.546415  1
  O  O258  1  -0.000000  0.385386  0.626363  1
  O  O259  1  -0.000000  0.225855  0.672018  1
  O  O260  1  0.376607  0.167529  0.571409  1
  O  O261  1  0.623253  0.167510  0.571407  1
  O  O262  1  0.376615  0.167556  0.504771  1
  O  O263  1  0.623268  0.167547  0.504771  1
  O  O264  1  0.614658  -0.000000  0.549680  1
  O  O265  1  0.385199  0.225780  0.549679  1
  O  O266  1  0.614678  0.225767  0.549678  1
  O  O267  1  0.385190  -0.000000  0.549680  1
  O  O268  1  0.499944  0.274342  0.536520  1
  O  O269  1  0.499927  0.114771  0.582167  1
  O  O270  1  0.499943  0.114789  0.672012  1
  O  O271  1  0.499937  0.274319  0.582164  1
  O  O272  1  0.614675  0.000000  0.658860  1
  O  O273  1  0.385206  0.000000  0.658858  1
  O  O274  1  0.167397  0.376827  0.613061  1
  O  O275  1  0.167373  0.167541  0.613058  1
  O  O276  1  0.167408  0.376841  0.546419  1
  O  O277  1  0.167386  0.167556  0.662123  1
  O  O278  1  0.123265  0.332653  0.504773  1
  O  O279  1  0.123256  0.332633  0.637119  1
  O  O280  1  0.332482  0.123354  0.662116  1
  O  O281  1  0.332494  0.332629  0.595474  1
  O  O282  1  0.225656  0.385418  0.581448  1
  O  O283  1  0.274218  0.114765  0.627085  1
  O  O284  1  0.114674  0.274405  0.658854  1
  O  O285  1  0.225610  0.000000  0.627093  1
  O  O286  1  0.332502  0.332649  0.546417  1
  O  O287  1  0.225593  0.000000  0.581441  1
  O  O288  1  0.332463  0.123342  0.595469  1
  O  O289  1  0.876601  0.667501  0.703763  1
  O  O290  1  0.376599  0.832649  0.703767  1
  O  O291  1  0.623246  0.832628  0.703768  1
  O  O292  1  0.123244  0.667514  0.703762  1
  O  O293  1  0.876617  0.332653  0.703767  1
  O  O294  1  0.376615  0.167556  0.703764  1
  O  O295  1  0.623268  0.167547  0.703764  1
  O  O296  1  0.123265  0.332653  0.703766  1
  Si  Si297  1  0.896594  0.750060  0.177091  1
  Si  Si298  1  0.749917  0.603403  0.206285  1
  Si  Si299  1  0.896577  0.750037  0.135968  1
  Si  Si300  1  0.749902  0.603381  0.247399  1
  Si  Si301  1  0.896593  0.603397  0.177091  1
  Si  Si302  1  0.749955  0.896784  0.206287  1
  Si  Si303  1  0.896576  0.603373  0.276591  1
  Si  Si304  1  0.749939  0.896764  0.165164  1
  Si  Si305  1  0.396590  0.750139  0.235481  1
  Si  Si306  1  0.603279  0.750130  0.235482  1
  Si  Si307  1  0.396576  0.896784  0.135973  1
  Si  Si308  1  0.603263  0.896771  0.135973  1
  Si  Si309  1  0.396597  0.896802  0.235481  1
  Si  Si310  1  0.603285  0.896796  0.235483  1
  Si  Si311  1  0.396576  0.750121  0.276596  1
  Si  Si312  1  0.603264  0.750107  0.276596  1
  Si  Si313  1  0.249901  0.896774  0.165164  1
  Si  Si314  1  0.103263  0.603381  0.276590  1
  Si  Si315  1  0.103280  0.603398  0.177088  1
  Si  Si316  1  0.249923  0.896786  0.206285  1
  Si  Si317  1  0.103282  0.750063  0.177089  1
  Si  Si318  1  0.249953  0.603411  0.206284  1
  Si  Si319  1  0.103265  0.750045  0.135967  1
  Si  Si320  1  0.249936  0.603397  0.247400  1
  Si  Si321  1  0.896596  0.250123  0.276595  1
  Si  Si322  1  0.749925  0.396793  0.165167  1
  Si  Si323  1  0.749913  0.396772  0.206281  1
  Si  Si324  1  0.896589  0.396763  0.235472  1
  Si  Si325  1  0.749949  0.103374  0.206274  1
  Si  Si326  1  0.896599  0.396787  0.135973  1
  Si  Si327  1  0.749961  0.103394  0.247397  1
  Si  Si328  1  0.896587  0.250100  0.235473  1
  Si  Si329  1  0.603279  0.250041  0.177081  1
  Si  Si330  1  0.396598  0.103412  0.276592  1
  Si  Si331  1  0.603272  0.103381  0.177083  1
  Si  Si332  1  0.396584  0.103394  0.177083  1
  Si  Si333  1  0.603286  0.250068  0.135968  1
  Si  Si334  1  0.396599  0.250075  0.135969  1
  Si  Si335  1  0.603285  0.103406  0.276592  1
  Si  Si336  1  0.396591  0.250058  0.177084  1
  Si  Si337  1  0.249962  0.396801  0.165168  1
  Si  Si338  1  0.103277  0.396771  0.235473  1
  Si  Si339  1  0.249910  0.103383  0.206275  1
  Si  Si340  1  0.103287  0.396788  0.135972  1
  Si  Si341  1  0.249921  0.103396  0.247396  1
  Si  Si342  1  0.103275  0.250110  0.235474  1
  Si  Si343  1  0.249956  0.396787  0.206283  1
  Si  Si344  1  0.103284  0.250124  0.276595  1
  Si  Si345  1  0.896594  0.750060  0.376084  1
  Si  Si346  1  0.749917  0.603403  0.405278  1
  Si  Si347  1  0.896577  0.750037  0.334961  1
  Si  Si348  1  0.749902  0.603381  0.446393  1
  Si  Si349  1  0.896593  0.603397  0.376084  1
  Si  Si350  1  0.749955  0.896784  0.405280  1
  Si  Si351  1  0.896576  0.603373  0.475585  1
  Si  Si352  1  0.749939  0.896764  0.364158  1
  Si  Si353  1  0.396590  0.750139  0.434475  1
  Si  Si354  1  0.603279  0.750130  0.434476  1
  Si  Si355  1  0.396576  0.896784  0.334966  1
  Si  Si356  1  0.603263  0.896771  0.334966  1
  Si  Si357  1  0.396597  0.896802  0.434475  1
  Si  Si358  1  0.603285  0.896796  0.434477  1
  Si  Si359  1  0.396576  0.750121  0.475590  1
  Si  Si360  1  0.603264  0.750107  0.475590  1
  Si  Si361  1  0.249901  0.896774  0.364157  1
  Si  Si362  1  0.103263  0.603381  0.475584  1
  Si  Si363  1  0.103280  0.603398  0.376082  1
  Si  Si364  1  0.249923  0.896786  0.405278  1
  Si  Si365  1  0.103282  0.750063  0.376082  1
  Si  Si366  1  0.249953  0.603411  0.405277  1
  Si  Si367  1  0.103265  0.750045  0.334960  1
  Si  Si368  1  0.249936  0.603397  0.446393  1
  Si  Si369  1  0.896596  0.250123  0.475589  1
  Si  Si370  1  0.749925  0.396793  0.364160  1
  Si  Si371  1  0.749913  0.396772  0.405275  1
  Si  Si372  1  0.896589  0.396763  0.434466  1
  Si  Si373  1  0.749949  0.103374  0.405268  1
  Si  Si374  1  0.896599  0.396787  0.334966  1
  Si  Si375  1  0.749961  0.103394  0.446390  1
  Si  Si376  1  0.896587  0.250100  0.434466  1
  Si  Si377  1  0.603279  0.250041  0.376075  1
  Si  Si378  1  0.396598  0.103412  0.475585  1
  Si  Si379  1  0.603272  0.103381  0.376076  1
  Si  Si380  1  0.396584  0.103394  0.376077  1
  Si  Si381  1  0.603286  0.250068  0.334962  1
  Si  Si382  1  0.396599  0.250075  0.334962  1
  Si  Si383  1  0.603285  0.103406  0.475585  1
  Si  Si384  1  0.396591  0.250058  0.376077  1
  Si  Si385  1  0.249962  0.396801  0.364161  1
  Si  Si386  1  0.103277  0.396771  0.434466  1
  Si  Si387  1  0.249910  0.103383  0.405268  1
  Si  Si388  1  0.103287  0.396788  0.334965  1
  Si  Si389  1  0.249921  0.103396  0.446389  1
  Si  Si390  1  0.103275  0.250110  0.434467  1
  Si  Si391  1  0.249956  0.396787  0.405277  1
  Si  Si392  1  0.103284  0.250124  0.475588  1
  Si  Si393  1  0.896594  0.750060  0.575077  1
  Si  Si394  1  0.749917  0.603403  0.604272  1
  Si  Si395  1  0.896577  0.750037  0.533955  1
  Si  Si396  1  0.749902  0.603381  0.645386  1
  Si  Si397  1  0.896593  0.603397  0.575078  1
  Si  Si398  1  0.749955  0.896784  0.604274  1
  Si  Si399  1  0.896576  0.603373  0.674578  1
  Si  Si400  1  0.749939  0.896764  0.563151  1
  Si  Si401  1  0.396590  0.750139  0.633468  1
  Si  Si402  1  0.603279  0.750130  0.633469  1
  Si  Si403  1  0.396576  0.896784  0.533959  1
  Si  Si404  1  0.603263  0.896771  0.533960  1
  Si  Si405  1  0.396597  0.896802  0.633468  1
  Si  Si406  1  0.603285  0.896796  0.633470  1
  Si  Si407  1  0.396576  0.750121  0.674583  1
  Si  Si408  1  0.603264  0.750107  0.674583  1
  Si  Si409  1  0.249901  0.896774  0.563150  1
  Si  Si410  1  0.103263  0.603381  0.674577  1
  Si  Si411  1  0.103280  0.603398  0.575075  1
  Si  Si412  1  0.249923  0.896786  0.604271  1
  Si  Si413  1  0.103282  0.750063  0.575076  1
  Si  Si414  1  0.249953  0.603411  0.604271  1
  Si  Si415  1  0.103265  0.750045  0.533954  1
  Si  Si416  1  0.249936  0.603397  0.645386  1
  Si  Si417  1  0.896596  0.250123  0.674582  1
  Si  Si418  1  0.749925  0.396793  0.563154  1
  Si  Si419  1  0.749913  0.396772  0.604268  1
  Si  Si420  1  0.896589  0.396763  0.633459  1
  Si  Si421  1  0.749949  0.103374  0.604261  1
  Si  Si422  1  0.896599  0.396787  0.533959  1
  Si  Si423  1  0.749961  0.103394  0.645384  1
  Si  Si424  1  0.896587  0.250100  0.633459  1
  Si  Si425  1  0.603279  0.250041  0.575068  1
  Si  Si426  1  0.396598  0.103412  0.674578  1
  Si  Si427  1  0.603272  0.103381  0.575070  1
  Si  Si428  1  0.396584  0.103394  0.575070  1
  Si  Si429  1  0.603286  0.250068  0.533955  1
  Si  Si430  1  0.396599  0.250075  0.533955  1
  Si  Si431  1  0.603285  0.103406  0.674579  1
  Si  Si432  1  0.396591  0.250058  0.575070  1
  Si  Si433  1  0.249962  0.396801  0.563154  1
  Si  Si434  1  0.103277  0.396771  0.633459  1
  Si  Si435  1  0.249910  0.103383  0.604262  1
  Si  Si436  1  0.103287  0.396788  0.533958  1
  Si  Si437  1  0.249921  0.103396  0.645383  1
  Si  Si438  1  0.103275  0.250110  0.633460  1
  Si  Si439  1  0.249956  0.396787  0.604270  1
  Si  Si440  1  0.103284  0.250124  0.674582  1
  H  H441  1  0.876601  0.667501  0.094726  1
  H  H442  1  0.376599  0.832649  0.094730  1
  H  H443  1  0.623246  0.832628  0.094730  1
  H  H444  1  0.123244  0.667514  0.094725  1
  H  H445  1  0.876617  0.332653  0.094730  1
  H  H446  1  0.376615  0.167556  0.094727  1
  H  H447  1  0.623268  0.167547  0.094727  1
  H  H448  1  0.123265  0.332653  0.094729  1
  H  H449  1  0.876601  0.667501  0.715821  1
  H  H450  1  0.376599  0.832649  0.715824  1
  H  H451  1  0.623246  0.832628  0.715825  1
  H  H452  1  0.123244  0.667514  0.715820  1
  H  H453  1  0.876617  0.332653  0.715824  1
  H  H454  1  0.376615  0.167556  0.715821  1
  H  H455  1  0.623268  0.167547  0.715821  1
  H  H456  1  0.123265  0.332653  0.715823  1
