# generated using pymatgen
data_Si18H2O37
_symmetry_space_group_name_H-M   'P 1'
_cell_length_a   7.41091504
_cell_length_b   19.41922516
_cell_length_c   71.32015907
_cell_angle_alpha   45.48695767
_cell_angle_beta   90.00000000
_cell_angle_gamma   81.17708502
_symmetry_Int_Tables_number   1
_chemical_formula_structural   Si18H2O37
_chemical_formula_sum   'Si72 H8 O148'
_cell_volume   7147.83882295
_cell_formula_units_Z   4
loop_
 _symmetry_equiv_pos_site_id
 _symmetry_equiv_pos_as_xyz
  1  'x, y, z'
loop_
 _atom_site_type_symbol
 _atom_site_label
 _atom_site_symmetry_multiplicity
 _atom_site_fract_x
 _atom_site_fract_y
 _atom_site_fract_z
 _atom_site_occupancy
  O  O1  1  0.104867  0.828247  0.112099  1
  O  O2  1  0.104951  0.328227  0.112098  1
  O  O3  1  0.357324  0.681431  0.150034  1
  O  O4  1  0.357434  0.181410  0.150036  1
  O  O5  1  0.642467  0.315299  0.219908  1
  O  O6  1  0.642548  0.815280  0.219914  1
  O  O7  1  0.642675  0.315339  0.269223  1
  O  O8  1  0.642687  0.815318  0.269226  1
  O  O9  1  0.357117  0.681434  0.199335  1
  O  O10  1  0.357165  0.181411  0.199340  1
  O  O11  1  0.499826  0.498367  0.183644  1
  O  O12  1  0.499928  0.998336  0.183648  1
  O  O13  1  0.499489  0.498348  0.235614  1
  O  O14  1  0.499524  0.998316  0.235620  1
  O  O15  1  0.710565  0.621107  0.153035  1
  O  O16  1  0.710698  0.121077  0.153050  1
  O  O17  1  0.289170  0.375611  0.199883  1
  O  O18  1  0.289287  0.875578  0.199880  1
  O  O19  1  0.289346  0.375841  0.266195  1
  O  O20  1  0.289387  0.875808  0.266207  1
  O  O21  1  0.710332  0.621063  0.219391  1
  O  O22  1  0.710397  0.121030  0.219389  1
  O  O23  1  0.587610  0.602029  0.189849  1
  O  O24  1  0.587627  0.101986  0.189857  1
  O  O25  1  0.412175  0.394550  0.229435  1
  O  O26  1  0.412172  0.894526  0.229438  1
  O  O27  1  0.027875  0.660043  0.150586  1
  O  O28  1  0.027999  0.160051  0.150584  1
  O  O29  1  0.971965  0.336562  0.212342  1
  O  O30  1  0.972054  0.836570  0.212340  1
  O  O31  1  0.972312  0.336499  0.268687  1
  O  O32  1  0.972310  0.836528  0.268688  1
  O  O33  1  0.027614  0.660045  0.206933  1
  O  O34  1  0.027658  0.160071  0.206924  1
  O  O35  1  0.104867  0.828247  0.302989  1
  O  O36  1  0.104951  0.328227  0.302987  1
  O  O37  1  0.894914  0.168426  0.238050  1
  O  O38  1  0.894976  0.668406  0.238060  1
  O  O39  1  0.894995  0.168422  0.116277  1
  O  O40  1  0.895007  0.668418  0.116276  1
  O  O41  1  0.104626  0.828238  0.181208  1
  O  O42  1  0.104674  0.328231  0.181211  1
  O  O43  1  0.118025  0.754795  0.160674  1
  O  O44  1  0.118150  0.254819  0.160667  1
  O  O45  1  0.881589  0.241833  0.258595  1
  O  O46  1  0.881679  0.741865  0.258591  1
  O  O47  1  -0.000000  0.498304  0.165584  1
  O  O48  1  0.000000  0.006033  0.164109  1
  O  O49  1  -0.000000  0.498282  0.253698  1
  O  O50  1  -0.000000  0.998325  0.253690  1
  O  O51  1  0.357324  0.681431  0.340923  1
  O  O52  1  0.357434  0.181410  0.340925  1
  O  O53  1  0.642467  0.315299  0.410798  1
  O  O54  1  0.642548  0.815280  0.410803  1
  O  O55  1  0.642675  0.315339  0.460113  1
  O  O56  1  0.642687  0.815318  0.460115  1
  O  O57  1  0.357117  0.681434  0.390224  1
  O  O58  1  0.357165  0.181411  0.390229  1
  O  O59  1  0.499826  0.498367  0.374533  1
  O  O60  1  0.499928  0.998336  0.374538  1
  O  O61  1  0.499489  0.498348  0.426504  1
  O  O62  1  0.499524  0.998316  0.426510  1
  O  O63  1  0.710565  0.621107  0.343925  1
  O  O64  1  0.710698  0.121077  0.343939  1
  O  O65  1  0.289170  0.375611  0.390772  1
  O  O66  1  0.289287  0.875578  0.390769  1
  O  O67  1  0.289346  0.375841  0.457085  1
  O  O68  1  0.289387  0.875808  0.457096  1
  O  O69  1  0.710332  0.621063  0.410280  1
  O  O70  1  0.710397  0.121030  0.410279  1
  O  O71  1  0.587610  0.602029  0.380738  1
  O  O72  1  0.587627  0.101986  0.380747  1
  O  O73  1  0.412175  0.394550  0.420325  1
  O  O74  1  0.412172  0.894526  0.420327  1
  O  O75  1  0.027875  0.660043  0.341475  1
  O  O76  1  0.027999  0.160051  0.341474  1
  O  O77  1  0.971965  0.336562  0.403232  1
  O  O78  1  0.972054  0.836570  0.403230  1
  O  O79  1  0.972312  0.336499  0.459577  1
  O  O80  1  0.972310  0.836528  0.459577  1
  O  O81  1  0.027614  0.660045  0.397823  1
  O  O82  1  0.027658  0.160071  0.397813  1
  O  O83  1  0.104867  0.828247  0.493878  1
  O  O84  1  0.104951  0.328227  0.493877  1
  O  O85  1  0.894914  0.168426  0.428940  1
  O  O86  1  0.894976  0.668406  0.428949  1
  O  O87  1  0.894995  0.168422  0.307166  1
  O  O88  1  0.895007  0.668418  0.307166  1
  O  O89  1  0.104626  0.828238  0.372097  1
  O  O90  1  0.104674  0.328231  0.372101  1
  O  O91  1  0.118025  0.754795  0.351563  1
  O  O92  1  0.118150  0.254819  0.351557  1
  O  O93  1  0.881589  0.241833  0.449484  1
  O  O94  1  0.881679  0.741865  0.449480  1
  O  O95  1  -0.000000  0.498304  0.356473  1
  O  O96  1  -0.000000  0.006033  0.354998  1
  O  O97  1  -0.000000  0.498282  0.444588  1
  O  O98  1  -0.000000  0.998325  0.444579  1
  O  O99  1  0.357324  0.681431  0.531812  1
  O  O100  1  0.357434  0.181410  0.531815  1
  O  O101  1  0.642467  0.315299  0.601687  1
  O  O102  1  0.642548  0.815280  0.601693  1
  O  O103  1  0.642675  0.315339  0.651002  1
  O  O104  1  0.642687  0.815318  0.651005  1
  O  O105  1  0.357117  0.681434  0.581113  1
  O  O106  1  0.357165  0.181411  0.581118  1
  O  O107  1  0.499826  0.498367  0.565423  1
  O  O108  1  0.499928  0.998336  0.565427  1
  O  O109  1  0.499489  0.498348  0.617393  1
  O  O110  1  0.499524  0.998316  0.617399  1
  O  O111  1  0.710565  0.621107  0.534814  1
  O  O112  1  0.710698  0.121077  0.534829  1
  O  O113  1  0.289170  0.375611  0.581662  1
  O  O114  1  0.289287  0.875578  0.581659  1
  O  O115  1  0.289346  0.375841  0.647974  1
  O  O116  1  0.289387  0.875808  0.647986  1
  O  O117  1  0.710332  0.621063  0.601170  1
  O  O118  1  0.710397  0.121030  0.601168  1
  O  O119  1  0.587610  0.602029  0.571628  1
  O  O120  1  0.587627  0.101986  0.571636  1
  O  O121  1  0.412175  0.394550  0.611214  1
  O  O122  1  0.412172  0.894526  0.611217  1
  O  O123  1  0.027875  0.660043  0.532365  1
  O  O124  1  0.027999  0.160051  0.532363  1
  O  O125  1  0.971965  0.336562  0.594121  1
  O  O126  1  0.972054  0.836570  0.594119  1
  O  O127  1  0.972312  0.336499  0.650466  1
  O  O128  1  0.972310  0.836528  0.650467  1
  O  O129  1  0.027614  0.660045  0.588712  1
  O  O130  1  0.027658  0.160071  0.588703  1
  O  O131  1  0.104867  0.828247  0.684768  1
  O  O132  1  0.104951  0.328227  0.684766  1
  O  O133  1  0.894914  0.168426  0.619829  1
  O  O134  1  0.894976  0.668406  0.619839  1
  O  O135  1  0.894995  0.168422  0.498056  1
  O  O136  1  0.895007  0.668418  0.498055  1
  O  O137  1  0.104626  0.828238  0.562987  1
  O  O138  1  0.104674  0.328231  0.562990  1
  O  O139  1  0.118025  0.754795  0.542453  1
  O  O140  1  0.118150  0.254819  0.542446  1
  O  O141  1  0.881589  0.241833  0.640374  1
  O  O142  1  0.881679  0.741865  0.640370  1
  O  O143  1  -0.000000  0.498304  0.547363  1
  O  O144  1  -0.000000  0.006033  0.545888  1
  O  O145  1  -0.000000  0.498282  0.635477  1
  O  O146  1  -0.000000  0.998325  0.635469  1
  O  O147  1  0.894995  0.168422  0.688945  1
  O  O148  1  0.895007  0.668418  0.688944  1
  Si  Si149  1  0.541666  0.602623  0.168177  1
  Si  Si150  1  0.541758  0.102590  0.168183  1
  Si  Si151  1  0.458086  0.394074  0.207969  1
  Si  Si152  1  0.458154  0.894049  0.207973  1
  Si  Si153  1  0.458206  0.394025  0.251090  1
  Si  Si154  1  0.458210  0.894001  0.251094  1
  Si  Si155  1  0.541458  0.602612  0.211291  1
  Si  Si156  1  0.541492  0.102578  0.211297  1
  Si  Si157  1  0.149201  0.734027  0.143024  1
  Si  Si158  1  0.149330  0.234028  0.143022  1
  Si  Si159  1  0.850522  0.262628  0.233011  1
  Si  Si160  1  0.850615  0.762636  0.233010  1
  Si  Si161  1  0.850713  0.262626  0.276241  1
  Si  Si162  1  0.850747  0.762645  0.276240  1
  Si  Si163  1  0.149002  0.734014  0.186256  1
  Si  Si164  1  0.149078  0.234024  0.186253  1
  Si  Si165  1  0.908349  0.610333  0.146464  1
  Si  Si166  1  0.908444  0.110341  0.146465  1
  Si  Si167  1  0.091348  0.386310  0.189225  1
  Si  Si168  1  0.091423  0.886321  0.189220  1
  Si  Si169  1  0.091520  0.386341  0.272798  1
  Si  Si170  1  0.091542  0.886362  0.272799  1
  Si  Si171  1  0.908202  0.610318  0.230049  1
  Si  Si172  1  0.908243  0.110336  0.230040  1
  Si  Si173  1  0.541666  0.602623  0.359066  1
  Si  Si174  1  0.541758  0.102590  0.359073  1
  Si  Si175  1  0.458086  0.394074  0.398858  1
  Si  Si176  1  0.458154  0.894049  0.398862  1
  Si  Si177  1  0.458206  0.394025  0.441980  1
  Si  Si178  1  0.458210  0.894001  0.441983  1
  Si  Si179  1  0.541458  0.602612  0.402181  1
  Si  Si180  1  0.541492  0.102578  0.402187  1
  Si  Si181  1  0.149201  0.734027  0.333913  1
  Si  Si182  1  0.149330  0.234028  0.333912  1
  Si  Si183  1  0.850522  0.262628  0.423900  1
  Si  Si184  1  0.850615  0.762636  0.423899  1
  Si  Si185  1  0.850713  0.262626  0.467131  1
  Si  Si186  1  0.850747  0.762645  0.467130  1
  Si  Si187  1  0.149002  0.734014  0.377146  1
  Si  Si188  1  0.149078  0.234024  0.377143  1
  Si  Si189  1  0.908349  0.610333  0.337353  1
  Si  Si190  1  0.908444  0.110341  0.337355  1
  Si  Si191  1  0.091348  0.386310  0.380115  1
  Si  Si192  1  0.091423  0.886321  0.380110  1
  Si  Si193  1  0.091520  0.386341  0.463687  1
  Si  Si194  1  0.091542  0.886362  0.463688  1
  Si  Si195  1  0.908202  0.610318  0.420939  1
  Si  Si196  1  0.908243  0.110336  0.420929  1
  Si  Si197  1  0.541666  0.602623  0.549956  1
  Si  Si198  1  0.541758  0.102590  0.549962  1
  Si  Si199  1  0.458086  0.394074  0.589748  1
  Si  Si200  1  0.458154  0.894049  0.589752  1
  Si  Si201  1  0.458206  0.394025  0.632869  1
  Si  Si202  1  0.458210  0.894001  0.632873  1
  Si  Si203  1  0.541458  0.602612  0.593070  1
  Si  Si204  1  0.541492  0.102578  0.593076  1
  Si  Si205  1  0.149201  0.734027  0.524803  1
  Si  Si206  1  0.149330  0.234028  0.524801  1
  Si  Si207  1  0.850522  0.262628  0.614790  1
  Si  Si208  1  0.850615  0.762636  0.614789  1
  Si  Si209  1  0.850713  0.262626  0.658020  1
  Si  Si210  1  0.850747  0.762645  0.658019  1
  Si  Si211  1  0.149002  0.734014  0.568035  1
  Si  Si212  1  0.149078  0.234024  0.568032  1
  Si  Si213  1  0.908349  0.610333  0.528242  1
  Si  Si214  1  0.908444  0.110341  0.528244  1
  Si  Si215  1  0.091348  0.386310  0.571004  1
  Si  Si216  1  0.091423  0.886321  0.570999  1
  Si  Si217  1  0.091520  0.386341  0.654577  1
  Si  Si218  1  0.091542  0.886362  0.654578  1
  Si  Si219  1  0.908202  0.610318  0.611828  1
  Si  Si220  1  0.908243  0.110336  0.611819  1
  H  H221  1  0.104867  0.828247  0.099480  1
  H  H222  1  0.104951  0.328227  0.099479  1
  H  H223  1  0.894995  0.168422  0.103658  1
  H  H224  1  0.895007  0.668418  0.103657  1
  H  H225  1  0.104867  0.828247  0.697387  1
  H  H226  1  0.104951  0.328227  0.697385  1
  H  H227  1  0.894995  0.168422  0.701564  1
  H  H228  1  0.895007  0.668418  0.701564  1
