# generated using pymatgen
data_Si12H2O25
_symmetry_space_group_name_H-M   'P 1'
_cell_length_a   7.41091504
_cell_length_b   19.41922516
_cell_length_c   57.70589173
_cell_angle_alpha   45.48695767
_cell_angle_beta   90.00000000
_cell_angle_gamma   81.17708502
_symmetry_Int_Tables_number   1
_chemical_formula_structural   Si12H2O25
_chemical_formula_sum   'Si48 H8 O100'
_cell_volume   5783.39166095
_cell_formula_units_Z   4
loop_
 _symmetry_equiv_pos_site_id
 _symmetry_equiv_pos_as_xyz
  1  'x, y, z'
loop_
 _atom_site_type_symbol
 _atom_site_label
 _atom_site_symmetry_multiplicity
 _atom_site_fract_x
 _atom_site_fract_y
 _atom_site_fract_z
 _atom_site_occupancy
  O  O1  1  0.104867  0.828247  0.138546  1
  O  O2  1  0.104951  0.328227  0.138544  1
  O  O3  1  0.357324  0.681431  0.185430  1
  O  O4  1  0.357434  0.181410  0.185433  1
  O  O5  1  0.642467  0.315299  0.271790  1
  O  O6  1  0.642548  0.815280  0.271797  1
  O  O7  1  0.642675  0.315339  0.332740  1
  O  O8  1  0.642687  0.815318  0.332743  1
  O  O9  1  0.357117  0.681434  0.246363  1
  O  O10  1  0.357165  0.181411  0.246369  1
  O  O11  1  0.499826  0.498367  0.226970  1
  O  O12  1  0.499928  0.998336  0.226976  1
  O  O13  1  0.499489  0.498348  0.291201  1
  O  O14  1  0.499524  0.998316  0.291209  1
  O  O15  1  0.710565  0.621107  0.189140  1
  O  O16  1  0.710698  0.121077  0.189158  1
  O  O17  1  0.289170  0.375611  0.247040  1
  O  O18  1  0.289287  0.875578  0.247036  1
  O  O19  1  0.289346  0.375841  0.328997  1
  O  O20  1  0.289387  0.875808  0.329012  1
  O  O21  1  0.710332  0.621063  0.271151  1
  O  O22  1  0.710397  0.121030  0.271149  1
  O  O23  1  0.587610  0.602029  0.234639  1
  O  O24  1  0.587627  0.101986  0.234649  1
  O  O25  1  0.412175  0.394550  0.283565  1
  O  O26  1  0.412172  0.894526  0.283568  1
  O  O27  1  0.027875  0.660043  0.186113  1
  O  O28  1  0.027999  0.160051  0.186111  1
  O  O29  1  0.971965  0.336562  0.262439  1
  O  O30  1  0.972054  0.836570  0.262436  1
  O  O31  1  0.972312  0.336499  0.332077  1
  O  O32  1  0.972310  0.836528  0.332078  1
  O  O33  1  0.027614  0.660045  0.255754  1
  O  O34  1  0.027658  0.160071  0.255742  1
  O  O35  1  0.104867  0.828247  0.374471  1
  O  O36  1  0.104951  0.328227  0.374469  1
  O  O37  1  0.894914  0.168426  0.294212  1
  O  O38  1  0.894976  0.668406  0.294224  1
  O  O39  1  0.894995  0.168422  0.143709  1
  O  O40  1  0.895007  0.668418  0.143709  1
  O  O41  1  0.104626  0.828238  0.223959  1
  O  O42  1  0.104674  0.328231  0.223964  1
  O  O43  1  0.118025  0.754795  0.198581  1
  O  O44  1  0.118150  0.254819  0.198573  1
  O  O45  1  0.881589  0.241833  0.319604  1
  O  O46  1  0.881679  0.741865  0.319599  1
  O  O47  1  -0.000000  0.498304  0.204649  1
  O  O48  1  -0.000000  0.006033  0.202826  1
  O  O49  1  -0.000000  0.498282  0.313552  1
  O  O50  1  -0.000000  0.998325  0.313542  1
  O  O51  1  0.357324  0.681431  0.421355  1
  O  O52  1  0.357434  0.181410  0.421358  1
  O  O53  1  0.642467  0.315299  0.507715  1
  O  O54  1  0.642548  0.815280  0.507722  1
  O  O55  1  0.642675  0.315339  0.568665  1
  O  O56  1  0.642687  0.815318  0.568668  1
  O  O57  1  0.357117  0.681434  0.482288  1
  O  O58  1  0.357165  0.181411  0.482294  1
  O  O59  1  0.499826  0.498367  0.462895  1
  O  O60  1  0.499928  0.998336  0.462901  1
  O  O61  1  0.499489  0.498348  0.527126  1
  O  O62  1  0.499524  0.998316  0.527134  1
  O  O63  1  0.710565  0.621107  0.425065  1
  O  O64  1  0.710698  0.121077  0.425083  1
  O  O65  1  0.289170  0.375611  0.482965  1
  O  O66  1  0.289287  0.875578  0.482961  1
  O  O67  1  0.289346  0.375841  0.564922  1
  O  O68  1  0.289387  0.875808  0.564937  1
  O  O69  1  0.710332  0.621063  0.507076  1
  O  O70  1  0.710397  0.121030  0.507074  1
  O  O71  1  0.587610  0.602029  0.470564  1
  O  O72  1  0.587627  0.101986  0.470574  1
  O  O73  1  0.412175  0.394550  0.519490  1
  O  O74  1  0.412172  0.894526  0.519493  1
  O  O75  1  0.027875  0.660043  0.422038  1
  O  O76  1  0.027999  0.160051  0.422036  1
  O  O77  1  0.971965  0.336562  0.498364  1
  O  O78  1  0.972054  0.836570  0.498361  1
  O  O79  1  0.972312  0.336499  0.568002  1
  O  O80  1  0.972310  0.836528  0.568003  1
  O  O81  1  0.027614  0.660045  0.491679  1
  O  O82  1  0.027658  0.160071  0.491667  1
  O  O83  1  0.104867  0.828247  0.610396  1
  O  O84  1  0.104951  0.328227  0.610395  1
  O  O85  1  0.894914  0.168426  0.530138  1
  O  O86  1  0.894976  0.668406  0.530149  1
  O  O87  1  0.894995  0.168422  0.379635  1
  O  O88  1  0.895007  0.668418  0.379634  1
  O  O89  1  0.104626  0.828238  0.459884  1
  O  O90  1  0.104674  0.328231  0.459889  1
  O  O91  1  0.118025  0.754795  0.434506  1
  O  O92  1  0.118150  0.254819  0.434498  1
  O  O93  1  0.881589  0.241833  0.555529  1
  O  O94  1  0.881679  0.741865  0.555524  1
  O  O95  1  -0.000000  0.498304  0.440574  1
  O  O96  1  -0.000000  0.006033  0.438751  1
  O  O97  1  -0.000000  0.498282  0.549477  1
  O  O98  1  -0.000000  0.998325  0.549467  1
  O  O99  1  0.894995  0.168422  0.615560  1
  O  O100  1  0.895007  0.668418  0.615559  1
  Si  Si101  1  0.541666  0.602623  0.207854  1
  Si  Si102  1  0.541758  0.102590  0.207862  1
  Si  Si103  1  0.458086  0.394074  0.257034  1
  Si  Si104  1  0.458154  0.894049  0.257039  1
  Si  Si105  1  0.458206  0.394025  0.310329  1
  Si  Si106  1  0.458210  0.894001  0.310333  1
  Si  Si107  1  0.541458  0.602612  0.261140  1
  Si  Si108  1  0.541492  0.102578  0.261148  1
  Si  Si109  1  0.149201  0.734027  0.176767  1
  Si  Si110  1  0.149330  0.234028  0.176765  1
  Si  Si111  1  0.850522  0.262628  0.287984  1
  Si  Si112  1  0.850615  0.762636  0.287983  1
  Si  Si113  1  0.850713  0.262626  0.341413  1
  Si  Si114  1  0.850747  0.762645  0.341412  1
  Si  Si115  1  0.149002  0.734014  0.230199  1
  Si  Si116  1  0.149078  0.234024  0.230195  1
  Si  Si117  1  0.908349  0.610333  0.181018  1
  Si  Si118  1  0.908444  0.110341  0.181020  1
  Si  Si119  1  0.091348  0.386310  0.233868  1
  Si  Si120  1  0.091423  0.886321  0.233862  1
  Si  Si121  1  0.091520  0.386341  0.337158  1
  Si  Si122  1  0.091542  0.886362  0.337159  1
  Si  Si123  1  0.908202  0.610318  0.284324  1
  Si  Si124  1  0.908243  0.110336  0.284312  1
  Si  Si125  1  0.541666  0.602623  0.443779  1
  Si  Si126  1  0.541758  0.102590  0.443787  1
  Si  Si127  1  0.458086  0.394074  0.492959  1
  Si  Si128  1  0.458154  0.894049  0.492964  1
  Si  Si129  1  0.458206  0.394025  0.546254  1
  Si  Si130  1  0.458210  0.894001  0.546258  1
  Si  Si131  1  0.541458  0.602612  0.497066  1
  Si  Si132  1  0.541492  0.102578  0.497073  1
  Si  Si133  1  0.149201  0.734027  0.412692  1
  Si  Si134  1  0.149330  0.234028  0.412690  1
  Si  Si135  1  0.850522  0.262628  0.523909  1
  Si  Si136  1  0.850615  0.762636  0.523908  1
  Si  Si137  1  0.850713  0.262626  0.577339  1
  Si  Si138  1  0.850747  0.762645  0.577337  1
  Si  Si139  1  0.149002  0.734014  0.466124  1
  Si  Si140  1  0.149078  0.234024  0.466120  1
  Si  Si141  1  0.908349  0.610333  0.416943  1
  Si  Si142  1  0.908444  0.110341  0.416945  1
  Si  Si143  1  0.091348  0.386310  0.469793  1
  Si  Si144  1  0.091423  0.886321  0.469787  1
  Si  Si145  1  0.091520  0.386341  0.573083  1
  Si  Si146  1  0.091542  0.886362  0.573084  1
  Si  Si147  1  0.908202  0.610318  0.520249  1
  Si  Si148  1  0.908243  0.110336  0.520237  1
  H  H149  1  0.104867  0.828247  0.122950  1
  H  H150  1  0.104951  0.328227  0.122948  1
  H  H151  1  0.894995  0.168422  0.128113  1
  H  H152  1  0.895007  0.668418  0.128112  1
  H  H153  1  0.104867  0.828247  0.625993  1
  H  H154  1  0.104951  0.328227  0.625991  1
  H  H155  1  0.894995  0.168422  0.631156  1
  H  H156  1  0.895007  0.668418  0.631155  1
