# generated using pymatgen
data_Si9H2O19
_symmetry_space_group_name_H-M   'P 1'
_cell_length_a   12.47604033
_cell_length_b   18.64366065
_cell_length_c   59.88736761
_cell_angle_alpha   134.83717606
_cell_angle_beta   114.84200000
_cell_angle_gamma   72.76914432
_symmetry_Int_Tables_number   1
_chemical_formula_structural   Si9H2O19
_chemical_formula_sum   'Si72 H16 O152'
_cell_volume   8963.77673135
_cell_formula_units_Z   8
loop_
 _symmetry_equiv_pos_site_id
 _symmetry_equiv_pos_as_xyz
  1  'x, y, z'
loop_
 _atom_site_type_symbol
 _atom_site_label
 _atom_site_symmetry_multiplicity
 _atom_site_fract_x
 _atom_site_fract_y
 _atom_site_fract_z
 _atom_site_occupancy
  O  O1  1  0.991432  0.860028  0.196097  1
  O  O2  1  0.904668  0.808682  0.139739  1
  O  O3  1  0.094852  0.691683  0.173137  1
  O  O4  1  0.770341  0.864791  0.172452  1
  O  O5  1  0.554026  0.814866  0.138995  1
  O  O6  1  0.445888  0.685501  0.174171  1
  O  O7  1  0.642539  0.864046  0.196381  1
  O  O8  1  0.598299  0.822325  0.225025  1
  O  O9  1  0.189445  0.853201  0.232155  1
  O  O10  1  0.998904  0.783292  0.218399  1
  O  O11  1  0.810389  0.353509  0.235922  1
  O  O12  1  0.991920  0.140284  0.257545  1
  O  O13  1  0.904409  0.191549  0.223696  1
  O  O14  1  0.770781  0.135378  0.231914  1
  O  O15  1  0.554642  0.185680  0.220483  1
  O  O16  1  0.642902  0.136265  0.256193  1
  O  O17  1  0.401803  0.322410  0.229589  1
  O  O18  1  0.617700  0.000000  0.194786  1
  O  O19  1  0.666421  0.000000  0.257648  1
  O  O20  1  0.897442  0.000000  0.195219  1
  O  O21  1  0.904697  0.691427  0.223726  1
  O  O22  1  0.401601  0.822383  0.229589  1
  O  O23  1  0.554384  0.685590  0.220417  1
  O  O24  1  0.810249  0.853375  0.236011  1
  O  O25  1  0.991048  0.359846  0.196110  1
  O  O26  1  0.991611  0.640393  0.257660  1
  O  O27  1  0.897659  0.500066  0.195311  1
  O  O28  1  0.770151  0.364728  0.172368  1
  O  O29  1  0.770611  0.635417  0.231890  1
  O  O30  1  0.617619  0.500193  0.194731  1
  O  O31  1  0.642379  0.364093  0.196342  1
  O  O32  1  0.642739  0.636246  0.256151  1
  O  O33  1  0.666466  0.500167  0.257631  1
  O  O34  1  0.189512  0.352946  0.231995  1
  O  O35  1  0.904829  0.308768  0.139782  1
  O  O36  1  0.094383  0.191459  0.173021  1
  O  O37  1  0.553874  0.314859  0.138949  1
  O  O38  1  0.446155  0.185416  0.174200  1
  O  O39  1  0.598579  0.322306  0.225024  1
  O  O40  1  -0.000000  0.283319  0.218582  1
  O  O41  1  0.991432  0.860028  0.415601  1
  O  O42  1  0.401527  0.677835  0.307595  1
  O  O43  1  0.904668  0.808682  0.359244  1
  O  O44  1  0.094852  0.691683  0.392642  1
  O  O45  1  0.770341  0.864791  0.391956  1
  O  O46  1  0.554026  0.814866  0.358499  1
  O  O47  1  0.445888  0.685501  0.393676  1
  O  O48  1  0.642539  0.864046  0.415886  1
  O  O49  1  0.598299  0.822325  0.444529  1
  O  O50  1  0.189445  0.853201  0.451660  1
  O  O51  1  0.998904  0.783292  0.437903  1
  O  O52  1  0.008689  0.359672  0.274650  1
  O  O53  1  0.009199  0.640634  0.336315  1
  O  O54  1  0.101681  0.500220  0.337055  1
  O  O55  1  0.229414  0.364975  0.300688  1
  O  O56  1  0.229828  0.635400  0.360141  1
  O  O57  1  0.382561  0.500083  0.337878  1
  O  O58  1  0.357184  0.364090  0.276447  1
  O  O59  1  0.357469  0.636135  0.336222  1
  O  O60  1  0.332779  0.500103  0.274899  1
  O  O61  1  0.810389  0.353509  0.455426  1
  O  O62  1  0.810341  0.646825  0.300440  1
  O  O63  1  0.991920  0.140284  0.477050  1
  O  O64  1  0.094905  0.308711  0.308601  1
  O  O65  1  0.904409  0.191549  0.443201  1
  O  O66  1  0.770781  0.135378  0.451419  1
  O  O67  1  0.445414  0.314601  0.312175  1
  O  O68  1  0.554642  0.185680  0.439988  1
  O  O69  1  0.642902  0.136265  0.475697  1
  O  O70  1  0.597905  0.177844  0.303030  1
  O  O71  1  0.401803  0.322410  0.449094  1
  O  O72  1  0.189267  0.147154  0.296767  1
  O  O73  1  0.617700  0.000000  0.414291  1
  O  O74  1  0.998430  0.216723  0.313415  1
  O  O75  1  0.666421  0.000000  0.477153  1
  O  O76  1  0.897442  0.000000  0.414724  1
  O  O77  1  0.009030  0.859473  0.274533  1
  O  O78  1  0.598285  0.678006  0.303089  1
  O  O79  1  0.094650  0.808806  0.308591  1
  O  O80  1  0.904697  0.691427  0.443231  1
  O  O81  1  0.229566  0.864906  0.300732  1
  O  O82  1  0.401601  0.822383  0.449094  1
  O  O83  1  0.445546  0.814582  0.312215  1
  O  O84  1  0.554384  0.685590  0.439922  1
  O  O85  1  0.357299  0.864139  0.276506  1
  O  O86  1  0.810249  0.853375  0.455515  1
  O  O87  1  -0.000000  0.716864  0.313632  1
  O  O88  1  0.991048  0.359846  0.415614  1
  O  O89  1  0.991611  0.640393  0.477165  1
  O  O90  1  0.897659  0.500066  0.414815  1
  O  O91  1  0.770151  0.364728  0.391873  1
  O  O92  1  0.770611  0.635417  0.451394  1
  O  O93  1  0.617619  0.500193  0.414236  1
  O  O94  1  0.642379  0.364093  0.415847  1
  O  O95  1  0.642739  0.636246  0.475655  1
  O  O96  1  0.666466  0.500167  0.477135  1
  O  O97  1  0.189512  0.352946  0.451499  1
  O  O98  1  0.189465  0.647235  0.296701  1
  O  O99  1  0.009501  0.140761  0.336245  1
  O  O100  1  0.904829  0.308768  0.359286  1
  O  O101  1  0.094383  0.191459  0.392526  1
  O  O102  1  0.230001  0.135484  0.360224  1
  O  O103  1  0.553874  0.314859  0.358453  1
  O  O104  1  0.446155  0.185416  0.393705  1
  O  O105  1  0.357569  0.136151  0.336273  1
  O  O106  1  0.401141  0.178034  0.307621  1
  O  O107  1  0.810173  0.146884  0.300539  1
  O  O108  1  0.382595  -0.000000  0.337927  1
  O  O109  1  0.598579  0.322306  0.444529  1
  O  O110  1  0.101432  -0.000000  0.336948  1
  O  O111  1  0.000000  0.283319  0.438086  1
  O  O112  1  0.332883  0.000000  0.274967  1
  O  O113  1  0.401527  0.677835  0.527100  1
  O  O114  1  0.904668  0.808682  0.578748  1
  O  O115  1  0.094852  0.691683  0.612146  1
  O  O116  1  0.554026  0.814866  0.578004  1
  O  O117  1  0.445888  0.685501  0.613180  1
  O  O118  1  0.008689  0.359672  0.494154  1
  O  O119  1  0.009199  0.640634  0.555820  1
  O  O120  1  0.101681  0.500220  0.556560  1
  O  O121  1  0.229414  0.364975  0.520193  1
  O  O122  1  0.229828  0.635400  0.579645  1
  O  O123  1  0.382561  0.500083  0.557382  1
  O  O124  1  0.357184  0.364090  0.495952  1
  O  O125  1  0.357469  0.636135  0.555726  1
  O  O126  1  0.332779  0.500103  0.494403  1
  O  O127  1  0.810341  0.646825  0.519944  1
  O  O128  1  0.094905  0.308711  0.528105  1
  O  O129  1  0.445414  0.314601  0.531679  1
  O  O130  1  0.597905  0.177844  0.522534  1
  O  O131  1  0.189267  0.147154  0.516271  1
  O  O132  1  0.998430  0.216723  0.532920  1
  O  O133  1  0.009030  0.859473  0.494038  1
  O  O134  1  0.598285  0.678006  0.522594  1
  O  O135  1  0.094650  0.808806  0.528095  1
  O  O136  1  0.229566  0.864906  0.520236  1
  O  O137  1  0.445546  0.814582  0.531720  1
  O  O138  1  0.357299  0.864139  0.496011  1
  O  O139  1  -0.000000  0.716864  0.533137  1
  O  O140  1  0.189465  0.647235  0.516206  1
  O  O141  1  0.009501  0.140761  0.555750  1
  O  O142  1  0.904829  0.308768  0.578791  1
  O  O143  1  0.094383  0.191459  0.612030  1
  O  O144  1  0.230001  0.135484  0.579729  1
  O  O145  1  0.553874  0.314859  0.577958  1
  O  O146  1  0.446155  0.185416  0.613209  1
  O  O147  1  0.357569  0.136151  0.555777  1
  O  O148  1  0.401141  0.178034  0.527126  1
  O  O149  1  0.810173  0.146884  0.520044  1
  O  O150  1  0.382595  -0.000000  0.557431  1
  O  O151  1  0.101432  -0.000000  0.556452  1
  O  O152  1  0.332883  0.000000  0.494471  1
  Si  Si153  1  0.070111  0.796665  0.205392  1
  Si  Si154  1  0.677259  0.883516  0.228750  1
  Si  Si155  1  0.891483  0.884035  0.175269  1
  Si  Si156  1  0.642934  0.883949  0.174871  1
  Si  Si157  1  0.499988  0.755631  0.212676  1
  Si  Si158  1  0.322343  0.383440  0.252596  1
  Si  Si159  1  0.929532  0.296578  0.237586  1
  Si  Si160  1  0.891701  0.116111  0.226186  1
  Si  Si161  1  0.643340  0.116403  0.225960  1
  Si  Si162  1  0.929475  0.796343  0.237515  1
  Si  Si163  1  0.322278  0.883516  0.252650  1
  Si  Si164  1  0.891470  0.384041  0.175303  1
  Si  Si165  1  0.891722  0.616113  0.226250  1
  Si  Si166  1  0.642798  0.383926  0.174816  1
  Si  Si167  1  0.643168  0.616376  0.225913  1
  Si  Si168  1  0.677342  0.383562  0.228720  1
  Si  Si169  1  0.070108  0.296474  0.205373  1
  Si  Si170  1  0.500265  0.255647  0.212708  1
  Si  Si171  1  0.929597  0.703677  0.326973  1
  Si  Si172  1  0.070111  0.796665  0.424896  1
  Si  Si173  1  0.677259  0.883516  0.448254  1
  Si  Si174  1  0.891483  0.884035  0.394774  1
  Si  Si175  1  0.642934  0.883949  0.394376  1
  Si  Si176  1  0.499988  0.755631  0.432180  1
  Si  Si177  1  0.107992  0.384154  0.306151  1
  Si  Si178  1  0.108251  0.616248  0.357121  1
  Si  Si179  1  0.356908  0.383906  0.306684  1
  Si  Si180  1  0.357257  0.616327  0.357770  1
  Si  Si181  1  0.322343  0.383440  0.472100  1
  Si  Si182  1  0.322336  0.616739  0.303851  1
  Si  Si183  1  0.499564  0.244634  0.319952  1
  Si  Si184  1  0.070071  0.203603  0.294709  1
  Si  Si185  1  0.929532  0.296578  0.457091  1
  Si  Si186  1  0.677246  0.116769  0.279989  1
  Si  Si187  1  0.891701  0.116111  0.445690  1
  Si  Si188  1  0.643340  0.116403  0.445465  1
  Si  Si189  1  0.107955  0.884081  0.306104  1
  Si  Si190  1  0.070152  0.703761  0.294796  1
  Si  Si191  1  0.929475  0.796343  0.457019  1
  Si  Si192  1  0.322278  0.883516  0.472155  1
  Si  Si193  1  0.357016  0.883897  0.306734  1
  Si  Si194  1  0.499856  0.744622  0.319991  1
  Si  Si195  1  0.891470  0.384041  0.394807  1
  Si  Si196  1  0.891722  0.616113  0.445754  1
  Si  Si197  1  0.642798  0.383926  0.394321  1
  Si  Si198  1  0.643168  0.616376  0.445418  1
  Si  Si199  1  0.677342  0.383562  0.448224  1
  Si  Si200  1  0.677343  0.616800  0.279969  1
  Si  Si201  1  0.929520  0.203835  0.326963  1
  Si  Si202  1  0.070108  0.296474  0.424877  1
  Si  Si203  1  0.322233  0.116823  0.303907  1
  Si  Si204  1  0.357388  0.116323  0.357819  1
  Si  Si205  1  0.108167  0.116221  0.357054  1
  Si  Si206  1  0.500265  0.255647  0.432212  1
  Si  Si207  1  0.929597  0.703677  0.546478  1
  Si  Si208  1  0.107992  0.384154  0.525656  1
  Si  Si209  1  0.108251  0.616248  0.576626  1
  Si  Si210  1  0.356908  0.383906  0.526189  1
  Si  Si211  1  0.357257  0.616327  0.577274  1
  Si  Si212  1  0.322336  0.616739  0.523355  1
  Si  Si213  1  0.499564  0.244634  0.539456  1
  Si  Si214  1  0.070071  0.203603  0.514213  1
  Si  Si215  1  0.677246  0.116769  0.499493  1
  Si  Si216  1  0.107955  0.884081  0.525609  1
  Si  Si217  1  0.070152  0.703761  0.514301  1
  Si  Si218  1  0.357016  0.883897  0.526238  1
  Si  Si219  1  0.499856  0.744622  0.539495  1
  Si  Si220  1  0.677343  0.616800  0.499474  1
  Si  Si221  1  0.929520  0.203835  0.546468  1
  Si  Si222  1  0.322233  0.116823  0.523412  1
  Si  Si223  1  0.357388  0.116323  0.577323  1
  Si  Si224  1  0.108167  0.116221  0.576559  1
  H  H225  1  0.904668  0.808682  0.124711  1
  H  H226  1  0.094852  0.691683  0.158109  1
  H  H227  1  0.554026  0.814866  0.123967  1
  H  H228  1  0.445888  0.685501  0.159143  1
  H  H229  1  0.904829  0.308768  0.124754  1
  H  H230  1  0.094383  0.191459  0.157993  1
  H  H231  1  0.553874  0.314859  0.123921  1
  H  H232  1  0.446155  0.185416  0.159172  1
  H  H233  1  0.904668  0.808682  0.593776  1
  H  H234  1  0.094852  0.691683  0.627174  1
  H  H235  1  0.554026  0.814866  0.593032  1
  H  H236  1  0.445888  0.685501  0.628208  1
  H  H237  1  0.904829  0.308768  0.593819  1
  H  H238  1  0.094383  0.191459  0.627058  1
  H  H239  1  0.553874  0.314859  0.592986  1
  H  H240  1  0.446155  0.185416  0.628237  1
