# generated using pymatgen
data_Si54H2O109
_symmetry_space_group_name_H-M   'P 1'
_cell_length_a   7.15454545
_cell_length_b   7.18682161
_cell_length_c   146.57718248
_cell_angle_alpha   90.00000000
_cell_angle_beta   90.00000000
_cell_angle_gamma   90.00300000
_symmetry_Int_Tables_number   1
_chemical_formula_structural   Si54H2O109
_chemical_formula_sum   'Si108 H4 O218'
_cell_volume   7536.77032361
_cell_formula_units_Z   2
loop_
 _symmetry_equiv_pos_site_id
 _symmetry_equiv_pos_as_xyz
  1  'x, y, z'
loop_
 _atom_site_type_symbol
 _atom_site_label
 _atom_site_symmetry_multiplicity
 _atom_site_fract_x
 _atom_site_fract_y
 _atom_site_fract_z
 _atom_site_occupancy
  O  O1  1  0.171590  0.994364  0.295617  1
  O  O2  1  0.671647  0.994384  0.153737  1
  O  O3  1  0.828132  0.994356  0.295620  1
  O  O4  1  0.328188  0.994374  0.153742  1
  O  O5  1  0.828097  0.994426  0.068643  1
  O  O6  1  0.328197  0.994301  0.210519  1
  O  O7  1  0.171556  0.994434  0.068644  1
  O  O8  1  0.671655  0.994310  0.210524  1
  O  O9  1  0.323550  0.814324  0.309527  1
  O  O10  1  0.823645  0.814246  0.167644  1
  O  O11  1  0.676313  0.173543  0.309544  1
  O  O12  1  0.176408  0.173465  0.167669  1
  O  O13  1  0.676259  0.173537  0.054718  1
  O  O14  1  0.176410  0.173474  0.196594  1
  O  O15  1  0.323497  0.814317  0.054736  1
  O  O16  1  0.823648  0.814255  0.196615  1
  O  O17  1  -0.000000  0.993793  0.310085  1
  O  O18  1  0.500010  0.993706  0.168206  1
  O  O19  1  0.000000  0.993779  0.054177  1
  O  O20  1  0.500013  0.993723  0.196055  1
  O  O21  1  0.323509  0.173533  0.309540  1
  O  O22  1  0.823599  0.173455  0.167661  1
  O  O23  1  0.676241  0.814338  0.309532  1
  O  O24  1  0.176331  0.814259  0.167653  1
  O  O25  1  0.676184  0.814328  0.054733  1
  O  O26  1  0.176337  0.814269  0.196607  1
  O  O27  1  0.323452  0.173525  0.054719  1
  O  O28  1  0.823606  0.173465  0.196602  1
  O  O29  1  0.499898  0.493985  0.311200  1
  O  O30  1  0.000000  0.493903  0.169320  1
  O  O31  1  0.499846  0.493972  0.053063  1
  O  O32  1  -0.000000  0.493917  0.194941  1
  O  O33  1  0.499798  0.734722  0.040253  1
  O  O34  1  0.000000  0.734655  0.182130  1
  O  O35  1  0.499835  0.253404  0.040252  1
  O  O36  1  -0.000000  0.253336  0.182131  1
  O  O37  1  -0.000000  0.830428  0.281135  1
  O  O38  1  0.499819  0.830513  0.139256  1
  O  O39  1  -0.000000  0.172138  0.281638  1
  O  O40  1  0.499809  0.172223  0.139759  1
  O  O41  1  0.000000  0.172293  0.082623  1
  O  O42  1  0.499835  0.172044  0.224505  1
  O  O43  1  0.000000  0.830585  0.083129  1
  O  O44  1  0.499845  0.830331  0.225003  1
  O  O45  1  0.179520  0.685306  0.267089  1
  O  O46  1  0.679473  0.685407  0.125209  1
  O  O47  1  0.819559  0.332904  0.267989  1
  O  O48  1  0.319511  0.333004  0.126111  1
  O  O49  1  0.819504  0.333116  0.096270  1
  O  O50  1  0.319566  0.332746  0.238155  1
  O  O51  1  0.179463  0.685513  0.097176  1
  O  O52  1  0.679532  0.685152  0.239048  1
  O  O53  1  0.000000  0.010279  0.266911  1
  O  O54  1  0.499736  0.010383  0.125032  1
  O  O55  1  0.000000  0.010499  0.097351  1
  O  O56  1  0.499796  0.010112  0.239229  1
  O  O57  1  0.820078  0.685292  0.267090  1
  O  O58  1  0.320023  0.685390  0.125212  1
  O  O59  1  0.180015  0.332917  0.267988  1
  O  O60  1  0.679963  0.333014  0.126108  1
  O  O61  1  0.179958  0.333128  0.096272  1
  O  O62  1  0.680021  0.332758  0.238157  1
  O  O63  1  0.820021  0.685498  0.097174  1
  O  O64  1  0.320079  0.685137  0.239046  1
  O  O65  1  0.499792  0.508111  0.265511  1
  O  O66  1  -0.000000  0.508209  0.123632  1
  O  O67  1  0.499734  0.508311  0.098750  1
  O  O68  1  0.000000  0.507966  0.240630  1
  O  O69  1  0.749806  0.492441  0.253071  1
  O  O70  1  0.249764  0.492569  0.111193  1
  O  O71  1  0.249810  0.492441  0.253070  1
  O  O72  1  0.749761  0.492568  0.111190  1
  O  O73  1  0.171590  0.994364  0.579374  1
  O  O74  1  0.671647  0.994384  0.437494  1
  O  O75  1  0.828132  0.994356  0.579377  1
  O  O76  1  0.328188  0.994374  0.437499  1
  O  O77  1  0.828097  0.994426  0.352400  1
  O  O78  1  0.328197  0.994301  0.494276  1
  O  O79  1  0.171556  0.994434  0.352401  1
  O  O80  1  0.671655  0.994310  0.494281  1
  O  O81  1  0.323550  0.814324  0.593284  1
  O  O82  1  0.823645  0.814246  0.451401  1
  O  O83  1  0.676313  0.173543  0.593301  1
  O  O84  1  0.176408  0.173465  0.451426  1
  O  O85  1  0.676259  0.173537  0.338475  1
  O  O86  1  0.176410  0.173474  0.480352  1
  O  O87  1  0.323497  0.814317  0.338493  1
  O  O88  1  0.823648  0.814255  0.480373  1
  O  O89  1  0.000000  0.993793  0.593842  1
  O  O90  1  0.500010  0.993706  0.451963  1
  O  O91  1  -0.000000  0.993779  0.337934  1
  O  O92  1  0.500013  0.993723  0.479812  1
  O  O93  1  0.323509  0.173533  0.593297  1
  O  O94  1  0.823599  0.173455  0.451418  1
  O  O95  1  0.676241  0.814338  0.593289  1
  O  O96  1  0.176331  0.814259  0.451410  1
  O  O97  1  0.676184  0.814328  0.338491  1
  O  O98  1  0.176337  0.814269  0.480364  1
  O  O99  1  0.323452  0.173525  0.338476  1
  O  O100  1  0.823606  0.173465  0.480359  1
  O  O101  1  0.499898  0.493985  0.594957  1
  O  O102  1  -0.000000  0.493903  0.453078  1
  O  O103  1  0.499846  0.493972  0.336820  1
  O  O104  1  0.000000  0.493917  0.478698  1
  O  O105  1  0.499798  0.734722  0.324010  1
  O  O106  1  0.000000  0.734655  0.465887  1
  O  O107  1  0.499835  0.253404  0.324009  1
  O  O108  1  0.000000  0.253336  0.465888  1
  O  O109  1  0.000000  0.830428  0.564892  1
  O  O110  1  0.499819  0.830513  0.423013  1
  O  O111  1  0.000000  0.172138  0.565395  1
  O  O112  1  0.499809  0.172223  0.423516  1
  O  O113  1  0.000000  0.172293  0.366380  1
  O  O114  1  0.499835  0.172044  0.508262  1
  O  O115  1  -0.000000  0.830585  0.366886  1
  O  O116  1  0.499845  0.830331  0.508760  1
  O  O117  1  0.179520  0.685306  0.550846  1
  O  O118  1  0.679473  0.685407  0.408966  1
  O  O119  1  0.819559  0.332904  0.551746  1
  O  O120  1  0.319511  0.333004  0.409868  1
  O  O121  1  0.819504  0.333116  0.380027  1
  O  O122  1  0.319566  0.332746  0.521912  1
  O  O123  1  0.179463  0.685513  0.380934  1
  O  O124  1  0.679532  0.685152  0.522805  1
  O  O125  1  0.000000  0.010279  0.550668  1
  O  O126  1  0.499736  0.010383  0.408789  1
  O  O127  1  0.000000  0.010499  0.381108  1
  O  O128  1  0.499796  0.010112  0.522987  1
  O  O129  1  0.820078  0.685292  0.550848  1
  O  O130  1  0.320023  0.685390  0.408969  1
  O  O131  1  0.180015  0.332917  0.551745  1
  O  O132  1  0.679963  0.333014  0.409865  1
  O  O133  1  0.179958  0.333128  0.380029  1
  O  O134  1  0.680021  0.332758  0.521914  1
  O  O135  1  0.820021  0.685498  0.380931  1
  O  O136  1  0.320079  0.685137  0.522803  1
  O  O137  1  0.499792  0.508111  0.549268  1
  O  O138  1  -0.000000  0.508209  0.407389  1
  O  O139  1  0.499734  0.508311  0.382508  1
  O  O140  1  0.000000  0.507966  0.524387  1
  O  O141  1  0.749806  0.492441  0.536828  1
  O  O142  1  0.249764  0.492569  0.394950  1
  O  O143  1  0.249810  0.492441  0.536827  1
  O  O144  1  0.749761  0.492568  0.394947  1
  O  O145  1  0.171590  0.994364  0.863131  1
  O  O146  1  0.671647  0.994384  0.721251  1
  O  O147  1  0.828132  0.994356  0.863134  1
  O  O148  1  0.328188  0.994374  0.721256  1
  O  O149  1  0.828097  0.994426  0.636157  1
  O  O150  1  0.328197  0.994301  0.778033  1
  O  O151  1  0.171556  0.994434  0.636159  1
  O  O152  1  0.671655  0.994310  0.778038  1
  O  O153  1  0.323550  0.814324  0.877041  1
  O  O154  1  0.823645  0.814246  0.735158  1
  O  O155  1  0.676313  0.173543  0.877059  1
  O  O156  1  0.176408  0.173465  0.735183  1
  O  O157  1  0.676259  0.173537  0.622232  1
  O  O158  1  0.176410  0.173474  0.764109  1
  O  O159  1  0.323497  0.814317  0.622250  1
  O  O160  1  0.823648  0.814255  0.764130  1
  O  O161  1  0.000000  0.993793  0.877599  1
  O  O162  1  0.500010  0.993706  0.735720  1
  O  O163  1  0.000000  0.993779  0.621692  1
  O  O164  1  0.500013  0.993723  0.763570  1
  O  O165  1  0.323509  0.173533  0.877054  1
  O  O166  1  0.823599  0.173455  0.735175  1
  O  O167  1  0.676241  0.814338  0.877046  1
  O  O168  1  0.176331  0.814259  0.735167  1
  O  O169  1  0.676184  0.814328  0.622248  1
  O  O170  1  0.176337  0.814269  0.764121  1
  O  O171  1  0.323452  0.173525  0.622234  1
  O  O172  1  0.823606  0.173465  0.764116  1
  O  O173  1  0.499898  0.493985  0.878714  1
  O  O174  1  -0.000000  0.493903  0.736835  1
  O  O175  1  0.499846  0.493972  0.620577  1
  O  O176  1  0.000000  0.493917  0.762455  1
  O  O177  1  0.499798  0.734722  0.607768  1
  O  O178  1  0.000000  0.734655  0.749644  1
  O  O179  1  0.499835  0.253404  0.607766  1
  O  O180  1  -0.000000  0.253336  0.749646  1
  O  O181  1  -0.000000  0.830428  0.848650  1
  O  O182  1  0.499819  0.830513  0.706770  1
  O  O183  1  -0.000000  0.172138  0.849152  1
  O  O184  1  0.499809  0.172223  0.707273  1
  O  O185  1  -0.000000  0.172293  0.650137  1
  O  O186  1  0.499835  0.172044  0.792019  1
  O  O187  1  0.000000  0.830585  0.650643  1
  O  O188  1  0.499845  0.830331  0.792517  1
  O  O189  1  0.179520  0.685306  0.834603  1
  O  O190  1  0.679473  0.685407  0.692723  1
  O  O191  1  0.819559  0.332904  0.835503  1
  O  O192  1  0.319511  0.333004  0.693625  1
  O  O193  1  0.819504  0.333116  0.663784  1
  O  O194  1  0.319566  0.332746  0.805669  1
  O  O195  1  0.179463  0.685513  0.664691  1
  O  O196  1  0.679532  0.685152  0.806562  1
  O  O197  1  0.000000  0.010279  0.834425  1
  O  O198  1  0.499736  0.010383  0.692546  1
  O  O199  1  -0.000000  0.010499  0.664865  1
  O  O200  1  0.499796  0.010112  0.806744  1
  O  O201  1  0.820078  0.685292  0.834605  1
  O  O202  1  0.320023  0.685390  0.692726  1
  O  O203  1  0.180015  0.332917  0.835502  1
  O  O204  1  0.679963  0.333014  0.693622  1
  O  O205  1  0.179958  0.333128  0.663787  1
  O  O206  1  0.680021  0.332758  0.805671  1
  O  O207  1  0.820021  0.685498  0.664688  1
  O  O208  1  0.320079  0.685137  0.806560  1
  O  O209  1  0.499792  0.508111  0.833026  1
  O  O210  1  0.000000  0.508209  0.691146  1
  O  O211  1  0.499734  0.508311  0.666265  1
  O  O212  1  0.000000  0.507966  0.808144  1
  O  O213  1  0.749806  0.492441  0.820585  1
  O  O214  1  0.249764  0.492569  0.678707  1
  O  O215  1  0.249810  0.492441  0.820584  1
  O  O216  1  0.749761  0.492568  0.678704  1
  O  O217  1  0.499798  0.734722  0.891525  1
  O  O218  1  0.499835  0.253404  0.891523  1
  Si  Si219  1  0.212600  0.993940  0.306453  1
  Si  Si220  1  0.712687  0.993877  0.164572  1
  Si  Si221  1  0.787196  0.993948  0.306456  1
  Si  Si222  1  0.287288  0.993884  0.164579  1
  Si  Si223  1  0.787139  0.993953  0.057806  1
  Si  Si224  1  0.287296  0.993880  0.199683  1
  Si  Si225  1  0.212553  0.993945  0.057808  1
  Si  Si226  1  0.712688  0.993873  0.199689  1
  Si  Si227  1  0.499870  0.708637  0.313399  1
  Si  Si228  1  0.000000  0.708558  0.171518  1
  Si  Si229  1  0.499893  0.279333  0.313400  1
  Si  Si230  1  -0.000000  0.279257  0.171522  1
  Si  Si231  1  0.499849  0.279322  0.050861  1
  Si  Si232  1  0.000000  0.279264  0.192741  1
  Si  Si233  1  0.499827  0.708633  0.050865  1
  Si  Si234  1  0.000000  0.708569  0.192741  1
  Si  Si235  1  -0.000000  0.796265  0.270239  1
  Si  Si236  1  0.499762  0.796357  0.128360  1
  Si  Si237  1  0.000000  0.219940  0.270879  1
  Si  Si238  1  0.499746  0.220046  0.129000  1
  Si  Si239  1  -0.000000  0.220136  0.093381  1
  Si  Si240  1  0.499798  0.219801  0.235264  1
  Si  Si241  1  -0.000000  0.796478  0.094025  1
  Si  Si242  1  0.499813  0.796106  0.235899  1
  Si  Si243  1  0.716299  0.505082  0.263579  1
  Si  Si244  1  0.216253  0.505179  0.121700  1
  Si  Si245  1  0.283289  0.505095  0.263578  1
  Si  Si246  1  0.783235  0.505193  0.121698  1
  Si  Si247  1  0.283233  0.505279  0.100685  1
  Si  Si248  1  0.783289  0.504974  0.242563  1
  Si  Si249  1  0.716243  0.505266  0.100682  1
  Si  Si250  1  0.216311  0.504960  0.242562  1
  Si  Si251  1  0.000000  0.996880  0.288506  1
  Si  Si252  1  0.499870  0.996953  0.146627  1
  Si  Si253  1  0.000000  0.997002  0.075758  1
  Si  Si254  1  0.499882  0.996819  0.217634  1
  Si  Si255  1  0.212600  0.993940  0.590210  1
  Si  Si256  1  0.712687  0.993877  0.448329  1
  Si  Si257  1  0.787196  0.993948  0.590213  1
  Si  Si258  1  0.287288  0.993884  0.448336  1
  Si  Si259  1  0.787139  0.993953  0.341564  1
  Si  Si260  1  0.287296  0.993880  0.483440  1
  Si  Si261  1  0.212553  0.993945  0.341565  1
  Si  Si262  1  0.712688  0.993873  0.483446  1
  Si  Si263  1  0.499870  0.708637  0.597156  1
  Si  Si264  1  -0.000000  0.708558  0.455276  1
  Si  Si265  1  0.499893  0.279333  0.597157  1
  Si  Si266  1  -0.000000  0.279257  0.455279  1
  Si  Si267  1  0.499849  0.279322  0.334618  1
  Si  Si268  1  0.000000  0.279264  0.476498  1
  Si  Si269  1  0.499827  0.708633  0.334622  1
  Si  Si270  1  0.000000  0.708569  0.476498  1
  Si  Si271  1  0.000000  0.796265  0.553996  1
  Si  Si272  1  0.499762  0.796357  0.412117  1
  Si  Si273  1  -0.000000  0.219940  0.554636  1
  Si  Si274  1  0.499746  0.220046  0.412757  1
  Si  Si275  1  -0.000000  0.220136  0.377138  1
  Si  Si276  1  0.499798  0.219801  0.519021  1
  Si  Si277  1  -0.000000  0.796478  0.377782  1
  Si  Si278  1  0.499813  0.796106  0.519656  1
  Si  Si279  1  0.716299  0.505082  0.547336  1
  Si  Si280  1  0.216253  0.505179  0.405458  1
  Si  Si281  1  0.283289  0.505095  0.547335  1
  Si  Si282  1  0.783235  0.505193  0.405455  1
  Si  Si283  1  0.283233  0.505279  0.384442  1
  Si  Si284  1  0.783289  0.504974  0.526320  1
  Si  Si285  1  0.716243  0.505266  0.384440  1
  Si  Si286  1  0.216311  0.504960  0.526319  1
  Si  Si287  1  0.000000  0.996880  0.572263  1
  Si  Si288  1  0.499870  0.996953  0.430384  1
  Si  Si289  1  0.000000  0.997002  0.359515  1
  Si  Si290  1  0.499882  0.996819  0.501391  1
  Si  Si291  1  0.212600  0.993940  0.873967  1
  Si  Si292  1  0.712687  0.993877  0.732086  1
  Si  Si293  1  0.787196  0.993948  0.873971  1
  Si  Si294  1  0.287288  0.993884  0.732093  1
  Si  Si295  1  0.787139  0.993953  0.625321  1
  Si  Si296  1  0.287296  0.993880  0.767197  1
  Si  Si297  1  0.212553  0.993945  0.625322  1
  Si  Si298  1  0.712688  0.993873  0.767203  1
  Si  Si299  1  0.499870  0.708637  0.880913  1
  Si  Si300  1  -0.000000  0.708558  0.739033  1
  Si  Si301  1  0.499893  0.279333  0.880914  1
  Si  Si302  1  -0.000000  0.279257  0.739036  1
  Si  Si303  1  0.499849  0.279322  0.618376  1
  Si  Si304  1  0.000000  0.279264  0.760255  1
  Si  Si305  1  0.499827  0.708633  0.618379  1
  Si  Si306  1  0.000000  0.708569  0.760256  1
  Si  Si307  1  -0.000000  0.796265  0.837754  1
  Si  Si308  1  0.499762  0.796357  0.695874  1
  Si  Si309  1  0.000000  0.219940  0.838393  1
  Si  Si310  1  0.499746  0.220046  0.696515  1
  Si  Si311  1  0.000000  0.220136  0.660895  1
  Si  Si312  1  0.499798  0.219801  0.802779  1
  Si  Si313  1  0.000000  0.796478  0.661539  1
  Si  Si314  1  0.499813  0.796106  0.803413  1
  Si  Si315  1  0.716299  0.505082  0.831093  1
  Si  Si316  1  0.216253  0.505179  0.689215  1
  Si  Si317  1  0.283289  0.505095  0.831092  1
  Si  Si318  1  0.783235  0.505193  0.689212  1
  Si  Si319  1  0.283233  0.505279  0.668199  1
  Si  Si320  1  0.783289  0.504974  0.810077  1
  Si  Si321  1  0.716243  0.505266  0.668197  1
  Si  Si322  1  0.216311  0.504960  0.810076  1
  Si  Si323  1  0.000000  0.996880  0.856020  1
  Si  Si324  1  0.499870  0.996953  0.714141  1
  Si  Si325  1  -0.000000  0.997002  0.643272  1
  Si  Si326  1  0.499882  0.996819  0.785148  1
  H  H327  1  0.499798  0.734722  0.034113  1
  H  H328  1  0.499835  0.253404  0.034112  1
  H  H329  1  0.499798  0.734722  0.897665  1
  H  H330  1  0.499835  0.253404  0.897663  1
