# generated using pymatgen
data_Si50H2O101
_symmetry_space_group_name_H-M   'P 1'
_cell_length_a   7.15454545
_cell_length_b   7.18682161
_cell_length_c   138.25430873
_cell_angle_alpha   90.00000000
_cell_angle_beta   90.00000000
_cell_angle_gamma   90.00300000
_symmetry_Int_Tables_number   1
_chemical_formula_structural   Si50H2O101
_chemical_formula_sum   'Si100 H4 O202'
_cell_volume   7108.82112403
_cell_formula_units_Z   2
loop_
 _symmetry_equiv_pos_site_id
 _symmetry_equiv_pos_as_xyz
  1  'x, y, z'
loop_
 _atom_site_type_symbol
 _atom_site_label
 _atom_site_symmetry_multiplicity
 _atom_site_fract_x
 _atom_site_fract_y
 _atom_site_fract_z
 _atom_site_occupancy
  O  O1  1  0.171590  0.994364  0.283313  1
  O  O2  1  0.671647  0.994384  0.132892  1
  O  O3  1  0.828132  0.994356  0.283316  1
  O  O4  1  0.328188  0.994374  0.132897  1
  O  O5  1  0.828097  0.994426  0.042675  1
  O  O6  1  0.328197  0.994301  0.193092  1
  O  O7  1  0.171556  0.994434  0.042676  1
  O  O8  1  0.671655  0.994310  0.193097  1
  O  O9  1  0.323550  0.814324  0.298060  1
  O  O10  1  0.823645  0.814246  0.147636  1
  O  O11  1  0.676313  0.173543  0.298078  1
  O  O12  1  0.176408  0.173465  0.147662  1
  O  O13  1  0.176410  0.173474  0.178329  1
  O  O14  1  0.823648  0.814255  0.178351  1
  O  O15  1  -0.000000  0.993793  0.298652  1
  O  O16  1  0.500010  0.993706  0.148232  1
  O  O17  1  0.500013  0.993723  0.177758  1
  O  O18  1  0.323509  0.173533  0.298074  1
  O  O19  1  0.823599  0.173455  0.147654  1
  O  O20  1  0.676241  0.814338  0.298066  1
  O  O21  1  0.176331  0.814259  0.147645  1
  O  O22  1  0.176337  0.814269  0.178342  1
  O  O23  1  0.823606  0.173465  0.178337  1
  O  O24  1  0.499898  0.493985  0.299834  1
  O  O25  1  0.000000  0.493903  0.149413  1
  O  O26  1  -0.000000  0.493917  0.176576  1
  O  O27  1  0.000000  0.734655  0.162994  1
  O  O28  1  -0.000000  0.253336  0.162995  1
  O  O29  1  -0.000000  0.830428  0.267959  1
  O  O30  1  0.499819  0.830513  0.117539  1
  O  O31  1  -0.000000  0.172138  0.268492  1
  O  O32  1  0.499809  0.172223  0.118072  1
  O  O33  1  -0.000000  0.172293  0.057496  1
  O  O34  1  0.499835  0.172044  0.207920  1
  O  O35  1  0.000000  0.830585  0.058033  1
  O  O36  1  0.499845  0.830331  0.208448  1
  O  O37  1  0.179520  0.685306  0.253067  1
  O  O38  1  0.679473  0.685407  0.102646  1
  O  O39  1  0.819559  0.332904  0.254022  1
  O  O40  1  0.319511  0.333004  0.103602  1
  O  O41  1  0.819504  0.333116  0.071965  1
  O  O42  1  0.319566  0.332746  0.222392  1
  O  O43  1  0.179463  0.685513  0.072926  1
  O  O44  1  0.679532  0.685152  0.223339  1
  O  O45  1  -0.000000  0.010279  0.252879  1
  O  O46  1  0.499736  0.010383  0.102459  1
  O  O47  1  0.000000  0.010499  0.073111  1
  O  O48  1  0.499796  0.010112  0.223531  1
  O  O49  1  0.820078  0.685292  0.253069  1
  O  O50  1  0.320023  0.685390  0.102650  1
  O  O51  1  0.180015  0.332917  0.254020  1
  O  O52  1  0.679963  0.333014  0.103599  1
  O  O53  1  0.179958  0.333128  0.071968  1
  O  O54  1  0.680021  0.332758  0.222393  1
  O  O55  1  0.820021  0.685498  0.072923  1
  O  O56  1  0.320079  0.685137  0.223336  1
  O  O57  1  0.499792  0.508111  0.251395  1
  O  O58  1  0.000000  0.508209  0.100975  1
  O  O59  1  0.499734  0.508311  0.074595  1
  O  O60  1  0.000000  0.507966  0.225015  1
  O  O61  1  0.749806  0.492441  0.238206  1
  O  O62  1  0.249764  0.492569  0.087786  1
  O  O63  1  0.249810  0.492441  0.238205  1
  O  O64  1  0.749761  0.492568  0.087783  1
  O  O65  1  0.171590  0.994364  0.584152  1
  O  O66  1  0.671647  0.994384  0.433731  1
  O  O67  1  0.828132  0.994356  0.584155  1
  O  O68  1  0.328188  0.994374  0.433736  1
  O  O69  1  0.828097  0.994426  0.343514  1
  O  O70  1  0.328197  0.994301  0.493931  1
  O  O71  1  0.171556  0.994434  0.343516  1
  O  O72  1  0.671655  0.994310  0.493937  1
  O  O73  1  0.323550  0.814324  0.598899  1
  O  O74  1  0.823645  0.814246  0.448475  1
  O  O75  1  0.676313  0.173543  0.598918  1
  O  O76  1  0.176408  0.173465  0.448501  1
  O  O77  1  0.676259  0.173537  0.328751  1
  O  O78  1  0.176410  0.173474  0.479168  1
  O  O79  1  0.323497  0.814317  0.328770  1
  O  O80  1  0.823648  0.814255  0.479191  1
  O  O81  1  0.000000  0.993793  0.599491  1
  O  O82  1  0.500010  0.993706  0.449071  1
  O  O83  1  -0.000000  0.993779  0.328178  1
  O  O84  1  0.500013  0.993723  0.478597  1
  O  O85  1  0.323509  0.173533  0.598913  1
  O  O86  1  0.823599  0.173455  0.448493  1
  O  O87  1  0.676241  0.814338  0.598905  1
  O  O88  1  0.176331  0.814259  0.448484  1
  O  O89  1  0.676184  0.814328  0.328767  1
  O  O90  1  0.176337  0.814269  0.479181  1
  O  O91  1  0.323452  0.173525  0.328752  1
  O  O92  1  0.823606  0.173465  0.479176  1
  O  O93  1  0.499898  0.493985  0.600673  1
  O  O94  1  0.000000  0.493903  0.450253  1
  O  O95  1  0.499846  0.493972  0.326996  1
  O  O96  1  0.000000  0.493917  0.477415  1
  O  O97  1  0.499798  0.734722  0.313416  1
  O  O98  1  0.000000  0.734655  0.463833  1
  O  O99  1  0.499835  0.253404  0.313414  1
  O  O100  1  0.000000  0.253336  0.463835  1
  O  O101  1  -0.000000  0.830428  0.568799  1
  O  O102  1  0.499819  0.830513  0.418378  1
  O  O103  1  0.000000  0.172138  0.569331  1
  O  O104  1  0.499809  0.172223  0.418911  1
  O  O105  1  0.000000  0.172293  0.358336  1
  O  O106  1  0.499835  0.172044  0.508759  1
  O  O107  1  0.000000  0.830585  0.358872  1
  O  O108  1  0.499845  0.830331  0.509287  1
  O  O109  1  0.179520  0.685306  0.553906  1
  O  O110  1  0.679473  0.685407  0.403485  1
  O  O111  1  0.819559  0.332904  0.554861  1
  O  O112  1  0.319511  0.333004  0.404442  1
  O  O113  1  0.819504  0.333116  0.372804  1
  O  O114  1  0.319566  0.332746  0.523231  1
  O  O115  1  0.179463  0.685513  0.373765  1
  O  O116  1  0.679532  0.685152  0.524178  1
  O  O117  1  0.000000  0.010279  0.553718  1
  O  O118  1  0.499736  0.010383  0.403298  1
  O  O119  1  0.000000  0.010499  0.373950  1
  O  O120  1  0.499796  0.010112  0.524370  1
  O  O121  1  0.820078  0.685292  0.553908  1
  O  O122  1  0.320023  0.685390  0.403489  1
  O  O123  1  0.180015  0.332917  0.554860  1
  O  O124  1  0.679963  0.333014  0.404439  1
  O  O125  1  0.179958  0.333128  0.372807  1
  O  O126  1  0.680021  0.332758  0.523233  1
  O  O127  1  0.820021  0.685498  0.373762  1
  O  O128  1  0.320079  0.685137  0.524176  1
  O  O129  1  0.499792  0.508111  0.552234  1
  O  O130  1  -0.000000  0.508209  0.401814  1
  O  O131  1  0.499734  0.508311  0.375434  1
  O  O132  1  0.000000  0.507966  0.525854  1
  O  O133  1  0.749806  0.492441  0.539045  1
  O  O134  1  0.249764  0.492569  0.388625  1
  O  O135  1  0.249810  0.492441  0.539044  1
  O  O136  1  0.749761  0.492568  0.388623  1
  O  O137  1  0.171590  0.994364  0.884992  1
  O  O138  1  0.671647  0.994384  0.734570  1
  O  O139  1  0.828132  0.994356  0.884995  1
  O  O140  1  0.328188  0.994374  0.734576  1
  O  O141  1  0.828097  0.994426  0.644354  1
  O  O142  1  0.328197  0.994301  0.794771  1
  O  O143  1  0.171556  0.994434  0.644355  1
  O  O144  1  0.671655  0.994310  0.794776  1
  O  O145  1  0.823645  0.814246  0.749314  1
  O  O146  1  0.176408  0.173465  0.749341  1
  O  O147  1  0.676259  0.173537  0.629590  1
  O  O148  1  0.176410  0.173474  0.780008  1
  O  O149  1  0.323497  0.814317  0.629609  1
  O  O150  1  0.823648  0.814255  0.780030  1
  O  O151  1  0.500010  0.993706  0.749910  1
  O  O152  1  -0.000000  0.993779  0.629017  1
  O  O153  1  0.500013  0.993723  0.779436  1
  O  O154  1  0.823599  0.173455  0.749333  1
  O  O155  1  0.176331  0.814259  0.749324  1
  O  O156  1  0.676184  0.814328  0.629607  1
  O  O157  1  0.176337  0.814269  0.780021  1
  O  O158  1  0.323452  0.173525  0.629592  1
  O  O159  1  0.823606  0.173465  0.780015  1
  O  O160  1  0.000000  0.493903  0.751092  1
  O  O161  1  0.499846  0.493972  0.627835  1
  O  O162  1  0.000000  0.493917  0.778254  1
  O  O163  1  0.499798  0.734722  0.614255  1
  O  O164  1  0.000000  0.734655  0.764672  1
  O  O165  1  0.499835  0.253404  0.614253  1
  O  O166  1  -0.000000  0.253336  0.764674  1
  O  O167  1  -0.000000  0.830428  0.869638  1
  O  O168  1  0.499819  0.830513  0.719217  1
  O  O169  1  -0.000000  0.172138  0.870170  1
  O  O170  1  0.499809  0.172223  0.719751  1
  O  O171  1  0.000000  0.172293  0.659175  1
  O  O172  1  0.499835  0.172044  0.809599  1
  O  O173  1  -0.000000  0.830585  0.659711  1
  O  O174  1  0.499845  0.830331  0.810126  1
  O  O175  1  0.179520  0.685306  0.854746  1
  O  O176  1  0.679473  0.685407  0.704325  1
  O  O177  1  0.819559  0.332904  0.855700  1
  O  O178  1  0.319511  0.333004  0.705281  1
  O  O179  1  0.819504  0.333116  0.673644  1
  O  O180  1  0.319566  0.332746  0.824070  1
  O  O181  1  0.179463  0.685513  0.674605  1
  O  O182  1  0.679532  0.685152  0.825017  1
  O  O183  1  0.000000  0.010279  0.854557  1
  O  O184  1  0.499736  0.010383  0.704137  1
  O  O185  1  -0.000000  0.010499  0.674790  1
  O  O186  1  0.499796  0.010112  0.825209  1
  O  O187  1  0.820078  0.685292  0.854748  1
  O  O188  1  0.320023  0.685390  0.704328  1
  O  O189  1  0.180015  0.332917  0.855699  1
  O  O190  1  0.679963  0.333014  0.705278  1
  O  O191  1  0.179958  0.333128  0.673646  1
  O  O192  1  0.680021  0.332758  0.824072  1
  O  O193  1  0.820021  0.685498  0.674602  1
  O  O194  1  0.320079  0.685137  0.825015  1
  O  O195  1  0.499792  0.508111  0.853073  1
  O  O196  1  -0.000000  0.508209  0.702653  1
  O  O197  1  0.499734  0.508311  0.676273  1
  O  O198  1  0.000000  0.507966  0.826694  1
  O  O199  1  0.749806  0.492441  0.839884  1
  O  O200  1  0.249764  0.492569  0.689465  1
  O  O201  1  0.249810  0.492441  0.839883  1
  O  O202  1  0.749761  0.492568  0.689462  1
  Si  Si203  1  0.212600  0.993940  0.294801  1
  Si  Si204  1  0.712687  0.993877  0.144379  1
  Si  Si205  1  0.787196  0.993948  0.294805  1
  Si  Si206  1  0.287288  0.993884  0.144386  1
  Si  Si207  1  0.287296  0.993880  0.181603  1
  Si  Si208  1  0.712688  0.993873  0.181610  1
  Si  Si209  1  0.499870  0.708637  0.302165  1
  Si  Si210  1  -0.000000  0.708558  0.151744  1
  Si  Si211  1  0.499893  0.279333  0.302166  1
  Si  Si212  1  -0.000000  0.279257  0.151747  1
  Si  Si213  1  0.000000  0.279264  0.174243  1
  Si  Si214  1  0.000000  0.708569  0.174244  1
  Si  Si215  1  -0.000000  0.796265  0.256407  1
  Si  Si216  1  0.499762  0.796357  0.105987  1
  Si  Si217  1  0.000000  0.219940  0.257086  1
  Si  Si218  1  0.499746  0.220046  0.106666  1
  Si  Si219  1  0.000000  0.220136  0.068902  1
  Si  Si220  1  0.499798  0.219801  0.219327  1
  Si  Si221  1  0.000000  0.796478  0.069585  1
  Si  Si222  1  0.499813  0.796106  0.220000  1
  Si  Si223  1  0.716299  0.505082  0.249346  1
  Si  Si224  1  0.216253  0.505179  0.098927  1
  Si  Si225  1  0.283289  0.505095  0.249345  1
  Si  Si226  1  0.783235  0.505193  0.098924  1
  Si  Si227  1  0.283233  0.505279  0.076646  1
  Si  Si228  1  0.783289  0.504974  0.227065  1
  Si  Si229  1  0.716243  0.505266  0.076643  1
  Si  Si230  1  0.216311  0.504960  0.227064  1
  Si  Si231  1  0.000000  0.996880  0.275773  1
  Si  Si232  1  0.499870  0.996953  0.125353  1
  Si  Si233  1  -0.000000  0.997002  0.050218  1
  Si  Si234  1  0.499882  0.996819  0.200635  1
  Si  Si235  1  0.212600  0.993940  0.595640  1
  Si  Si236  1  0.712687  0.993877  0.445218  1
  Si  Si237  1  0.787196  0.993948  0.595644  1
  Si  Si238  1  0.287288  0.993884  0.445225  1
  Si  Si239  1  0.787139  0.993953  0.332025  1
  Si  Si240  1  0.287296  0.993880  0.482443  1
  Si  Si241  1  0.212553  0.993945  0.332027  1
  Si  Si242  1  0.712688  0.993873  0.482449  1
  Si  Si243  1  0.499870  0.708637  0.603005  1
  Si  Si244  1  -0.000000  0.708558  0.452583  1
  Si  Si245  1  0.499893  0.279333  0.603005  1
  Si  Si246  1  0.000000  0.279257  0.452587  1
  Si  Si247  1  0.499849  0.279322  0.324662  1
  Si  Si248  1  0.000000  0.279264  0.475083  1
  Si  Si249  1  0.499827  0.708633  0.324666  1
  Si  Si250  1  0.000000  0.708569  0.475083  1
  Si  Si251  1  -0.000000  0.796265  0.557247  1
  Si  Si252  1  0.499762  0.796357  0.406826  1
  Si  Si253  1  0.000000  0.219940  0.557925  1
  Si  Si254  1  0.499746  0.220046  0.407505  1
  Si  Si255  1  -0.000000  0.220136  0.369741  1
  Si  Si256  1  0.499798  0.219801  0.520166  1
  Si  Si257  1  0.000000  0.796478  0.370424  1
  Si  Si258  1  0.499813  0.796106  0.520839  1
  Si  Si259  1  0.716299  0.505082  0.550185  1
  Si  Si260  1  0.216253  0.505179  0.399766  1
  Si  Si261  1  0.283289  0.505095  0.550184  1
  Si  Si262  1  0.783235  0.505193  0.399763  1
  Si  Si263  1  0.283233  0.505279  0.377485  1
  Si  Si264  1  0.783289  0.504974  0.527904  1
  Si  Si265  1  0.716243  0.505266  0.377483  1
  Si  Si266  1  0.216311  0.504960  0.527903  1
  Si  Si267  1  0.000000  0.996880  0.576613  1
  Si  Si268  1  0.499870  0.996953  0.426193  1
  Si  Si269  1  -0.000000  0.997002  0.351057  1
  Si  Si270  1  0.499882  0.996819  0.501474  1
  Si  Si271  1  0.712687  0.993877  0.746058  1
  Si  Si272  1  0.287288  0.993884  0.746065  1
  Si  Si273  1  0.787139  0.993953  0.632865  1
  Si  Si274  1  0.287296  0.993880  0.783282  1
  Si  Si275  1  0.212553  0.993945  0.632867  1
  Si  Si276  1  0.712688  0.993873  0.783289  1
  Si  Si277  1  -0.000000  0.708558  0.753422  1
  Si  Si278  1  -0.000000  0.279257  0.753426  1
  Si  Si279  1  0.499849  0.279322  0.625501  1
  Si  Si280  1  0.000000  0.279264  0.775922  1
  Si  Si281  1  0.499827  0.708633  0.625505  1
  Si  Si282  1  -0.000000  0.708569  0.775923  1
  Si  Si283  1  -0.000000  0.796265  0.858086  1
  Si  Si284  1  0.499762  0.796357  0.707665  1
  Si  Si285  1  0.000000  0.219940  0.858764  1
  Si  Si286  1  0.499746  0.220046  0.708344  1
  Si  Si287  1  -0.000000  0.220136  0.670580  1
  Si  Si288  1  0.499798  0.219801  0.821005  1
  Si  Si289  1  -0.000000  0.796478  0.671263  1
  Si  Si290  1  0.499813  0.796106  0.821678  1
  Si  Si291  1  0.716299  0.505082  0.851024  1
  Si  Si292  1  0.216253  0.505179  0.700605  1
  Si  Si293  1  0.283289  0.505095  0.851023  1
  Si  Si294  1  0.783235  0.505193  0.700602  1
  Si  Si295  1  0.283233  0.505279  0.678324  1
  Si  Si296  1  0.783289  0.504974  0.828744  1
  Si  Si297  1  0.716243  0.505266  0.678322  1
  Si  Si298  1  0.216311  0.504960  0.828742  1
  Si  Si299  1  0.000000  0.996880  0.877452  1
  Si  Si300  1  0.499870  0.996953  0.727032  1
  Si  Si301  1  -0.000000  0.997002  0.651897  1
  Si  Si302  1  0.499882  0.996819  0.802314  1
  H  H303  1  0.828097  0.994426  0.036165  1
  H  H304  1  0.171556  0.994434  0.036167  1
  H  H305  1  0.171590  0.994364  0.891501  1
  H  H306  1  0.828132  0.994356  0.891504  1
