# generated using pymatgen
data_Si18H2O37
_symmetry_space_group_name_H-M   'P 1'
_cell_length_a   7.15454545
_cell_length_b   7.18682161
_cell_length_c   63.39253280
_cell_angle_alpha   90.00000000
_cell_angle_beta   90.00000000
_cell_angle_gamma   90.00300000
_symmetry_Int_Tables_number   1
_chemical_formula_structural   Si18H2O37
_chemical_formula_sum   'Si36 H4 O74'
_cell_volume   3259.5452571
_cell_formula_units_Z   2
loop_
 _symmetry_equiv_pos_site_id
 _symmetry_equiv_pos_as_xyz
  1  'x, y, z'
loop_
 _atom_site_type_symbol
 _atom_site_label
 _atom_site_symmetry_multiplicity
 _atom_site_fract_x
 _atom_site_fract_y
 _atom_site_fract_z
 _atom_site_occupancy
  O  O1  1  0.171590  0.994364  0.683530  1
  O  O2  1  0.671647  0.994384  0.355473  1
  O  O3  1  0.828132  0.994356  0.683537  1
  O  O4  1  0.328188  0.994374  0.355484  1
  O  O5  1  0.828097  0.994426  0.158717  1
  O  O6  1  0.328197  0.994301  0.486766  1
  O  O7  1  0.171556  0.994434  0.158720  1
  O  O8  1  0.671655  0.994310  0.486777  1
  O  O9  1  0.323550  0.814324  0.715692  1
  O  O10  1  0.823645  0.814246  0.387628  1
  O  O11  1  0.676313  0.173543  0.715733  1
  O  O12  1  0.176408  0.173465  0.387686  1
  O  O13  1  0.676259  0.173537  0.126519  1
  O  O14  1  0.176410  0.173474  0.454568  1
  O  O15  1  0.323497  0.814317  0.126561  1
  O  O16  1  0.823648  0.814255  0.454617  1
  O  O17  1  -0.000000  0.993793  0.716983  1
  O  O18  1  0.500010  0.993706  0.388928  1
  O  O19  1  0.000000  0.993779  0.125269  1
  O  O20  1  0.500013  0.993723  0.453322  1
  O  O21  1  0.323509  0.173533  0.715723  1
  O  O22  1  0.823599  0.173455  0.387668  1
  O  O23  1  0.676241  0.814338  0.715705  1
  O  O24  1  0.176331  0.814259  0.387649  1
  O  O25  1  0.676184  0.814328  0.126555  1
  O  O26  1  0.176337  0.814269  0.454597  1
  O  O27  1  0.323452  0.173525  0.126523  1
  O  O28  1  0.823606  0.173465  0.454586  1
  O  O29  1  0.499898  0.493985  0.719561  1
  O  O30  1  0.000000  0.493903  0.391505  1
  O  O31  1  0.499846  0.493972  0.122692  1
  O  O32  1  -0.000000  0.493917  0.450745  1
  O  O33  1  0.499798  0.734722  0.093074  1
  O  O34  1  0.000000  0.734655  0.421123  1
  O  O35  1  0.499835  0.253404  0.093071  1
  O  O36  1  -0.000000  0.253336  0.421127  1
  O  O37  1  -0.000000  0.830428  0.650045  1
  O  O38  1  0.499819  0.830513  0.321989  1
  O  O39  1  -0.000000  0.172138  0.651207  1
  O  O40  1  0.499809  0.172223  0.323153  1
  O  O41  1  0.000000  0.172293  0.191042  1
  O  O42  1  0.499835  0.172044  0.519104  1
  O  O43  1  0.000000  0.830585  0.192211  1
  O  O44  1  0.499845  0.830331  0.520255  1
  O  O45  1  0.179520  0.685306  0.617567  1
  O  O46  1  0.679473  0.685407  0.289510  1
  O  O47  1  0.819559  0.332904  0.619648  1
  O  O48  1  0.319511  0.333004  0.291595  1
  O  O49  1  0.819504  0.333116  0.222596  1
  O  O50  1  0.319566  0.332746  0.550666  1
  O  O51  1  0.179463  0.685513  0.224693  1
  O  O52  1  0.679532  0.685152  0.552731  1
  O  O53  1  0.000000  0.010279  0.617156  1
  O  O54  1  0.499736  0.010383  0.289101  1
  O  O55  1  0.000000  0.010499  0.225096  1
  O  O56  1  0.499796  0.010112  0.553150  1
  O  O57  1  0.820078  0.685292  0.617571  1
  O  O58  1  0.320023  0.685390  0.289517  1
  O  O59  1  0.180015  0.332917  0.619645  1
  O  O60  1  0.679963  0.333014  0.291589  1
  O  O61  1  0.179958  0.333128  0.222602  1
  O  O62  1  0.680021  0.332758  0.550669  1
  O  O63  1  0.820021  0.685498  0.224686  1
  O  O64  1  0.320079  0.685137  0.552726  1
  O  O65  1  0.499792  0.508111  0.613919  1
  O  O66  1  -0.000000  0.508209  0.285864  1
  O  O67  1  0.499734  0.508311  0.228332  1
  O  O68  1  0.000000  0.507966  0.556387  1
  O  O69  1  0.749806  0.492441  0.585155  1
  O  O70  1  0.249764  0.492569  0.257101  1
  O  O71  1  0.249810  0.492441  0.585152  1
  O  O72  1  0.749761  0.492568  0.257095  1
  O  O73  1  0.499798  0.734722  0.749182  1
  O  O74  1  0.499835  0.253404  0.749179  1
  Si  Si75  1  0.212600  0.993940  0.708585  1
  Si  Si76  1  0.712687  0.993877  0.380526  1
  Si  Si77  1  0.787196  0.993948  0.708593  1
  Si  Si78  1  0.287288  0.993884  0.380541  1
  Si  Si79  1  0.787139  0.993953  0.133661  1
  Si  Si80  1  0.287296  0.993880  0.461710  1
  Si  Si81  1  0.212553  0.993945  0.133665  1
  Si  Si82  1  0.712688  0.993873  0.461724  1
  Si  Si83  1  0.499870  0.708637  0.724646  1
  Si  Si84  1  0.000000  0.708558  0.396588  1
  Si  Si85  1  0.499893  0.279333  0.724647  1
  Si  Si86  1  -0.000000  0.279257  0.396595  1
  Si  Si87  1  0.499849  0.279322  0.117602  1
  Si  Si88  1  0.000000  0.279264  0.445658  1
  Si  Si89  1  0.499827  0.708633  0.117610  1
  Si  Si90  1  0.000000  0.708569  0.445659  1
  Si  Si91  1  -0.000000  0.796265  0.624851  1
  Si  Si92  1  0.499762  0.796357  0.296795  1
  Si  Si93  1  0.000000  0.219940  0.626330  1
  Si  Si94  1  0.499746  0.220046  0.298276  1
  Si  Si95  1  -0.000000  0.220136  0.215916  1
  Si  Si96  1  0.499798  0.219801  0.543982  1
  Si  Si97  1  -0.000000  0.796478  0.217405  1
  Si  Si98  1  0.499813  0.796106  0.545449  1
  Si  Si99  1  0.716299  0.505082  0.609451  1
  Si  Si100  1  0.216253  0.505179  0.281397  1
  Si  Si101  1  0.283289  0.505095  0.609448  1
  Si  Si102  1  0.783235  0.505193  0.281392  1
  Si  Si103  1  0.283233  0.505279  0.232805  1
  Si  Si104  1  0.783289  0.504974  0.560858  1
  Si  Si105  1  0.716243  0.505266  0.232800  1
  Si  Si106  1  0.216311  0.504960  0.560855  1
  Si  Si107  1  0.000000  0.996880  0.667087  1
  Si  Si108  1  0.499870  0.996953  0.339033  1
  Si  Si109  1  0.000000  0.997002  0.175168  1
  Si  Si110  1  0.499882  0.996819  0.503216  1
  H  H111  1  0.499798  0.734722  0.078877  1
  H  H112  1  0.499835  0.253404  0.078874  1
  H  H113  1  0.499798  0.734722  0.763379  1
  H  H114  1  0.499835  0.253404  0.763376  1
