# generated using pymatgen
data_Si8H2O17
_symmetry_space_group_name_H-M   'P 1'
_cell_length_a   9.76585567
_cell_length_b   20.58166164
_cell_length_c   31.75771655
_cell_angle_alpha   90.00000000
_cell_angle_beta   96.89700000
_cell_angle_gamma   90.00000000
_symmetry_Int_Tables_number   1
_chemical_formula_structural   Si8H2O17
_chemical_formula_sum   'Si32 H8 O68'
_cell_volume   6337.03145249
_cell_formula_units_Z   4
loop_
 _symmetry_equiv_pos_site_id
 _symmetry_equiv_pos_as_xyz
  1  'x, y, z'
loop_
 _atom_site_type_symbol
 _atom_site_label
 _atom_site_symmetry_multiplicity
 _atom_site_fract_x
 _atom_site_fract_y
 _atom_site_fract_z
 _atom_site_occupancy
  O  O1  1  0.858552  0.290550  0.245346  1
  O  O2  1  0.359509  0.790354  0.245375  1
  O  O3  1  0.859429  0.709431  0.245356  1
  O  O4  1  0.358804  0.209476  0.245350  1
  O  O5  1  0.999000  0.335877  0.186929  1
  O  O6  1  0.499856  0.835882  0.187012  1
  O  O7  1  -0.000000  0.663943  0.186988  1
  O  O8  1  0.499423  0.163942  0.187054  1
  O  O9  1  0.028416  0.381939  0.264516  1
  O  O10  1  0.529099  0.881895  0.264633  1
  O  O11  1  0.029021  0.617951  0.264622  1
  O  O12  1  0.528506  0.117956  0.264664  1
  O  O13  1  0.118454  0.270110  0.248194  1
  O  O14  1  0.619392  0.770178  0.248256  1
  O  O15  1  0.119327  0.729674  0.248237  1
  O  O16  1  0.618729  0.229695  0.248320  1
  O  O17  1  0.735600  0.099959  0.319943  1
  O  O18  1  0.235546  0.599781  0.320082  1
  O  O19  1  0.735830  0.899990  0.320042  1
  O  O20  1  0.234569  0.399922  0.320131  1
  O  O21  1  0.584298  0.000000  0.293979  1
  O  O22  1  0.083722  0.499912  0.293958  1
  O  O23  1  0.998422  0.412701  0.341276  1
  O  O24  1  0.697947  0.317043  0.303123  1
  O  O25  1  0.198995  0.816901  0.303105  1
  O  O26  1  0.698863  0.682920  0.303106  1
  O  O27  1  0.198383  0.182865  0.303065  1
  O  O28  1  0.822018  0.211516  0.304000  1
  O  O29  1  0.322244  0.711224  0.303963  1
  O  O30  1  0.822440  0.788524  0.303978  1
  O  O31  1  0.321350  0.288566  0.303942  1
  O  O32  1  0.139412  0.290230  0.437461  1
  O  O33  1  0.640330  0.790438  0.437486  1
  O  O34  1  0.140254  0.709427  0.437467  1
  O  O35  1  0.639664  0.209376  0.437463  1
  O  O36  1  0.999000  0.335877  0.495767  1
  O  O37  1  0.499856  0.835882  0.495850  1
  O  O38  1  0.000000  0.663943  0.495826  1
  O  O39  1  0.499423  0.163942  0.495891  1
  O  O40  1  0.969959  0.381850  0.418116  1
  O  O41  1  0.470618  0.881887  0.418236  1
  O  O42  1  0.970534  0.617915  0.418222  1
  O  O43  1  0.470039  0.117913  0.418269  1
  O  O44  1  0.879507  0.270195  0.434525  1
  O  O45  1  0.380432  0.770129  0.434591  1
  O  O46  1  0.880366  0.729670  0.434573  1
  O  O47  1  0.379786  0.229657  0.434650  1
  O  O48  1  0.263862  0.099738  0.362662  1
  O  O49  1  0.763816  0.599910  0.362801  1
  O  O50  1  0.264092  0.899966  0.362759  1
  O  O51  1  0.762841  0.400017  0.362854  1
  O  O52  1  0.415409  0.000000  0.388867  1
  O  O53  1  0.914837  0.499907  0.388849  1
  O  O54  1  0.500047  0.087125  0.341500  1
  O  O55  1  0.008657  0.587125  0.341425  1
  O  O56  1  0.500018  0.912702  0.341440  1
  O  O57  1  0.299825  0.316825  0.379743  1
  O  O58  1  0.800873  0.816960  0.379732  1
  O  O59  1  0.300737  0.682871  0.379735  1
  O  O60  1  0.800266  0.182922  0.379691  1
  O  O61  1  0.177038  0.211082  0.378898  1
  O  O62  1  0.677242  0.711374  0.378856  1
  O  O63  1  0.177434  0.788531  0.378870  1
  O  O64  1  0.676335  0.288493  0.378828  1
  O  O65  1  -0.000000  0.135091  0.341400  1
  O  O66  1  0.499753  0.635094  0.341414  1
  O  O67  1  -0.000000  0.864731  0.341410  1
  O  O68  1  0.498728  0.364726  0.341447  1
  Si  Si69  1  -0.000000  0.320470  0.235509  1
  Si  Si70  1  0.500698  0.820462  0.235586  1
  Si  Si71  1  0.000000  0.679369  0.235562  1
  Si  Si72  1  0.500098  0.179396  0.235619  1
  Si  Si73  1  0.586100  0.074794  0.303618  1
  Si  Si74  1  0.086001  0.574769  0.303628  1
  Si  Si75  1  0.586318  0.925061  0.303623  1
  Si  Si76  1  0.085236  0.425044  0.303576  1
  Si  Si77  1  0.748167  0.263365  0.273119  1
  Si  Si78  1  0.248910  0.763187  0.273078  1
  Si  Si79  1  0.748918  0.736612  0.273085  1
  Si  Si80  1  0.248097  0.236615  0.273029  1
  Si  Si81  1  0.841684  0.154292  0.336866  1
  Si  Si82  1  0.341817  0.654114  0.336906  1
  Si  Si83  1  0.842047  0.845667  0.336900  1
  Si  Si84  1  0.340858  0.345621  0.336926  1
  Si  Si85  1  0.998256  0.320443  0.447197  1
  Si  Si86  1  0.499054  0.820453  0.447278  1
  Si  Si87  1  -0.000000  0.679363  0.447252  1
  Si  Si88  1  0.498469  0.179348  0.447310  1
  Si  Si89  1  0.413342  0.074756  0.379221  1
  Si  Si90  1  0.913247  0.574775  0.379229  1
  Si  Si91  1  0.413561  0.925035  0.379223  1
  Si  Si92  1  0.912464  0.425054  0.379175  1
  Si  Si93  1  0.250131  0.263091  0.409791  1
  Si  Si94  1  0.750842  0.763262  0.409754  1
  Si  Si95  1  0.250849  0.736594  0.409762  1
  Si  Si96  1  0.750036  0.236591  0.409699  1
  Si  Si97  1  0.157490  0.154053  0.345898  1
  Si  Si98  1  0.657630  0.654228  0.345935  1
  Si  Si99  1  0.157852  0.845645  0.345928  1
  Si  Si100  1  0.656650  0.345704  0.345953  1
  H  H101  1  0.999000  0.335877  0.158590  1
  H  H102  1  0.499856  0.835882  0.158673  1
  H  H103  1  0.000000  0.663943  0.158649  1
  H  H104  1  0.499423  0.163942  0.158714  1
  H  H105  1  0.999000  0.335877  0.524107  1
  H  H106  1  0.499856  0.835882  0.524190  1
  H  H107  1  -0.000000  0.663943  0.524166  1
  H  H108  1  0.499423  0.163942  0.524231  1
