# generated using pymatgen
data_Si12H2O25
_symmetry_space_group_name_H-M   'P 1'
_cell_length_a   14.85039366
_cell_length_b   21.00746127
_cell_length_c   59.79099961
_cell_angle_alpha   134.99733787
_cell_angle_beta   90.00000000
_cell_angle_gamma   90.00000000
_symmetry_Int_Tables_number   1
_chemical_formula_structural   Si12H2O25
_chemical_formula_sum   'Si96 H16 O200'
_cell_volume   13190.234962
_cell_formula_units_Z   8
loop_
 _symmetry_equiv_pos_site_id
 _symmetry_equiv_pos_as_xyz
  1  'x, y, z'
loop_
 _atom_site_type_symbol
 _atom_site_label
 _atom_site_symmetry_multiplicity
 _atom_site_fract_x
 _atom_site_fract_y
 _atom_site_fract_z
 _atom_site_occupancy
  O  O1  1  0.876612  0.667538  0.216518  1
  O  O2  1  -0.000000  0.614777  0.229942  1
  O  O3  1  0.876601  0.667501  0.133311  1
  O  O4  1  0.832469  0.832598  0.185296  1
  O  O5  1  0.832452  0.623333  0.329753  1
  O  O6  1  0.832480  0.623349  0.246554  1
  O  O7  1  0.832493  0.832629  0.246555  1
  O  O8  1  0.885191  0.725762  0.189383  1
  O  O9  1  0.667375  0.876819  0.185309  1
  O  O10  1  0.885205  0.500094  0.189384  1
  O  O11  1  0.725644  0.885398  0.229040  1
  O  O12  1  0.774212  0.614769  0.286023  1
  O  O13  1  0.667384  0.667565  0.268512  1
  O  O14  1  0.000000  0.774311  0.172947  1
  O  O15  1  0.667360  0.667535  0.329756  1
  O  O16  1  0.667404  0.876836  0.268515  1
  O  O17  1  0.725595  0.500074  0.286021  1
  O  O18  1  0.885192  0.500064  0.325672  1
  O  O19  1  0.725610  0.500099  0.229038  1
  O  O20  1  -0.000000  0.614760  0.342100  1
  O  O21  1  -0.000000  0.774332  0.229941  1
  O  O22  1  0.499918  0.725843  0.342108  1
  O  O23  1  0.376599  0.832649  0.133316  1
  O  O24  1  0.623246  0.832628  0.133316  1
  O  O25  1  0.623259  0.832664  0.298556  1
  O  O26  1  0.376615  0.832670  0.298553  1
  O  O27  1  0.499942  0.885416  0.285124  1
  O  O28  1  0.499917  0.885397  0.172957  1
  O  O29  1  0.499934  0.725864  0.285125  1
  O  O30  1  0.614667  0.774405  0.325681  1
  O  O31  1  0.385189  0.774416  0.325680  1
  O  O32  1  0.123260  0.667536  0.216513  1
  O  O33  1  0.123244  0.667514  0.133310  1
  O  O34  1  0.167365  0.832614  0.185298  1
  O  O35  1  0.167376  0.623340  0.329750  1
  O  O36  1  0.167397  0.623355  0.246551  1
  O  O37  1  0.167388  0.832628  0.246553  1
  O  O38  1  0.114669  0.725768  0.189381  1
  O  O39  1  0.274215  0.885404  0.229037  1
  O  O40  1  0.332484  0.876843  0.268511  1
  O  O41  1  0.225642  0.614779  0.286022  1
  O  O42  1  0.114661  0.500075  0.325672  1
  O  O43  1  0.332485  0.667574  0.268512  1
  O  O44  1  0.332455  0.876826  0.185305  1
  O  O45  1  0.332468  0.667559  0.329760  1
  O  O46  1  0.274270  0.500108  0.229038  1
  O  O47  1  0.114674  0.500094  0.189381  1
  O  O48  1  0.274257  0.500093  0.286024  1
  O  O49  1  0.832472  0.376818  0.268504  1
  O  O50  1  0.832489  0.167529  0.268499  1
  O  O51  1  0.832483  0.376838  0.185308  1
  O  O52  1  0.832496  0.167554  0.329756  1
  O  O53  1  0.876617  0.332653  0.133316  1
  O  O54  1  0.876606  0.332622  0.298538  1
  O  O55  1  0.667382  0.332607  0.246546  1
  O  O56  1  0.000000  0.385404  0.172955  1
  O  O57  1  0.000000  0.225836  0.285115  1
  O  O58  1  0.774256  0.000000  0.229028  1
  O  O59  1  0.774222  0.385407  0.229038  1
  O  O60  1  0.725653  0.114760  0.286014  1
  O  O61  1  0.885195  0.274399  0.325673  1
  O  O62  1  0.774270  0.000000  0.286024  1
  O  O63  1  0.667403  0.123350  0.329748  1
  O  O64  1  0.667392  0.123331  0.246543  1
  O  O65  1  0.667389  0.332637  0.185302  1
  O  O66  1  0.000000  0.385386  0.285111  1
  O  O67  1  0.000000  0.225855  0.342108  1
  O  O68  1  0.376607  0.167529  0.216506  1
  O  O69  1  0.623253  0.167510  0.216502  1
  O  O70  1  0.376615  0.167556  0.133312  1
  O  O71  1  0.623268  0.167547  0.133312  1
  O  O72  1  0.614658  0.000000  0.189378  1
  O  O73  1  0.385199  0.225780  0.189378  1
  O  O74  1  0.614678  0.225767  0.189376  1
  O  O75  1  0.385190  0.000000  0.189378  1
  O  O76  1  0.499944  0.274342  0.172949  1
  O  O77  1  0.499927  0.114771  0.229936  1
  O  O78  1  0.499943  0.114789  0.342101  1
  O  O79  1  0.499937  0.274319  0.229932  1
  O  O80  1  0.614675  0.000000  0.325681  1
  O  O81  1  0.385206  0.000000  0.325679  1
  O  O82  1  0.167397  0.376827  0.268505  1
  O  O83  1  0.167373  0.167541  0.268501  1
  O  O84  1  0.167408  0.376841  0.185307  1
  O  O85  1  0.167386  0.167556  0.329755  1
  O  O86  1  0.123265  0.332653  0.133315  1
  O  O87  1  0.123256  0.332633  0.298539  1
  O  O88  1  0.332482  0.123354  0.329747  1
  O  O89  1  0.332494  0.332629  0.246549  1
  O  O90  1  0.225656  0.385418  0.229038  1
  O  O91  1  0.274218  0.114765  0.286013  1
  O  O92  1  0.114674  0.274405  0.325674  1
  O  O93  1  0.225610  0.000000  0.286023  1
  O  O94  1  0.332502  0.332649  0.185304  1
  O  O95  1  0.225593  0.000000  0.229030  1
  O  O96  1  0.332463  0.123342  0.246543  1
  O  O97  1  0.876612  0.667538  0.464948  1
  O  O98  1  0.000000  0.614777  0.478371  1
  O  O99  1  0.876601  0.667501  0.381740  1
  O  O100  1  0.832469  0.832598  0.433725  1
  O  O101  1  0.832452  0.623333  0.578182  1
  O  O102  1  0.832480  0.623349  0.494984  1
  O  O103  1  0.832493  0.832629  0.494984  1
  O  O104  1  0.885191  0.725762  0.437812  1
  O  O105  1  0.667375  0.876819  0.433738  1
  O  O106  1  0.885205  0.500094  0.437813  1
  O  O107  1  0.725644  0.885398  0.477469  1
  O  O108  1  0.774212  0.614769  0.534453  1
  O  O109  1  0.667384  0.667565  0.516942  1
  O  O110  1  0.000000  0.774311  0.421376  1
  O  O111  1  0.667360  0.667535  0.578185  1
  O  O112  1  0.667404  0.876836  0.516944  1
  O  O113  1  0.725595  0.500074  0.534451  1
  O  O114  1  0.885192  0.500064  0.574101  1
  O  O115  1  0.725610  0.500099  0.477467  1
  O  O116  1  0.000000  0.614760  0.590529  1
  O  O117  1  0.000000  0.774332  0.478370  1
  O  O118  1  0.499918  0.725843  0.590537  1
  O  O119  1  0.376599  0.832649  0.381745  1
  O  O120  1  0.623246  0.832628  0.381746  1
  O  O121  1  0.623259  0.832664  0.546986  1
  O  O122  1  0.376615  0.832670  0.546982  1
  O  O123  1  0.499942  0.885416  0.533553  1
  O  O124  1  0.499917  0.885397  0.421386  1
  O  O125  1  0.499934  0.725864  0.533554  1
  O  O126  1  0.614667  0.774405  0.574110  1
  O  O127  1  0.385189  0.774416  0.574109  1
  O  O128  1  0.123260  0.667536  0.464943  1
  O  O129  1  0.123244  0.667514  0.381739  1
  O  O130  1  0.167365  0.832614  0.433727  1
  O  O131  1  0.167376  0.623340  0.578179  1
  O  O132  1  0.167397  0.623355  0.494980  1
  O  O133  1  0.167388  0.832628  0.494982  1
  O  O134  1  0.114669  0.725768  0.437810  1
  O  O135  1  0.274215  0.885404  0.477466  1
  O  O136  1  0.332484  0.876843  0.516940  1
  O  O137  1  0.225642  0.614779  0.534451  1
  O  O138  1  0.114661  0.500075  0.574101  1
  O  O139  1  0.332485  0.667574  0.516941  1
  O  O140  1  0.332455  0.876826  0.433734  1
  O  O141  1  0.332468  0.667559  0.578189  1
  O  O142  1  0.274270  0.500108  0.477467  1
  O  O143  1  0.114674  0.500094  0.437810  1
  O  O144  1  0.274257  0.500093  0.534454  1
  O  O145  1  0.832472  0.376818  0.516933  1
  O  O146  1  0.832489  0.167529  0.516928  1
  O  O147  1  0.832483  0.376838  0.433737  1
  O  O148  1  0.832496  0.167554  0.578185  1
  O  O149  1  0.876617  0.332653  0.381745  1
  O  O150  1  0.876606  0.332622  0.546967  1
  O  O151  1  0.667382  0.332607  0.494975  1
  O  O152  1  0.000000  0.385404  0.421384  1
  O  O153  1  -0.000000  0.225836  0.533545  1
  O  O154  1  0.774256  0.000000  0.477457  1
  O  O155  1  0.774222  0.385407  0.477467  1
  O  O156  1  0.725653  0.114760  0.534443  1
  O  O157  1  0.885195  0.274399  0.574103  1
  O  O158  1  0.774270  0.000000  0.534453  1
  O  O159  1  0.667403  0.123350  0.578178  1
  O  O160  1  0.667392  0.123331  0.494972  1
  O  O161  1  0.667389  0.332637  0.433731  1
  O  O162  1  0.000000  0.385386  0.533541  1
  O  O163  1  0.000000  0.225855  0.590537  1
  O  O164  1  0.376607  0.167529  0.464935  1
  O  O165  1  0.623253  0.167510  0.464932  1
  O  O166  1  0.376615  0.167556  0.381741  1
  O  O167  1  0.623268  0.167547  0.381741  1
  O  O168  1  0.614658  0.000000  0.437807  1
  O  O169  1  0.385199  0.225780  0.437807  1
  O  O170  1  0.614678  0.225767  0.437805  1
  O  O171  1  0.385190  0.000000  0.437808  1
  O  O172  1  0.499944  0.274342  0.421379  1
  O  O173  1  0.499927  0.114771  0.478365  1
  O  O174  1  0.499943  0.114789  0.590530  1
  O  O175  1  0.499937  0.274319  0.478361  1
  O  O176  1  0.614675  0.000000  0.574110  1
  O  O177  1  0.385206  0.000000  0.574108  1
  O  O178  1  0.167397  0.376827  0.516934  1
  O  O179  1  0.167373  0.167541  0.516930  1
  O  O180  1  0.167408  0.376841  0.433736  1
  O  O181  1  0.167386  0.167556  0.578184  1
  O  O182  1  0.123265  0.332653  0.381744  1
  O  O183  1  0.123256  0.332633  0.546968  1
  O  O184  1  0.332482  0.123354  0.578176  1
  O  O185  1  0.332494  0.332629  0.494978  1
  O  O186  1  0.225656  0.385418  0.477468  1
  O  O187  1  0.274218  0.114765  0.534443  1
  O  O188  1  0.114674  0.274405  0.574103  1
  O  O189  1  0.225610  0.000000  0.534452  1
  O  O190  1  0.332502  0.332649  0.433733  1
  O  O191  1  0.225593  0.000000  0.477459  1
  O  O192  1  0.332463  0.123342  0.494972  1
  O  O193  1  0.876601  0.667501  0.630170  1
  O  O194  1  0.376599  0.832649  0.630175  1
  O  O195  1  0.623246  0.832628  0.630175  1
  O  O196  1  0.123244  0.667514  0.630168  1
  O  O197  1  0.876617  0.332653  0.630175  1
  O  O198  1  0.376615  0.167556  0.630171  1
  O  O199  1  0.623268  0.167547  0.630170  1
  O  O200  1  0.123265  0.332653  0.630173  1
  Si  Si201  1  0.896594  0.750060  0.221085  1
  Si  Si202  1  0.749917  0.603403  0.257532  1
  Si  Si203  1  0.896577  0.750037  0.169746  1
  Si  Si204  1  0.749902  0.603381  0.308860  1
  Si  Si205  1  0.896593  0.603397  0.221085  1
  Si  Si206  1  0.749955  0.896784  0.257535  1
  Si  Si207  1  0.896576  0.603373  0.345305  1
  Si  Si208  1  0.749939  0.896764  0.206196  1
  Si  Si209  1  0.396590  0.750139  0.293982  1
  Si  Si210  1  0.603279  0.750130  0.293983  1
  Si  Si211  1  0.396576  0.896784  0.169752  1
  Si  Si212  1  0.603263  0.896771  0.169753  1
  Si  Si213  1  0.396597  0.896802  0.293982  1
  Si  Si214  1  0.603285  0.896796  0.293984  1
  Si  Si215  1  0.396576  0.750121  0.345311  1
  Si  Si216  1  0.603264  0.750107  0.345311  1
  Si  Si217  1  0.249901  0.896774  0.206195  1
  Si  Si218  1  0.103263  0.603381  0.345303  1
  Si  Si219  1  0.103280  0.603398  0.221082  1
  Si  Si220  1  0.249923  0.896786  0.257532  1
  Si  Si221  1  0.103282  0.750063  0.221083  1
  Si  Si222  1  0.249953  0.603411  0.257531  1
  Si  Si223  1  0.103265  0.750045  0.169745  1
  Si  Si224  1  0.249936  0.603397  0.308861  1
  Si  Si225  1  0.896596  0.250123  0.345310  1
  Si  Si226  1  0.749925  0.396793  0.206199  1
  Si  Si227  1  0.749913  0.396772  0.257528  1
  Si  Si228  1  0.896589  0.396763  0.293971  1
  Si  Si229  1  0.749949  0.103374  0.257519  1
  Si  Si230  1  0.896599  0.396787  0.169752  1
  Si  Si231  1  0.749961  0.103394  0.308857  1
  Si  Si232  1  0.896587  0.250100  0.293971  1
  Si  Si233  1  0.603279  0.250041  0.221074  1
  Si  Si234  1  0.396598  0.103412  0.345305  1
  Si  Si235  1  0.603272  0.103381  0.221075  1
  Si  Si236  1  0.396584  0.103394  0.221076  1
  Si  Si237  1  0.603286  0.250068  0.169747  1
  Si  Si238  1  0.396599  0.250075  0.169747  1
  Si  Si239  1  0.603285  0.103406  0.345306  1
  Si  Si240  1  0.396591  0.250058  0.221076  1
  Si  Si241  1  0.249962  0.396801  0.206200  1
  Si  Si242  1  0.103277  0.396771  0.293971  1
  Si  Si243  1  0.249910  0.103383  0.257520  1
  Si  Si244  1  0.103287  0.396788  0.169751  1
  Si  Si245  1  0.249921  0.103396  0.308856  1
  Si  Si246  1  0.103275  0.250110  0.293972  1
  Si  Si247  1  0.249956  0.396787  0.257530  1
  Si  Si248  1  0.103284  0.250124  0.345309  1
  Si  Si249  1  0.896594  0.750060  0.469514  1
  Si  Si250  1  0.749917  0.603403  0.505961  1
  Si  Si251  1  0.896577  0.750037  0.418175  1
  Si  Si252  1  0.749902  0.603381  0.557289  1
  Si  Si253  1  0.896593  0.603397  0.469514  1
  Si  Si254  1  0.749955  0.896784  0.505964  1
  Si  Si255  1  0.896576  0.603373  0.593734  1
  Si  Si256  1  0.749939  0.896764  0.454625  1
  Si  Si257  1  0.396590  0.750139  0.542411  1
  Si  Si258  1  0.603279  0.750130  0.542412  1
  Si  Si259  1  0.396576  0.896784  0.418181  1
  Si  Si260  1  0.603263  0.896771  0.418182  1
  Si  Si261  1  0.396597  0.896802  0.542411  1
  Si  Si262  1  0.603285  0.896796  0.542413  1
  Si  Si263  1  0.396576  0.750121  0.593740  1
  Si  Si264  1  0.603264  0.750107  0.593740  1
  Si  Si265  1  0.249901  0.896774  0.454624  1
  Si  Si266  1  0.103263  0.603381  0.593732  1
  Si  Si267  1  0.103280  0.603398  0.469511  1
  Si  Si268  1  0.249923  0.896786  0.505961  1
  Si  Si269  1  0.103282  0.750063  0.469512  1
  Si  Si270  1  0.249953  0.603411  0.505960  1
  Si  Si271  1  0.103265  0.750045  0.418174  1
  Si  Si272  1  0.249936  0.603397  0.557290  1
  Si  Si273  1  0.896596  0.250123  0.593739  1
  Si  Si274  1  0.749925  0.396793  0.454629  1
  Si  Si275  1  0.749913  0.396772  0.505957  1
  Si  Si276  1  0.896589  0.396763  0.542400  1
  Si  Si277  1  0.749949  0.103374  0.505948  1
  Si  Si278  1  0.896599  0.396787  0.418181  1
  Si  Si279  1  0.749961  0.103394  0.557286  1
  Si  Si280  1  0.896587  0.250100  0.542400  1
  Si  Si281  1  0.603279  0.250041  0.469503  1
  Si  Si282  1  0.396598  0.103412  0.593734  1
  Si  Si283  1  0.603272  0.103381  0.469504  1
  Si  Si284  1  0.396584  0.103394  0.469505  1
  Si  Si285  1  0.603286  0.250068  0.418176  1
  Si  Si286  1  0.396599  0.250075  0.418176  1
  Si  Si287  1  0.603285  0.103406  0.593735  1
  Si  Si288  1  0.396591  0.250058  0.469505  1
  Si  Si289  1  0.249962  0.396801  0.454629  1
  Si  Si290  1  0.103277  0.396771  0.542400  1
  Si  Si291  1  0.249910  0.103383  0.505949  1
  Si  Si292  1  0.103287  0.396788  0.418180  1
  Si  Si293  1  0.249921  0.103396  0.557285  1
  Si  Si294  1  0.103275  0.250110  0.542401  1
  Si  Si295  1  0.249956  0.396787  0.505959  1
  Si  Si296  1  0.103284  0.250124  0.593738  1
  H  H297  1  0.876601  0.667501  0.118259  1
  H  H298  1  0.376599  0.832649  0.118264  1
  H  H299  1  0.623246  0.832628  0.118264  1
  H  H300  1  0.123244  0.667514  0.118258  1
  H  H301  1  0.876617  0.332653  0.118264  1
  H  H302  1  0.376615  0.167556  0.118260  1
  H  H303  1  0.623268  0.167547  0.118260  1
  H  H304  1  0.123265  0.332653  0.118262  1
  H  H305  1  0.876601  0.667501  0.645222  1
  H  H306  1  0.376599  0.832649  0.645227  1
  H  H307  1  0.623246  0.832628  0.645227  1
  H  H308  1  0.123244  0.667514  0.645221  1
  H  H309  1  0.876617  0.332653  0.645227  1
  H  H310  1  0.376615  0.167556  0.645223  1
  H  H311  1  0.623268  0.167547  0.645223  1
  H  H312  1  0.123265  0.332653  0.645226  1
