# generated using pymatgen
data_Si16H2O33
_symmetry_space_group_name_H-M   'P 1'
_cell_length_a   9.76585567
_cell_length_b   20.58166164
_cell_length_c   41.56569817
_cell_angle_alpha   90.00000000
_cell_angle_beta   96.89700000
_cell_angle_gamma   90.00000000
_symmetry_Int_Tables_number   1
_chemical_formula_structural   Si16H2O33
_chemical_formula_sum   'Si64 H8 O132'
_cell_volume   8294.14596694
_cell_formula_units_Z   4
loop_
 _symmetry_equiv_pos_site_id
 _symmetry_equiv_pos_as_xyz
  1  'x, y, z'
loop_
 _atom_site_type_symbol
 _atom_site_label
 _atom_site_symmetry_multiplicity
 _atom_site_fract_x
 _atom_site_fract_y
 _atom_site_fract_z
 _atom_site_occupancy
  O  O1  1  0.858552  0.290550  0.187453  1
  O  O2  1  0.359509  0.790354  0.187475  1
  O  O3  1  0.859429  0.709431  0.187461  1
  O  O4  1  0.358804  0.209476  0.187456  1
  O  O5  1  0.999000  0.335877  0.142821  1
  O  O6  1  0.499856  0.835882  0.142884  1
  O  O7  1  0.000000  0.663943  0.142866  1
  O  O8  1  0.499423  0.163942  0.142916  1
  O  O9  1  0.028416  0.381939  0.202100  1
  O  O10  1  0.529099  0.881895  0.202190  1
  O  O11  1  0.029021  0.617951  0.202181  1
  O  O12  1  0.528506  0.117956  0.202213  1
  O  O13  1  0.118454  0.270110  0.189629  1
  O  O14  1  0.619392  0.770178  0.189677  1
  O  O15  1  0.119327  0.729674  0.189662  1
  O  O16  1  0.618729  0.229695  0.189726  1
  O  O17  1  0.735600  0.099959  0.244449  1
  O  O18  1  0.235546  0.599781  0.244555  1
  O  O19  1  0.735830  0.899990  0.244524  1
  O  O20  1  0.234569  0.399922  0.244592  1
  O  O21  1  0.584298  -0.000000  0.224610  1
  O  O22  1  0.083722  0.499912  0.224595  1
  O  O23  1  0.998422  0.412701  0.260747  1
  O  O24  1  0.697947  0.317043  0.231597  1
  O  O25  1  0.198995  0.816901  0.231583  1
  O  O26  1  0.698863  0.682920  0.231584  1
  O  O27  1  0.198383  0.182865  0.231552  1
  O  O28  1  0.822018  0.211516  0.232267  1
  O  O29  1  0.322244  0.711224  0.232239  1
  O  O30  1  0.822440  0.788524  0.232250  1
  O  O31  1  0.321350  0.288566  0.232223  1
  O  O32  1  0.139412  0.290230  0.334236  1
  O  O33  1  0.640330  0.790438  0.334255  1
  O  O34  1  0.858552  0.290550  0.423417  1
  O  O35  1  0.359509  0.790354  0.423439  1
  O  O36  1  0.859429  0.709431  0.423424  1
  O  O37  1  0.358804  0.209476  0.423420  1
  O  O38  1  0.140254  0.709427  0.334241  1
  O  O39  1  0.639664  0.209376  0.334238  1
  O  O40  1  0.999000  0.335877  0.378784  1
  O  O41  1  0.499856  0.835882  0.378848  1
  O  O42  1  -0.000000  0.663943  0.378829  1
  O  O43  1  0.499423  0.163942  0.378879  1
  O  O44  1  0.969959  0.381850  0.319456  1
  O  O45  1  0.470618  0.881887  0.319548  1
  O  O46  1  0.028416  0.381939  0.438064  1
  O  O47  1  0.529099  0.881895  0.438153  1
  O  O48  1  0.029021  0.617951  0.438144  1
  O  O49  1  0.528506  0.117956  0.438177  1
  O  O50  1  0.970534  0.617915  0.319537  1
  O  O51  1  0.470039  0.117913  0.319573  1
  O  O52  1  0.879507  0.270195  0.331993  1
  O  O53  1  0.380432  0.770129  0.332043  1
  O  O54  1  0.118454  0.270110  0.425592  1
  O  O55  1  0.619392  0.770178  0.425640  1
  O  O56  1  0.119327  0.729674  0.425626  1
  O  O57  1  0.618729  0.229695  0.425689  1
  O  O58  1  0.880366  0.729670  0.332029  1
  O  O59  1  0.379786  0.229657  0.332089  1
  O  O60  1  0.263862  0.099738  0.277087  1
  O  O61  1  0.763816  0.599910  0.277193  1
  O  O62  1  0.735600  0.099959  0.480412  1
  O  O63  1  0.235546  0.599781  0.480518  1
  O  O64  1  0.735830  0.899990  0.480487  1
  O  O65  1  0.234569  0.399922  0.480555  1
  O  O66  1  0.264092  0.899966  0.277161  1
  O  O67  1  0.762841  0.400017  0.277234  1
  O  O68  1  0.415409  -0.000000  0.297108  1
  O  O69  1  0.914837  0.499907  0.297095  1
  O  O70  1  0.584298  -0.000000  0.460574  1
  O  O71  1  0.083722  0.499912  0.460558  1
  O  O72  1  0.500047  0.087125  0.260919  1
  O  O73  1  0.008657  0.587125  0.260861  1
  O  O74  1  0.500018  0.912702  0.260873  1
  O  O75  1  0.998422  0.412701  0.496710  1
  O  O76  1  0.299825  0.316825  0.290138  1
  O  O77  1  0.800873  0.816960  0.290129  1
  O  O78  1  0.697947  0.317043  0.467560  1
  O  O79  1  0.198995  0.816901  0.467547  1
  O  O80  1  0.698863  0.682920  0.467547  1
  O  O81  1  0.198383  0.182865  0.467516  1
  O  O82  1  0.300737  0.682871  0.290132  1
  O  O83  1  0.800266  0.182922  0.290098  1
  O  O84  1  0.177038  0.211082  0.289492  1
  O  O85  1  0.677242  0.711374  0.289460  1
  O  O86  1  0.822018  0.211516  0.468230  1
  O  O87  1  0.322244  0.711224  0.468202  1
  O  O88  1  0.822440  0.788524  0.468214  1
  O  O89  1  0.321350  0.288566  0.468186  1
  O  O90  1  0.177434  0.788531  0.289470  1
  O  O91  1  0.676335  0.288493  0.289439  1
  O  O92  1  -0.000000  0.135091  0.260842  1
  O  O93  1  0.499753  0.635094  0.260853  1
  O  O94  1  0.000000  0.864731  0.260850  1
  O  O95  1  0.498728  0.364726  0.260878  1
  O  O96  1  0.139412  0.290230  0.570200  1
  O  O97  1  0.640330  0.790438  0.570219  1
  O  O98  1  0.140254  0.709427  0.570204  1
  O  O99  1  0.639664  0.209376  0.570201  1
  O  O100  1  0.999000  0.335877  0.614747  1
  O  O101  1  0.499856  0.835882  0.614811  1
  O  O102  1  -0.000000  0.663943  0.614793  1
  O  O103  1  0.499423  0.163942  0.614843  1
  O  O104  1  0.969959  0.381850  0.555419  1
  O  O105  1  0.470618  0.881887  0.555511  1
  O  O106  1  0.970534  0.617915  0.555500  1
  O  O107  1  0.470039  0.117913  0.555536  1
  O  O108  1  0.879507  0.270195  0.567956  1
  O  O109  1  0.380432  0.770129  0.568007  1
  O  O110  1  0.880366  0.729670  0.567993  1
  O  O111  1  0.379786  0.229657  0.568052  1
  O  O112  1  0.263862  0.099738  0.513051  1
  O  O113  1  0.763816  0.599910  0.513156  1
  O  O114  1  0.264092  0.899966  0.513124  1
  O  O115  1  0.762841  0.400017  0.513197  1
  O  O116  1  0.415409  -0.000000  0.533072  1
  O  O117  1  0.914837  0.499907  0.533058  1
  O  O118  1  0.500047  0.087125  0.496882  1
  O  O119  1  0.008657  0.587125  0.496824  1
  O  O120  1  0.500018  0.912702  0.496836  1
  O  O121  1  0.299825  0.316825  0.526101  1
  O  O122  1  0.800873  0.816960  0.526093  1
  O  O123  1  0.300737  0.682871  0.526095  1
  O  O124  1  0.800266  0.182922  0.526061  1
  O  O125  1  0.177038  0.211082  0.525455  1
  O  O126  1  0.677242  0.711374  0.525423  1
  O  O127  1  0.177434  0.788531  0.525434  1
  O  O128  1  0.676335  0.288493  0.525402  1
  O  O129  1  0.000000  0.135091  0.496805  1
  O  O130  1  0.499753  0.635094  0.496816  1
  O  O131  1  -0.000000  0.864731  0.496813  1
  O  O132  1  0.498728  0.364726  0.496841  1
  Si  Si133  1  -0.000000  0.320470  0.179937  1
  Si  Si134  1  0.500698  0.820462  0.179996  1
  Si  Si135  1  -0.000000  0.679369  0.179978  1
  Si  Si136  1  0.500098  0.179396  0.180022  1
  Si  Si137  1  0.586100  0.074794  0.231976  1
  Si  Si138  1  0.086001  0.574769  0.231983  1
  Si  Si139  1  0.586318  0.925061  0.231979  1
  Si  Si140  1  0.085236  0.425044  0.231943  1
  Si  Si141  1  0.748167  0.263365  0.208673  1
  Si  Si142  1  0.248910  0.763187  0.208641  1
  Si  Si143  1  0.748918  0.736612  0.208647  1
  Si  Si144  1  0.248097  0.236615  0.208605  1
  Si  Si145  1  0.841684  0.154292  0.257378  1
  Si  Si146  1  0.341817  0.654114  0.257409  1
  Si  Si147  1  0.842047  0.845667  0.257404  1
  Si  Si148  1  0.340858  0.345621  0.257424  1
  Si  Si149  1  0.998256  0.320443  0.341675  1
  Si  Si150  1  0.499054  0.820453  0.341737  1
  Si  Si151  1  0.000000  0.320470  0.415901  1
  Si  Si152  1  0.500698  0.820462  0.415960  1
  Si  Si153  1  -0.000000  0.679369  0.415941  1
  Si  Si154  1  0.500098  0.179396  0.415985  1
  Si  Si155  1  -0.000000  0.679363  0.341717  1
  Si  Si156  1  0.498469  0.179348  0.341761  1
  Si  Si157  1  0.413342  0.074756  0.289738  1
  Si  Si158  1  0.913247  0.574775  0.289745  1
  Si  Si159  1  0.586100  0.074794  0.467939  1
  Si  Si160  1  0.086001  0.574769  0.467946  1
  Si  Si161  1  0.586318  0.925061  0.467942  1
  Si  Si162  1  0.085236  0.425044  0.467907  1
  Si  Si163  1  0.413561  0.925035  0.289741  1
  Si  Si164  1  0.912464  0.425054  0.289703  1
  Si  Si165  1  0.250131  0.263091  0.313096  1
  Si  Si166  1  0.750842  0.763262  0.313067  1
  Si  Si167  1  0.748167  0.263365  0.444636  1
  Si  Si168  1  0.248910  0.763187  0.444605  1
  Si  Si169  1  0.748918  0.736612  0.444611  1
  Si  Si170  1  0.248097  0.236615  0.444568  1
  Si  Si171  1  0.250849  0.736594  0.313073  1
  Si  Si172  1  0.750036  0.236591  0.313025  1
  Si  Si173  1  0.157490  0.154053  0.264279  1
  Si  Si174  1  0.657630  0.654228  0.264307  1
  Si  Si175  1  0.841684  0.154292  0.493342  1
  Si  Si176  1  0.341817  0.654114  0.493372  1
  Si  Si177  1  0.842047  0.845667  0.493367  1
  Si  Si178  1  0.340858  0.345621  0.493387  1
  Si  Si179  1  0.157852  0.845645  0.264301  1
  Si  Si180  1  0.656650  0.345704  0.264321  1
  Si  Si181  1  0.998256  0.320443  0.577638  1
  Si  Si182  1  0.499054  0.820453  0.577700  1
  Si  Si183  1  -0.000000  0.679363  0.577680  1
  Si  Si184  1  0.498469  0.179348  0.577725  1
  Si  Si185  1  0.413342  0.074756  0.525702  1
  Si  Si186  1  0.913247  0.574775  0.525708  1
  Si  Si187  1  0.413561  0.925035  0.525704  1
  Si  Si188  1  0.912464  0.425054  0.525667  1
  Si  Si189  1  0.250131  0.263091  0.549059  1
  Si  Si190  1  0.750842  0.763262  0.549030  1
  Si  Si191  1  0.250849  0.736594  0.549036  1
  Si  Si192  1  0.750036  0.236591  0.548988  1
  Si  Si193  1  0.157490  0.154053  0.500242  1
  Si  Si194  1  0.657630  0.654228  0.500270  1
  Si  Si195  1  0.157852  0.845645  0.500265  1
  Si  Si196  1  0.656650  0.345704  0.500284  1
  H  H197  1  0.999000  0.335877  0.121168  1
  H  H198  1  0.499856  0.835882  0.121232  1
  H  H199  1  -0.000000  0.663943  0.121213  1
  H  H200  1  0.499423  0.163942  0.121263  1
  H  H201  1  0.999000  0.335877  0.636400  1
  H  H202  1  0.499856  0.835882  0.636463  1
  H  H203  1  -0.000000  0.663943  0.636445  1
  H  H204  1  0.499423  0.163942  0.636495  1
