# generated using pymatgen
data_Si32H2O65
_symmetry_space_group_name_H-M   'P 1'
_cell_length_a   7.67612438
_cell_length_b   7.67900504
_cell_length_c   76.41246484
_cell_angle_alpha   90.00000000
_cell_angle_beta   90.00000000
_cell_angle_gamma   90.00000000
_symmetry_Int_Tables_number   1
_chemical_formula_structural   Si32H2O65
_chemical_formula_sum   'Si64 H4 O130'
_cell_volume   4504.13257224
_cell_formula_units_Z   2
loop_
 _symmetry_equiv_pos_site_id
 _symmetry_equiv_pos_as_xyz
  1  'x, y, z'
loop_
 _atom_site_type_symbol
 _atom_site_label
 _atom_site_symmetry_multiplicity
 _atom_site_fract_x
 _atom_site_fract_y
 _atom_site_fract_z
 _atom_site_occupancy
  O  O1  1  0.169268  0.010207  0.106544  1
  O  O2  1  0.670049  0.515009  0.285031  1
  O  O3  1  0.736152  0.419197  0.374369  1
  O  O4  1  0.238157  0.919793  0.195784  1
  O  O5  1  0.330247  0.985212  0.284958  1
  O  O6  1  0.830181  0.487775  0.106486  1
  O  O7  1  0.761685  0.580432  0.195810  1
  O  O8  1  0.264800  0.079677  0.374387  1
  O  O9  1  0.830212  0.011085  0.106514  1
  O  O10  1  0.330313  0.515011  0.285000  1
  O  O11  1  0.264791  0.419205  0.374326  1
  O  O12  1  0.761929  0.919748  0.195763  1
  O  O13  1  0.670085  0.985157  0.284983  1
  O  O14  1  0.169226  0.488591  0.106516  1
  O  O15  1  0.238369  0.580477  0.195840  1
  O  O16  1  0.736201  0.079644  0.374435  1
  O  O17  1  0.830586  0.984919  0.405169  1
  O  O18  1  0.330290  0.488139  0.226398  1
  O  O19  1  0.264793  0.579605  0.137160  1
  O  O20  1  0.761112  0.080793  0.315624  1
  O  O21  1  0.669630  0.011690  0.226324  1
  O  O22  1  0.170087  0.513604  0.405059  1
  O  O23  1  0.238698  0.419875  0.315647  1
  O  O24  1  0.735030  0.919442  0.137158  1
  O  O25  1  0.170101  0.984950  0.405102  1
  O  O26  1  0.669591  0.488253  0.226362  1
  O  O27  1  0.734974  0.579697  0.137133  1
  O  O28  1  0.239477  0.080799  0.315599  1
  O  O29  1  0.330335  0.011833  0.226350  1
  O  O30  1  0.830553  0.513582  0.405123  1
  O  O31  1  0.761954  0.419854  0.315681  1
  O  O32  1  0.264797  0.919465  0.137186  1
  O  O33  1  0.000000  0.026598  0.215963  1
  O  O34  1  0.500348  0.526508  0.394742  1
  O  O35  1  0.723228  0.249566  0.126671  1
  O  O36  1  0.222617  0.750335  0.305389  1
  O  O37  1  0.500363  0.972101  0.394788  1
  O  O38  1  -0.000000  0.473586  0.215990  1
  O  O39  1  0.777849  0.750325  0.305414  1
  O  O40  1  0.275964  0.249537  0.126644  1
  O  O41  1  0.000000  0.974169  0.295493  1
  O  O42  1  0.499704  0.472009  0.116734  1
  O  O43  1  0.277794  0.749412  0.384708  1
  O  O44  1  0.776609  0.250103  0.206178  1
  O  O45  1  0.499733  0.026979  0.116757  1
  O  O46  1  -0.000000  0.526650  0.295485  1
  O  O47  1  0.223343  0.250143  0.206195  1
  O  O48  1  0.723122  0.749393  0.384757  1
  O  O49  1  0.998798  0.749418  0.097468  1
  O  O50  1  0.500260  0.250123  0.277614  1
  O  O51  1  -0.000000  0.249382  0.366808  1
  O  O52  1  0.499973  0.750238  0.186888  1
  O  O53  1  0.000000  0.249369  0.412674  1
  O  O54  1  0.499894  0.750069  0.235265  1
  O  O55  1  -0.000000  0.749476  0.144546  1
  O  O56  1  0.500301  0.251156  0.324689  1
  O  O57  1  0.001185  0.491977  0.077213  1
  O  O58  1  0.500354  0.008182  0.255554  1
  O  O59  1  0.242643  0.248645  0.344905  1
  O  O60  1  0.757737  0.749412  0.166566  1
  O  O61  1  0.500447  0.492354  0.255598  1
  O  O62  1  0.001226  0.007106  0.077250  1
  O  O63  1  0.241942  0.749365  0.166593  1
  O  O64  1  0.757717  0.248528  0.344943  1
  O  O65  1  0.169268  0.010207  0.463878  1
  O  O66  1  0.670049  0.515009  0.642366  1
  O  O67  1  0.736152  0.419197  0.731703  1
  O  O68  1  0.238157  0.919793  0.553118  1
  O  O69  1  0.330247  0.985212  0.642293  1
  O  O70  1  0.830181  0.487775  0.463820  1
  O  O71  1  0.761685  0.580432  0.553145  1
  O  O72  1  0.264800  0.079677  0.731721  1
  O  O73  1  0.830212  0.011085  0.463848  1
  O  O74  1  0.330313  0.515011  0.642334  1
  O  O75  1  0.264791  0.419205  0.731660  1
  O  O76  1  0.761929  0.919748  0.553098  1
  O  O77  1  0.670085  0.985157  0.642317  1
  O  O78  1  0.169226  0.488591  0.463851  1
  O  O79  1  0.238369  0.580477  0.553175  1
  O  O80  1  0.736201  0.079644  0.731769  1
  O  O81  1  0.830586  0.984919  0.762503  1
  O  O82  1  0.330290  0.488139  0.583732  1
  O  O83  1  0.264793  0.579605  0.494495  1
  O  O84  1  0.761112  0.080793  0.672959  1
  O  O85  1  0.669630  0.011690  0.583658  1
  O  O86  1  0.170087  0.513604  0.762393  1
  O  O87  1  0.238698  0.419875  0.672982  1
  O  O88  1  0.735030  0.919442  0.494493  1
  O  O89  1  0.170101  0.984950  0.762437  1
  O  O90  1  0.669591  0.488253  0.583696  1
  O  O91  1  0.734974  0.579697  0.494468  1
  O  O92  1  0.239477  0.080799  0.672933  1
  O  O93  1  0.330335  0.011833  0.583684  1
  O  O94  1  0.830553  0.513582  0.762457  1
  O  O95  1  0.761954  0.419854  0.673015  1
  O  O96  1  0.264797  0.919465  0.494520  1
  O  O97  1  0.000000  0.026598  0.573298  1
  O  O98  1  0.500348  0.526508  0.752076  1
  O  O99  1  0.723228  0.249566  0.484006  1
  O  O100  1  0.222617  0.750335  0.662723  1
  O  O101  1  0.500363  0.972101  0.752123  1
  O  O102  1  -0.000000  0.473586  0.573325  1
  O  O103  1  0.777849  0.750325  0.662749  1
  O  O104  1  0.275964  0.249537  0.483979  1
  O  O105  1  0.000000  0.974169  0.652827  1
  O  O106  1  0.499704  0.472009  0.474068  1
  O  O107  1  0.277794  0.749412  0.742042  1
  O  O108  1  0.776609  0.250103  0.563512  1
  O  O109  1  0.499733  0.026979  0.474091  1
  O  O110  1  0.000000  0.526650  0.652820  1
  O  O111  1  0.223343  0.250143  0.563529  1
  O  O112  1  0.723122  0.749393  0.742091  1
  O  O113  1  0.998798  0.749418  0.454802  1
  O  O114  1  0.500260  0.250123  0.634949  1
  O  O115  1  -0.000000  0.249382  0.724143  1
  O  O116  1  0.499973  0.750238  0.544222  1
  O  O117  1  -0.000000  0.249369  0.770009  1
  O  O118  1  0.499894  0.750069  0.592599  1
  O  O119  1  -0.000000  0.749476  0.501880  1
  O  O120  1  0.500301  0.251156  0.682023  1
  O  O121  1  0.001185  0.491977  0.434547  1
  O  O122  1  0.500354  0.008182  0.612888  1
  O  O123  1  0.242643  0.248645  0.702239  1
  O  O124  1  0.757737  0.749412  0.523900  1
  O  O125  1  0.500447  0.492354  0.612932  1
  O  O126  1  0.001226  0.007106  0.434584  1
  O  O127  1  0.241942  0.749365  0.523927  1
  O  O128  1  0.757717  0.248528  0.702278  1
  O  O129  1  0.001185  0.491977  0.791881  1
  O  O130  1  0.001226  0.007106  0.791919  1
  Si  Si131  1  -0.000000  0.548365  0.096759  1
  Si  Si132  1  0.500248  0.049565  0.275505  1
  Si  Si133  1  0.200859  0.249254  0.364839  1
  Si  Si134  1  0.701068  0.749980  0.186097  1
  Si  Si135  1  0.500274  0.450713  0.275542  1
  Si  Si136  1  -0.000000  0.950484  0.096788  1
  Si  Si137  1  0.298873  0.749990  0.186117  1
  Si  Si138  1  0.799859  0.249226  0.364871  1
  Si  Si139  1  -0.000000  0.449926  0.414617  1
  Si  Si140  1  0.500041  0.951218  0.236030  1
  Si  Si141  1  0.799365  0.749489  0.146622  1
  Si  Si142  1  0.299284  0.250263  0.325368  1
  Si  Si143  1  0.500037  0.548929  0.236064  1
  Si  Si144  1  0.000000  0.048838  0.414649  1
  Si  Si145  1  0.701309  0.250237  0.325398  1
  Si  Si146  1  0.200424  0.749463  0.146645  1
  Si  Si147  1  0.699441  0.948424  0.389794  1
  Si  Si148  1  0.199210  0.449382  0.211112  1
  Si  Si149  1  0.801001  0.949450  0.300389  1
  Si  Si150  1  0.300610  0.448761  0.121748  1
  Si  Si151  1  0.800765  0.050773  0.211055  1
  Si  Si152  1  0.301373  0.550285  0.389707  1
  Si  Si153  1  0.698833  0.050345  0.121762  1
  Si  Si154  1  0.199349  0.551161  0.300390  1
  Si  Si155  1  0.301396  0.948438  0.389748  1
  Si  Si156  1  0.800724  0.449360  0.211087  1
  Si  Si157  1  0.199386  0.949460  0.300369  1
  Si  Si158  1  0.698811  0.448735  0.121742  1
  Si  Si159  1  0.199220  0.050812  0.211074  1
  Si  Si160  1  0.699430  0.550258  0.389749  1
  Si  Si161  1  0.300643  0.050265  0.121770  1
  Si  Si162  1  0.801067  0.551141  0.300416  1
  Si  Si163  1  0.000000  0.548365  0.454093  1
  Si  Si164  1  0.500248  0.049565  0.632839  1
  Si  Si165  1  0.200859  0.249254  0.722173  1
  Si  Si166  1  0.701068  0.749980  0.543432  1
  Si  Si167  1  0.500274  0.450713  0.632876  1
  Si  Si168  1  0.000000  0.950484  0.454122  1
  Si  Si169  1  0.298873  0.749990  0.543451  1
  Si  Si170  1  0.799859  0.249226  0.722206  1
  Si  Si171  1  0.000000  0.449926  0.771951  1
  Si  Si172  1  0.500041  0.951218  0.593365  1
  Si  Si173  1  0.799365  0.749489  0.503957  1
  Si  Si174  1  0.299284  0.250263  0.682702  1
  Si  Si175  1  0.500037  0.548929  0.593398  1
  Si  Si176  1  0.000000  0.048838  0.771983  1
  Si  Si177  1  0.701309  0.250237  0.682732  1
  Si  Si178  1  0.200424  0.749463  0.503979  1
  Si  Si179  1  0.699441  0.948424  0.747128  1
  Si  Si180  1  0.199210  0.449382  0.568446  1
  Si  Si181  1  0.801001  0.949450  0.657723  1
  Si  Si182  1  0.300610  0.448761  0.479083  1
  Si  Si183  1  0.800765  0.050773  0.568390  1
  Si  Si184  1  0.301373  0.550285  0.747041  1
  Si  Si185  1  0.698833  0.050345  0.479096  1
  Si  Si186  1  0.199349  0.551161  0.657724  1
  Si  Si187  1  0.301396  0.948438  0.747082  1
  Si  Si188  1  0.800724  0.449360  0.568422  1
  Si  Si189  1  0.199386  0.949460  0.657703  1
  Si  Si190  1  0.698811  0.448735  0.479076  1
  Si  Si191  1  0.199220  0.050812  0.568408  1
  Si  Si192  1  0.699430  0.550258  0.747083  1
  Si  Si193  1  0.300643  0.050265  0.479104  1
  Si  Si194  1  0.801067  0.551141  0.657750  1
  H  H195  1  0.001185  0.491977  0.065434  1
  H  H196  1  0.001226  0.007106  0.065472  1
  H  H197  1  0.001185  0.491977  0.803659  1
  H  H198  1  0.001226  0.007106  0.803697  1
