# generated using pymatgen
data_Si32H2O65
_symmetry_space_group_name_H-M   'P 1'
_cell_length_a   7.15454545
_cell_length_b   7.18682161
_cell_length_c   96.66198389
_cell_angle_alpha   90.00000000
_cell_angle_beta   90.00000000
_cell_angle_gamma   90.00300000
_symmetry_Int_Tables_number   1
_chemical_formula_structural   Si32H2O65
_chemical_formula_sum   'Si64 H4 O130'
_cell_volume   4970.20859078
_cell_formula_units_Z   2
loop_
 _symmetry_equiv_pos_site_id
 _symmetry_equiv_pos_as_xyz
  1  'x, y, z'
loop_
 _atom_site_type_symbol
 _atom_site_label
 _atom_site_symmetry_multiplicity
 _atom_site_fract_x
 _atom_site_fract_y
 _atom_site_fract_z
 _atom_site_occupancy
  O  O1  1  0.171590  0.994364  0.405219  1
  O  O2  1  0.671647  0.994384  0.190073  1
  O  O3  1  0.828132  0.994356  0.405223  1
  O  O4  1  0.328188  0.994374  0.190081  1
  O  O5  1  0.828097  0.994426  0.061037  1
  O  O6  1  0.328197  0.994301  0.276177  1
  O  O7  1  0.171556  0.994434  0.061040  1
  O  O8  1  0.671655  0.994310  0.276184  1
  O  O9  1  0.323550  0.814324  0.426311  1
  O  O10  1  0.823645  0.814246  0.211161  1
  O  O11  1  0.676313  0.173543  0.426338  1
  O  O12  1  0.176408  0.173465  0.211199  1
  O  O13  1  0.176410  0.173474  0.255062  1
  O  O14  1  0.823648  0.814255  0.255094  1
  O  O15  1  -0.000000  0.993793  0.427158  1
  O  O16  1  0.500010  0.993706  0.212014  1
  O  O17  1  0.500013  0.993723  0.254244  1
  O  O18  1  0.323509  0.173533  0.426331  1
  O  O19  1  0.823599  0.173455  0.211188  1
  O  O20  1  0.676241  0.814338  0.426319  1
  O  O21  1  0.176331  0.814259  0.211175  1
  O  O22  1  0.176337  0.814269  0.255080  1
  O  O23  1  0.823606  0.173465  0.255073  1
  O  O24  1  0.499898  0.493985  0.428848  1
  O  O25  1  0.000000  0.493903  0.213704  1
  O  O26  1  -0.000000  0.493917  0.252554  1
  O  O27  1  0.000000  0.734655  0.233128  1
  O  O28  1  -0.000000  0.253336  0.233130  1
  O  O29  1  -0.000000  0.830428  0.383259  1
  O  O30  1  0.499819  0.830513  0.168114  1
  O  O31  1  -0.000000  0.172138  0.384020  1
  O  O32  1  0.499809  0.172223  0.168877  1
  O  O33  1  -0.000000  0.172293  0.082236  1
  O  O34  1  0.499835  0.172044  0.297385  1
  O  O35  1  0.000000  0.830585  0.083004  1
  O  O36  1  0.499845  0.830331  0.298140  1
  O  O37  1  0.179520  0.685306  0.361959  1
  O  O38  1  0.679473  0.685407  0.146813  1
  O  O39  1  0.819559  0.332904  0.363324  1
  O  O40  1  0.319511  0.333004  0.148181  1
  O  O41  1  0.819504  0.333116  0.102931  1
  O  O42  1  0.319566  0.332746  0.318084  1
  O  O43  1  0.179463  0.685513  0.104305  1
  O  O44  1  0.679532  0.685152  0.319438  1
  O  O45  1  -0.000000  0.010279  0.361689  1
  O  O46  1  0.499736  0.010383  0.146545  1
  O  O47  1  0.000000  0.010499  0.104570  1
  O  O48  1  0.499796  0.010112  0.319713  1
  O  O49  1  0.820078  0.685292  0.361961  1
  O  O50  1  0.320023  0.685390  0.146818  1
  O  O51  1  0.180015  0.332917  0.363322  1
  O  O52  1  0.679963  0.333014  0.148177  1
  O  O53  1  0.179958  0.333128  0.102934  1
  O  O54  1  0.680021  0.332758  0.318086  1
  O  O55  1  0.820021  0.685498  0.104301  1
  O  O56  1  0.320079  0.685137  0.319435  1
  O  O57  1  0.499792  0.508111  0.359567  1
  O  O58  1  0.000000  0.508209  0.144423  1
  O  O59  1  0.499734  0.508311  0.106692  1
  O  O60  1  0.000000  0.507966  0.321836  1
  O  O61  1  0.749806  0.492441  0.340702  1
  O  O62  1  0.249764  0.492569  0.125559  1
  O  O63  1  0.249810  0.492441  0.340701  1
  O  O64  1  0.749761  0.492568  0.125555  1
  O  O65  1  0.171590  0.994364  0.835505  1
  O  O66  1  0.671647  0.994384  0.620359  1
  O  O67  1  0.828132  0.994356  0.835509  1
  O  O68  1  0.328188  0.994374  0.620367  1
  O  O69  1  0.828097  0.994426  0.491324  1
  O  O70  1  0.328197  0.994301  0.706463  1
  O  O71  1  0.171556  0.994434  0.491326  1
  O  O72  1  0.671655  0.994310  0.706471  1
  O  O73  1  0.823645  0.814246  0.641448  1
  O  O74  1  0.176408  0.173465  0.641485  1
  O  O75  1  0.676259  0.173537  0.470208  1
  O  O76  1  0.176410  0.173474  0.685348  1
  O  O77  1  0.323497  0.814317  0.470235  1
  O  O78  1  0.823648  0.814255  0.685380  1
  O  O79  1  0.500010  0.993706  0.642300  1
  O  O80  1  -0.000000  0.993779  0.469388  1
  O  O81  1  0.500013  0.993723  0.684530  1
  O  O82  1  0.823599  0.173455  0.641474  1
  O  O83  1  0.176331  0.814259  0.641461  1
  O  O84  1  0.676184  0.814328  0.470232  1
  O  O85  1  0.176337  0.814269  0.685366  1
  O  O86  1  0.323452  0.173525  0.470210  1
  O  O87  1  0.823606  0.173465  0.685359  1
  O  O88  1  0.000000  0.493903  0.643990  1
  O  O89  1  0.499846  0.493972  0.467698  1
  O  O90  1  0.000000  0.493917  0.682840  1
  O  O91  1  0.499798  0.734722  0.448274  1
  O  O92  1  0.000000  0.734655  0.663414  1
  O  O93  1  0.499835  0.253404  0.448272  1
  O  O94  1  0.000000  0.253336  0.663416  1
  O  O95  1  -0.000000  0.830428  0.813545  1
  O  O96  1  0.499819  0.830513  0.598400  1
  O  O97  1  0.000000  0.172138  0.814306  1
  O  O98  1  0.499809  0.172223  0.599163  1
  O  O99  1  0.000000  0.172293  0.512523  1
  O  O100  1  0.499835  0.172044  0.727671  1
  O  O101  1  0.000000  0.830585  0.513290  1
  O  O102  1  0.499845  0.830331  0.728427  1
  O  O103  1  0.179520  0.685306  0.792245  1
  O  O104  1  0.679473  0.685407  0.577100  1
  O  O105  1  0.819559  0.332904  0.793610  1
  O  O106  1  0.319511  0.333004  0.578467  1
  O  O107  1  0.819504  0.333116  0.533217  1
  O  O108  1  0.319566  0.332746  0.748370  1
  O  O109  1  0.179463  0.685513  0.534592  1
  O  O110  1  0.679532  0.685152  0.749724  1
  O  O111  1  0.000000  0.010279  0.791975  1
  O  O112  1  0.499736  0.010383  0.576831  1
  O  O113  1  0.000000  0.010499  0.534856  1
  O  O114  1  0.499796  0.010112  0.749999  1
  O  O115  1  0.820078  0.685292  0.792247  1
  O  O116  1  0.320023  0.685390  0.577105  1
  O  O117  1  0.180015  0.332917  0.793608  1
  O  O118  1  0.679963  0.333014  0.578463  1
  O  O119  1  0.179958  0.333128  0.533221  1
  O  O120  1  0.680021  0.332758  0.748372  1
  O  O121  1  0.820021  0.685498  0.534587  1
  O  O122  1  0.320079  0.685137  0.749721  1
  O  O123  1  0.499792  0.508111  0.789853  1
  O  O124  1  -0.000000  0.508209  0.574709  1
  O  O125  1  0.499734  0.508311  0.536978  1
  O  O126  1  0.000000  0.507966  0.752122  1
  O  O127  1  0.749806  0.492441  0.770989  1
  O  O128  1  0.249764  0.492569  0.555846  1
  O  O129  1  0.249810  0.492441  0.770987  1
  O  O130  1  0.749761  0.492568  0.555842  1
  Si  Si131  1  0.212600  0.993940  0.421650  1
  Si  Si132  1  0.712687  0.993877  0.206503  1
  Si  Si133  1  0.787196  0.993948  0.421655  1
  Si  Si134  1  0.287288  0.993884  0.206513  1
  Si  Si135  1  0.287296  0.993880  0.259745  1
  Si  Si136  1  0.712688  0.993873  0.259754  1
  Si  Si137  1  0.499870  0.708637  0.432183  1
  Si  Si138  1  -0.000000  0.708558  0.217037  1
  Si  Si139  1  0.499893  0.279333  0.432184  1
  Si  Si140  1  -0.000000  0.279257  0.217042  1
  Si  Si141  1  0.000000  0.279264  0.249218  1
  Si  Si142  1  0.000000  0.708569  0.249219  1
  Si  Si143  1  -0.000000  0.796265  0.366736  1
  Si  Si144  1  0.499762  0.796357  0.151591  1
  Si  Si145  1  0.000000  0.219940  0.367706  1
  Si  Si146  1  0.499746  0.220046  0.152563  1
  Si  Si147  1  0.000000  0.220136  0.098549  1
  Si  Si148  1  0.499798  0.219801  0.313700  1
  Si  Si149  1  0.000000  0.796478  0.099526  1
  Si  Si150  1  0.499813  0.796106  0.314662  1
  Si  Si151  1  0.716299  0.505082  0.356636  1
  Si  Si152  1  0.216253  0.505179  0.141493  1
  Si  Si153  1  0.283289  0.505095  0.356634  1
  Si  Si154  1  0.783235  0.505193  0.141489  1
  Si  Si155  1  0.283233  0.505279  0.109625  1
  Si  Si156  1  0.783289  0.504974  0.324768  1
  Si  Si157  1  0.716243  0.505266  0.109622  1
  Si  Si158  1  0.216311  0.504960  0.324766  1
  Si  Si159  1  0.000000  0.996880  0.394435  1
  Si  Si160  1  0.499870  0.996953  0.179291  1
  Si  Si161  1  -0.000000  0.997002  0.071826  1
  Si  Si162  1  0.499882  0.996819  0.286966  1
  Si  Si163  1  0.712687  0.993877  0.636790  1
  Si  Si164  1  0.287288  0.993884  0.636800  1
  Si  Si165  1  0.787139  0.993953  0.474892  1
  Si  Si166  1  0.287296  0.993880  0.690031  1
  Si  Si167  1  0.212553  0.993945  0.474894  1
  Si  Si168  1  0.712688  0.993873  0.690041  1
  Si  Si169  1  -0.000000  0.708558  0.647323  1
  Si  Si170  1  0.000000  0.279257  0.647328  1
  Si  Si171  1  0.499849  0.279322  0.464360  1
  Si  Si172  1  0.000000  0.279264  0.679504  1
  Si  Si173  1  0.499827  0.708633  0.464365  1
  Si  Si174  1  0.000000  0.708569  0.679505  1
  Si  Si175  1  -0.000000  0.796265  0.797022  1
  Si  Si176  1  0.499762  0.796357  0.581877  1
  Si  Si177  1  0.000000  0.219940  0.797992  1
  Si  Si178  1  0.499746  0.220046  0.582849  1
  Si  Si179  1  -0.000000  0.220136  0.528836  1
  Si  Si180  1  0.499798  0.219801  0.743987  1
  Si  Si181  1  0.000000  0.796478  0.529812  1
  Si  Si182  1  0.499813  0.796106  0.744949  1
  Si  Si183  1  0.716299  0.505082  0.786922  1
  Si  Si184  1  0.216253  0.505179  0.571780  1
  Si  Si185  1  0.283289  0.505095  0.786920  1
  Si  Si186  1  0.783235  0.505193  0.571776  1
  Si  Si187  1  0.283233  0.505279  0.539912  1
  Si  Si188  1  0.783289  0.504974  0.755054  1
  Si  Si189  1  0.716243  0.505266  0.539908  1
  Si  Si190  1  0.216311  0.504960  0.755053  1
  Si  Si191  1  0.000000  0.996880  0.824721  1
  Si  Si192  1  0.499870  0.996953  0.609578  1
  Si  Si193  1  -0.000000  0.997002  0.502113  1
  Si  Si194  1  0.499882  0.996819  0.717252  1
  H  H195  1  0.828097  0.994426  0.051727  1
  H  H196  1  0.171556  0.994434  0.051729  1
  H  H197  1  0.171590  0.994364  0.844816  1
  H  H198  1  0.828132  0.994356  0.844820  1
