# generated using pymatgen
data_Si7H2O15
_symmetry_space_group_name_H-M   'P 1'
_cell_length_a   13.77334602
_cell_length_b   13.77226437
_cell_length_c   32.49673951
_cell_angle_alpha   90.00000000
_cell_angle_beta   90.00000000
_cell_angle_gamma   90.00000000
_symmetry_Int_Tables_number   1
_chemical_formula_structural   Si7H2O15
_chemical_formula_sum   'Si28 H8 O60'
_cell_volume   6164.31180293
_cell_formula_units_Z   4
loop_
 _symmetry_equiv_pos_site_id
 _symmetry_equiv_pos_as_xyz
  1  'x, y, z'
loop_
 _atom_site_type_symbol
 _atom_site_label
 _atom_site_symmetry_multiplicity
 _atom_site_fract_x
 _atom_site_fract_y
 _atom_site_fract_z
 _atom_site_occupancy
  O  O1  1  0.829304  0.329253  0.181569  1
  O  O2  1  0.170769  0.329232  0.181557  1
  O  O3  1  0.691519  0.371316  0.235878  1
  O  O4  1  0.308604  0.371323  0.235853  1
  O  O5  1  0.190245  0.499970  0.210932  1
  O  O6  1  0.809864  0.499969  0.210955  1
  O  O7  1  0.327127  0.360701  0.383247  1
  O  O8  1  0.639290  0.327039  0.309056  1
  O  O9  1  0.673116  0.360688  0.383267  1
  O  O10  1  0.360857  0.327029  0.309028  1
  O  O11  1  0.500115  0.382213  0.411404  1
  O  O12  1  0.500072  0.369342  0.258713  1
  O  O13  1  0.371893  0.135089  0.431577  1
  O  O14  1  0.864913  0.371782  0.260689  1
  O  O15  1  0.628265  0.135085  0.431584  1
  O  O16  1  0.135261  0.371795  0.260684  1
  O  O17  1  0.323609  0.187138  0.358947  1
  O  O18  1  0.812917  0.323472  0.333311  1
  O  O19  1  0.676581  0.187132  0.358955  1
  O  O20  1  0.187272  0.323483  0.333307  1
  O  O21  1  0.500085  0.127828  0.376323  1
  O  O22  1  0.000000  0.366170  0.315170  1
  O  O23  1  0.872232  0.499965  0.315950  1
  O  O24  1  0.369447  0.499902  0.433561  1
  O  O25  1  0.127960  0.499967  0.315934  1
  O  O26  1  0.630780  0.499903  0.433576  1
  O  O27  1  0.500071  0.190048  0.481343  1
  O  O28  1  0.329312  0.170561  0.510701  1
  O  O29  1  0.670805  0.170547  0.510710  1
  O  O30  1  0.628752  0.308426  0.456440  1
  O  O31  1  0.371431  0.308436  0.456427  1
  O  O32  1  0.308584  0.628665  0.235846  1
  O  O33  1  0.829328  0.670672  0.181571  1
  O  O34  1  0.170746  0.670695  0.181558  1
  O  O35  1  0.691534  0.628670  0.235871  1
  O  O36  1  0.633880  0.000000  0.377098  1
  O  O37  1  0.617736  0.500015  0.280895  1
  O  O38  1  0.360840  0.673002  0.309012  1
  O  O39  1  0.673097  0.639145  0.383235  1
  O  O40  1  0.639309  0.672991  0.309039  1
  O  O41  1  0.327148  0.639135  0.383216  1
  O  O42  1  0.500118  0.617570  0.411374  1
  O  O43  1  0.500071  0.630691  0.258701  1
  O  O44  1  0.135261  0.628162  0.260688  1
  O  O45  1  0.628266  0.864755  0.431584  1
  O  O46  1  0.864922  0.628167  0.260696  1
  O  O47  1  0.371891  0.864770  0.431588  1
  O  O48  1  0.187264  0.676457  0.333314  1
  O  O49  1  0.676596  0.812790  0.358975  1
  O  O50  1  0.812930  0.676468  0.333316  1
  O  O51  1  0.323595  0.812784  0.358969  1
  O  O52  1  0.500099  0.872084  0.376335  1
  O  O53  1  -0.000000  0.633767  0.315179  1
  O  O54  1  0.366300  -0.000000  0.377094  1
  O  O55  1  0.382386  0.500015  0.280870  1
  O  O56  1  0.500070  0.809690  0.481323  1
  O  O57  1  0.329365  0.829111  0.510707  1
  O  O58  1  0.670762  0.829123  0.510720  1
  O  O59  1  0.628769  0.691373  0.456394  1
  O  O60  1  0.371421  0.691358  0.456390  1
  Si  Si61  1  0.200012  0.388494  0.221043  1
  Si  Si62  1  0.800103  0.388491  0.221066  1
  Si  Si63  1  0.387784  0.111715  0.384311  1
  Si  Si64  1  0.389353  0.387783  0.269878  1
  Si  Si65  1  0.612339  0.389182  0.422409  1
  Si  Si66  1  0.610769  0.387781  0.269907  1
  Si  Si67  1  0.295023  0.294896  0.346131  1
  Si  Si68  1  0.705172  0.294889  0.346142  1
  Si  Si69  1  0.111848  0.387652  0.307946  1
  Si  Si70  1  0.612399  0.111712  0.384313  1
  Si  Si71  1  0.888341  0.387656  0.307955  1
  Si  Si72  1  0.387886  0.389183  0.422395  1
  Si  Si73  1  0.388598  0.199833  0.471224  1
  Si  Si74  1  0.611546  0.199822  0.471226  1
  Si  Si75  1  0.200000  0.611448  0.221047  1
  Si  Si76  1  0.800119  0.611448  0.221070  1
  Si  Si77  1  0.612400  0.888199  0.384329  1
  Si  Si78  1  0.295017  0.705040  0.346132  1
  Si  Si79  1  0.888345  0.612278  0.307960  1
  Si  Si80  1  0.387784  0.888203  0.384324  1
  Si  Si81  1  0.705181  0.705046  0.346143  1
  Si  Si82  1  0.389355  0.612242  0.269867  1
  Si  Si83  1  0.612342  0.610614  0.422379  1
  Si  Si84  1  0.610772  0.612243  0.269894  1
  Si  Si85  1  0.387887  0.610609  0.422365  1
  Si  Si86  1  0.111849  0.612274  0.307951  1
  Si  Si87  1  0.388596  0.799936  0.471207  1
  Si  Si88  1  0.611550  0.799947  0.471216  1
  H  H89  1  0.829304  0.329253  0.153874  1
  H  H90  1  0.170769  0.329232  0.153862  1
  H  H91  1  0.329312  0.170561  0.538396  1
  H  H92  1  0.670805  0.170547  0.538405  1
  H  H93  1  0.829328  0.670672  0.153875  1
  H  H94  1  0.170746  0.670695  0.153863  1
  H  H95  1  0.329365  0.829111  0.538402  1
  H  H96  1  0.670762  0.829123  0.538415  1
