# generated using pymatgen
data_Si6H2O13
_symmetry_space_group_name_H-M   'P 1'
_cell_length_a   18.36622823
_cell_length_b   9.24612979
_cell_length_c   30.98813927
_cell_angle_alpha   90.00000000
_cell_angle_beta   90.00000000
_cell_angle_gamma   90.00000000
_symmetry_Int_Tables_number   1
_chemical_formula_structural   Si6H2O13
_chemical_formula_sum   'Si24 H8 O52'
_cell_volume   5262.29828031
_cell_formula_units_Z   4
loop_
 _symmetry_equiv_pos_site_id
 _symmetry_equiv_pos_as_xyz
  1  'x, y, z'
loop_
 _atom_site_type_symbol
 _atom_site_label
 _atom_site_symmetry_multiplicity
 _atom_site_fract_x
 _atom_site_fract_y
 _atom_site_fract_z
 _atom_site_occupancy
  O  O1  1  0.869744  -0.000000  0.261453  1
  O  O2  1  0.369745  0.000000  0.415841  1
  O  O3  1  0.630115  0.000000  0.261443  1
  O  O4  1  0.130115  -0.000000  0.415851  1
  O  O5  1  0.079498  0.112235  0.486900  1
  O  O6  1  0.749928  0.112238  0.291456  1
  O  O7  1  0.420362  0.112212  0.486890  1
  O  O8  1  0.920362  0.888001  0.190405  1
  O  O9  1  0.249928  0.887990  0.385839  1
  O  O10  1  0.579498  0.887978  0.190396  1
  O  O11  1  0.880773  0.851327  0.409302  1
  O  O12  1  0.619079  0.851300  0.409292  1
  O  O13  1  0.119079  0.148926  0.268003  1
  O  O14  1  0.380773  0.148899  0.267993  1
  O  O15  1  0.996666  0.989129  0.431784  1
  O  O16  1  0.656972  0.989112  0.340568  1
  O  O17  1  0.842880  0.989135  0.340577  1
  O  O18  1  0.503191  0.989103  0.431774  1
  O  O19  1  0.003191  0.011120  0.245521  1
  O  O20  1  0.342879  0.011093  0.336717  1
  O  O21  1  0.156972  0.011115  0.336727  1
  O  O22  1  0.496666  0.011095  0.245511  1
  O  O23  1  0.940995  0.815828  0.486899  1
  O  O24  1  0.749927  0.815813  0.373592  1
  O  O25  1  0.558865  0.815803  0.486889  1
  O  O26  1  0.058865  0.184409  0.190405  1
  O  O27  1  0.249928  0.184416  0.303703  1
  O  O28  1  0.440995  0.184385  0.190395  1
  O  O29  1  0.072366  0.500109  0.381609  1
  O  O30  1  0.572366  0.500115  0.295685  1
  O  O31  1  0.427488  0.500089  0.381598  1
  O  O32  1  0.927489  0.500136  0.295697  1
  O  O33  1  0.129957  0.275224  0.340991  1
  O  O34  1  0.503864  0.275207  0.261537  1
  O  O35  1  0.369902  0.275198  0.340981  1
  O  O36  1  0.995990  0.275232  0.261548  1
  O  O37  1  0.869901  0.725028  0.336315  1
  O  O38  1  0.495989  0.724992  0.415747  1
  O  O39  1  0.629958  0.725003  0.336304  1
  O  O40  1  0.003864  0.725018  0.415757  1
  O  O41  1  0.057839  0.232782  0.410541  1
  O  O42  1  0.621161  0.232769  0.304298  1
  O  O43  1  0.442021  0.232760  0.410531  1
  O  O44  1  0.878691  0.232789  0.304309  1
  O  O45  1  0.942020  0.767465  0.266765  1
  O  O46  1  0.378691  0.767436  0.372986  1
  O  O47  1  0.557839  0.767444  0.266755  1
  O  O48  1  0.121162  0.767459  0.372996  1
  O  O49  1  0.995169  0.315653  0.341468  1
  O  O50  1  0.504688  0.315634  0.341458  1
  O  O51  1  0.004688  0.684590  0.335837  1
  O  O52  1  0.495168  0.684572  0.335827  1
  Si  Si53  1  0.947132  0.334449  0.299743  1
  Si  Si54  1  0.434317  0.334387  0.369970  1
  Si  Si55  1  0.552723  0.334428  0.299731  1
  Si  Si56  1  0.065540  0.334409  0.369980  1
  Si  Si57  1  0.052723  0.665798  0.377563  1
  Si  Si58  1  0.565541  0.665816  0.307316  1
  Si  Si59  1  0.447131  0.665776  0.377552  1
  Si  Si60  1  0.934317  0.665837  0.307326  1
  Si  Si61  1  0.834025  0.843254  0.366602  1
  Si  Si62  1  0.547073  0.843194  0.437052  1
  Si  Si63  1  0.665829  0.843233  0.366593  1
  Si  Si64  1  0.952781  0.843223  0.437062  1
  Si  Si65  1  0.165829  0.156995  0.310701  1
  Si  Si66  1  0.452781  0.157000  0.240233  1
  Si  Si67  1  0.334025  0.156974  0.310693  1
  Si  Si68  1  0.047073  0.157028  0.240243  1
  Si  Si69  1  0.066030  0.088593  0.437217  1
  Si  Si70  1  0.666097  0.088500  0.299449  1
  Si  Si71  1  0.833758  0.088518  0.299457  1
  Si  Si72  1  0.433829  0.088573  0.437207  1
  Si  Si73  1  0.933828  0.911651  0.240088  1
  Si  Si74  1  0.333758  0.911708  0.377837  1
  Si  Si75  1  0.166096  0.911728  0.377845  1
  Si  Si76  1  0.566031  0.911630  0.240078  1
  H  H77  1  0.079498  0.112235  0.515944  1
  H  H78  1  0.420362  0.112212  0.515933  1
  H  H79  1  0.920362  0.888001  0.161362  1
  H  H80  1  0.579498  0.887978  0.161353  1
  H  H81  1  0.940995  0.815828  0.515942  1
  H  H82  1  0.558865  0.815803  0.515933  1
  H  H83  1  0.058865  0.184409  0.161362  1
  H  H84  1  0.440995  0.184385  0.161352  1
