# generated using pymatgen
data_Si22H6O47
_symmetry_space_group_name_H-M   'P 1'
_cell_length_a   13.56605876
_cell_length_b   46.01197261
_cell_length_c   44.80297642
_cell_angle_alpha   107.14383045
_cell_angle_beta   120.00000000
_cell_angle_gamma   81.52454549
_symmetry_Int_Tables_number   1
_chemical_formula_structural   Si22H6O47
_chemical_formula_sum   'Si132 H36 O282'
_cell_volume   23143.2075913
_cell_formula_units_Z   6
loop_
 _symmetry_equiv_pos_site_id
 _symmetry_equiv_pos_as_xyz
  1  'x, y, z'
loop_
 _atom_site_type_symbol
 _atom_site_label
 _atom_site_symmetry_multiplicity
 _atom_site_fract_x
 _atom_site_fract_y
 _atom_site_fract_z
 _atom_site_occupancy
  O  O1  1  0.746528  0.000000  0.289838  1
  O  O2  1  0.000000  0.000000  0.289898  1
  O  O3  1  0.883218  0.042567  0.308728  1
  O  O4  1  0.079518  0.111130  0.299213  1
  O  O5  1  0.333918  0.111167  0.222721  1
  O  O6  1  0.586331  0.111299  0.299200  1
  O  O7  1  0.079803  0.111093  0.222888  1
  O  O8  1  0.100603  0.068641  0.251282  1
  O  O9  1  0.450051  0.068747  0.357115  1
  O  O10  1  0.450246  0.068765  0.251167  1
  O  O11  1  0.233238  0.072312  0.318042  1
  O  O12  1  0.534086  0.072338  0.317937  1
  O  O13  1  0.233324  0.072206  0.226840  1
  O  O14  1  0.028432  0.055534  0.291084  1
  O  O15  1  0.305133  0.055543  0.181584  1
  O  O16  1  0.666856  0.055714  0.291105  1
  O  O17  1  0.028367  0.055548  0.181657  1
  O  O18  1  0.232463  0.150238  0.341754  1
  O  O19  1  0.533732  0.150288  0.341598  1
  O  O20  1  0.232734  0.150128  0.250436  1
  O  O21  1  0.799577  0.039004  0.348048  1
  O  O22  1  0.099805  0.153662  0.277036  1
  O  O23  1  0.449773  0.153768  0.276900  1
  O  O24  1  0.100445  0.038936  0.348066  1
  O  O25  1  0.027418  0.166661  0.324656  1
  O  O26  1  0.027500  0.166595  0.215408  1
  O  O27  1  0.746839  0.222250  0.357364  1
  O  O28  1  0.998652  0.222167  0.208102  1
  O  O29  1  0.998952  0.222201  0.357221  1
  O  O30  1  0.252978  0.222229  0.207990  1
  O  O31  1  0.232202  0.264651  0.179593  1
  O  O32  1  0.882945  0.264640  0.179730  1
  O  O33  1  0.099723  0.261132  0.204130  1
  O  O34  1  0.666496  0.277831  0.358700  1
  O  O35  1  0.027969  0.277761  0.249399  1
  O  O36  1  0.028111  0.277863  0.358762  1
  O  O37  1  0.304616  0.277874  0.249198  1
  O  O38  1  0.099662  0.183230  0.180340  1
  O  O39  1  0.666314  0.166817  0.324731  1
  O  O40  1  0.450144  0.290899  0.318659  1
  O  O41  1  0.232417  0.179635  0.153693  1
  O  O42  1  0.882895  0.179663  0.350421  1
  O  O43  1  0.882653  0.179593  0.153802  1
  O  O44  1  0.233060  0.294428  0.294526  1
  O  O45  1  0.099956  0.290871  0.318930  1
  O  O46  1  0.304745  0.166704  0.215302  1
  O  O47  1  0.638889  0.388654  0.182127  1
  O  O48  1  0.362133  0.388827  0.182210  1
  O  O49  1  0.361126  0.499935  0.215218  1
  O  O50  1  0.638945  0.499867  0.215232  1
  O  O51  1  0.000000  0.499958  0.324599  1
  O  O52  1  0.433717  0.372349  0.348578  1
  O  O53  1  0.413167  0.444583  0.299433  1
  O  O54  1  0.667604  0.444345  0.222956  1
  O  O55  1  0.919647  0.444459  0.299497  1
  O  O56  1  0.413208  0.444448  0.223044  1
  O  O57  1  0.433901  0.402045  0.251743  1
  O  O58  1  0.783500  0.402130  0.357679  1
  O  O59  1  0.783610  0.401960  0.251701  1
  O  O60  1  0.566482  0.405636  0.318482  1
  O  O61  1  0.867548  0.405611  0.318503  1
  O  O62  1  0.566875  0.405584  0.227379  1
  O  O63  1  0.361591  0.389058  0.291629  1
  O  O64  1  0.000000  0.388882  0.291628  1
  O  O65  1  0.566392  0.483574  0.341705  1
  O  O66  1  0.867394  0.483551  0.341782  1
  O  O67  1  0.566125  0.483496  0.250314  1
  O  O68  1  0.333255  0.333455  0.290362  1
  O  O69  1  0.433462  0.487080  0.276982  1
  O  O70  1  0.783165  0.486952  0.276990  1
  O  O71  1  0.216569  0.375898  0.309272  1
  O  O72  1  0.133051  0.372326  0.348656  1
  O  O73  1  0.080146  0.333343  0.290475  1
  O  O74  1  0.361423  0.611138  0.248666  1
  O  O75  1  0.638298  0.611116  0.248666  1
  O  O76  1  0.783375  0.624172  0.318123  1
  O  O77  1  0.361227  0.500083  0.324591  1
  O  O78  1  0.079949  0.555471  0.356877  1
  O  O79  1  0.332568  0.555490  0.207666  1
  O  O80  1  0.332273  0.555547  0.356909  1
  O  O81  1  0.587240  0.555460  0.207714  1
  O  O82  1  0.566257  0.597982  0.179125  1
  O  O83  1  0.216792  0.597988  0.179106  1
  O  O84  1  0.433621  0.594318  0.203483  1
  O  O85  1  0.000000  0.611060  0.358075  1
  O  O86  1  0.361331  0.611123  0.358099  1
  O  O87  1  0.434010  0.516432  0.180228  1
  O  O88  1  0.566447  0.512978  0.153579  1
  O  O89  1  0.216088  0.512953  0.350117  1
  O  O90  1  0.216808  0.512963  0.153558  1
  O  O91  1  0.432761  0.624176  0.318136  1
  O  O92  1  0.566265  0.627774  0.293898  1
  O  O93  1  0.694989  0.722266  0.290833  1
  O  O94  1  0.333347  0.722264  0.290843  1
  O  O95  1  0.333590  0.833316  0.324461  1
  O  O96  1  0.746486  0.777862  0.298972  1
  O  O97  1  0.253084  0.777838  0.298950  1
  O  O98  1  0.466201  0.705633  0.347835  1
  O  O99  1  0.766947  0.705628  0.347807  1
  O  O100  1  0.116954  0.820399  0.276740  1
  O  O101  1  0.000000  0.777857  0.222544  1
  O  O102  1  0.746478  0.777860  0.222589  1
  O  O103  1  0.767031  0.735391  0.251008  1
  O  O104  1  0.116677  0.735357  0.356895  1
  O  O105  1  0.116663  0.735378  0.250961  1
  O  O106  1  0.899811  0.738953  0.317763  1
  O  O107  1  0.200658  0.738923  0.317722  1
  O  O108  1  0.899787  0.738950  0.226601  1
  O  O109  1  0.971815  0.722240  0.181376  1
  O  O110  1  0.694991  0.722254  0.181418  1
  O  O111  1  0.899768  0.816881  0.341466  1
  O  O112  1  0.201103  0.816871  0.341434  1
  O  O113  1  0.899820  0.816869  0.250199  1
  O  O114  1  0.413262  0.666712  0.289694  1
  O  O115  1  0.549772  0.709228  0.308465  1
  O  O116  1  0.766916  0.820410  0.276787  1
  O  O117  1  0.666584  0.666705  0.289670  1
  O  O118  1  0.333293  0.944392  0.358193  1
  O  O119  1  0.694904  0.944493  0.358265  1
  O  O120  1  0.694760  0.833366  0.324454  1
  O  O121  1  0.972307  0.833392  0.215123  1
  O  O122  1  0.694833  0.833380  0.215151  1
  O  O123  1  0.550184  0.846285  0.350186  1
  O  O124  1  0.550129  0.846299  0.153491  1
  O  O125  1  0.899525  0.961094  0.294033  1
  O  O126  1  0.116808  0.957481  0.318260  1
  O  O127  1  0.900233  0.846310  0.153471  1
  O  O128  1  0.766087  0.957585  0.318277  1
  O  O129  1  0.413772  0.888812  0.356924  1
  O  O130  1  0.666038  0.888886  0.207634  1
  O  O131  1  0.665987  0.888867  0.356900  1
  O  O132  1  0.920449  0.888899  0.207639  1
  O  O133  1  0.899800  0.931337  0.179179  1
  O  O134  1  0.549984  0.931315  0.179163  1
  O  O135  1  0.766923  0.927793  0.203551  1
  O  O136  1  0.694714  0.944507  0.248751  1
  O  O137  1  0.971668  0.944491  0.248798  1
  O  O138  1  0.767271  0.849862  0.180037  1
  O  O139  1  0.746345  0.000000  0.366522  1
  O  O140  1  0.233769  0.042466  0.414835  1
  O  O141  1  0.586001  0.111242  0.376145  1
  O  O142  1  0.333918  0.111167  0.525447  1
  O  O143  1  0.334053  0.111197  0.376288  1
  O  O144  1  0.079803  0.111093  0.525614  1
  O  O145  1  0.100603  0.068641  0.554008  1
  O  O146  1  0.450246  0.068765  0.553893  1
  O  O147  1  0.233324  0.072206  0.529566  1
  O  O148  1  0.666771  0.055691  0.374909  1
  O  O149  1  0.305133  0.055543  0.484310  1
  O  O150  1  0.305361  0.055567  0.374925  1
  O  O151  1  0.028367  0.055548  0.484382  1
  O  O152  1  0.232734  0.150128  0.553162  1
  O  O153  1  0.100294  0.038881  0.439094  1
  O  O154  1  0.099805  0.153662  0.579762  1
  O  O155  1  0.449557  0.153787  0.382971  1
  O  O156  1  0.449773  0.153768  0.579625  1
  O  O157  1  0.883063  0.042537  0.414902  1
  O  O158  1  0.027500  0.166595  0.518134  1
  O  O159  1  0.305059  0.166667  0.408806  1
  O  O160  1  0.253166  0.222146  0.434362  1
  O  O161  1  0.746835  0.222135  0.434312  1
  O  O162  1  0.998652  0.222167  0.510828  1
  O  O163  1  0.252978  0.222229  0.510716  1
  O  O164  1  0.232202  0.264651  0.482319  1
  O  O165  1  0.883118  0.264680  0.376420  1
  O  O166  1  0.882945  0.264640  0.482456  1
  O  O167  1  0.099859  0.261028  0.415566  1
  O  O168  1  0.799309  0.261112  0.415646  1
  O  O169  1  0.099723  0.261132  0.506856  1
  O  O170  1  0.304821  0.277738  0.442644  1
  O  O171  1  0.027969  0.277761  0.552125  1
  O  O172  1  0.666303  0.277629  0.442407  1
  O  O173  1  0.304616  0.277874  0.551924  1
  O  O174  1  0.099990  0.183108  0.391698  1
  O  O175  1  0.798883  0.183128  0.391817  1
  O  O176  1  0.099662  0.183230  0.483066  1
  O  O177  1  0.233104  0.294441  0.385748  1
  O  O178  1  0.333587  0.333300  0.443894  1
  O  O179  1  0.232417  0.179635  0.456419  1
  O  O180  1  0.882653  0.179593  0.456528  1
  O  O181  1  0.533406  0.294349  0.385452  1
  O  O182  1  0.450085  0.290720  0.424953  1
  O  O183  1  0.586612  0.333172  0.443653  1
  O  O184  1  0.666086  0.166692  0.408678  1
  O  O185  1  0.304745  0.166704  0.518028  1
  O  O186  1  0.638889  0.388654  0.484853  1
  O  O187  1  0.362133  0.388827  0.484936  1
  O  O188  1  0.361126  0.499935  0.517944  1
  O  O189  1  0.638945  0.499867  0.517958  1
  O  O190  1  0.080127  0.333436  0.367195  1
  O  O191  1  0.567382  0.375803  0.415385  1
  O  O192  1  0.919822  0.444612  0.376591  1
  O  O193  1  0.667604  0.444345  0.525681  1
  O  O194  1  0.667388  0.444618  0.376529  1
  O  O195  1  0.413208  0.444448  0.525770  1
  O  O196  1  0.433901  0.402045  0.554469  1
  O  O197  1  0.783610  0.401960  0.554427  1
  O  O198  1  0.566875  0.405584  0.530105  1
  O  O199  1  0.000000  0.389037  0.375528  1
  O  O200  1  0.638580  0.389014  0.375449  1
  O  O201  1  0.566125  0.483496  0.553039  1
  O  O202  1  0.216736  0.375883  0.415494  1
  O  O203  1  0.433462  0.487080  0.579708  1
  O  O204  1  0.783514  0.487149  0.383197  1
  O  O205  1  0.783165  0.486952  0.579716  1
  O  O206  1  0.433883  0.372191  0.439624  1
  O  O207  1  0.586643  0.333382  0.367034  1
  O  O208  1  0.361423  0.611138  0.551392  1
  O  O209  1  0.638298  0.611116  0.551391  1
  O  O210  1  0.867007  0.627720  0.384958  1
  O  O211  1  0.783478  0.624142  0.424340  1
  O  O212  1  0.586445  0.555579  0.433961  1
  O  O213  1  0.332568  0.555490  0.510392  1
  O  O214  1  0.080490  0.555553  0.434014  1
  O  O215  1  0.587240  0.555460  0.510440  1
  O  O216  1  0.566257  0.597982  0.481851  1
  O  O217  1  0.216308  0.597985  0.375840  1
  O  O218  1  0.216792  0.597988  0.481832  1
  O  O219  1  0.433267  0.594516  0.415079  1
  O  O220  1  0.132517  0.594420  0.415051  1
  O  O221  1  0.433621  0.594318  0.506209  1
  O  O222  1  0.638183  0.611134  0.441974  1
  O  O223  1  0.000000  0.611122  0.441973  1
  O  O224  1  0.433177  0.516552  0.391588  1
  O  O225  1  0.132288  0.516475  0.391565  1
  O  O226  1  0.434010  0.516432  0.482954  1
  O  O227  1  -0.000000  0.500115  0.408771  1
  O  O228  1  0.566301  0.627717  0.384971  1
  O  O229  1  0.566447  0.512978  0.456305  1
  O  O230  1  0.216808  0.512963  0.456284  1
  O  O231  1  0.638366  0.500128  0.408684  1
  O  O232  1  0.919933  0.666650  0.366376  1
  O  O233  1  0.919924  0.666659  0.443087  1
  O  O234  1  0.333565  0.833295  0.408490  1
  O  O235  1  0.413331  0.666677  0.366400  1
  O  O236  1  0.116954  0.820399  0.579466  1
  O  O237  1  0.900447  0.709169  0.414631  1
  O  O238  1  0.116967  0.820377  0.382778  1
  O  O239  1  0.253094  0.777812  0.375969  1
  O  O240  1  0.000000  0.777857  0.525269  1
  O  O241  1  -0.000000  0.777825  0.376018  1
  O  O242  1  0.746478  0.777860  0.525315  1
  O  O243  1  0.767031  0.735391  0.553733  1
  O  O244  1  0.116663  0.735378  0.553686  1
  O  O245  1  0.899787  0.738950  0.529327  1
  O  O246  1  0.333346  0.722224  0.374667  1
  O  O247  1  0.971815  0.722240  0.484102  1
  O  O248  1  0.971867  0.722211  0.374671  1
  O  O249  1  0.694991  0.722254  0.484144  1
  O  O250  1  0.899820  0.816869  0.552925  1
  O  O251  1  0.766916  0.705605  0.438878  1
  O  O252  1  0.549787  0.709190  0.414667  1
  O  O253  1  0.766916  0.820410  0.579513  1
  O  O254  1  0.666630  0.666673  0.443104  1
  O  O255  1  0.253478  0.000000  0.366541  1
  O  O256  1  0.972365  0.833333  0.408507  1
  O  O257  1  0.972307  0.833392  0.517849  1
  O  O258  1  0.694833  0.833380  0.517877  1
  O  O259  1  0.550129  0.846299  0.456217  1
  O  O260  1  0.253579  0.000000  0.443261  1
  O  O261  1  0.900233  0.846310  0.456197  1
  O  O262  1  0.116890  0.957484  0.424438  1
  O  O263  1  0.200498  0.961042  0.385058  1
  O  O264  1  0.899658  0.961162  0.385107  1
  O  O265  1  0.920333  0.888827  0.433957  1
  O  O266  1  0.666038  0.888886  0.510360  1
  O  O267  1  0.413690  0.888804  0.433947  1
  O  O268  1  0.920449  0.888899  0.510364  1
  O  O269  1  0.899800  0.931337  0.481905  1
  O  O270  1  0.550015  0.931310  0.375988  1
  O  O271  1  0.549984  0.931315  0.481889  1
  O  O272  1  0.766902  0.927743  0.415139  1
  O  O273  1  0.465891  0.927726  0.415129  1
  O  O274  1  0.766923  0.927793  0.506277  1
  O  O275  1  0.971799  0.944382  0.442031  1
  O  O276  1  0.694714  0.944507  0.551476  1
  O  O277  1  0.333239  0.944365  0.442025  1
  O  O278  1  0.971668  0.944491  0.551523  1
  O  O279  1  0.767286  0.849809  0.391482  1
  O  O280  1  0.465954  0.849790  0.391519  1
  O  O281  1  0.767271  0.849862  0.482763  1
  O  O282  1  0.000000  -0.000000  0.443294  1
  Si  Si283  1  0.106578  0.076152  0.288866  1
  Si  Si284  1  0.560465  0.076237  0.357454  1
  Si  Si285  1  0.333364  0.076159  0.219968  1
  Si  Si286  1  0.333421  0.076214  0.357561  1
  Si  Si287  1  0.560611  0.076283  0.288815  1
  Si  Si288  1  0.106717  0.076095  0.220057  1
  Si  Si289  1  0.106094  0.146146  0.310095  1
  Si  Si290  1  0.332956  0.146145  0.241251  1
  Si  Si291  1  0.560032  0.146279  0.310028  1
  Si  Si292  1  0.106324  0.146092  0.241363  1
  Si  Si293  1  0.772963  0.035077  0.308508  1
  Si  Si294  1  0.000000  0.035009  0.308554  1
  Si  Si295  1  0.000000  0.257189  0.210972  1
  Si  Si296  1  0.226244  0.257240  0.210862  1
  Si  Si297  1  0.772782  0.187239  0.354770  1
  Si  Si298  1  0.000000  0.187192  0.189501  1
  Si  Si299  1  0.000000  0.187184  0.354645  1
  Si  Si300  1  0.226058  0.187247  0.189400  1
  Si  Si301  1  0.106595  0.298434  0.356614  1
  Si  Si302  1  0.332977  0.298434  0.287637  1
  Si  Si303  1  0.560167  0.298381  0.356414  1
  Si  Si304  1  0.106544  0.298334  0.287776  1
  Si  Si305  1  0.439885  0.409564  0.289317  1
  Si  Si306  1  0.894018  0.409593  0.358047  1
  Si  Si307  1  0.666935  0.409388  0.220449  1
  Si  Si308  1  0.666686  0.409585  0.358008  1
  Si  Si309  1  0.893994  0.409469  0.289326  1
  Si  Si310  1  0.440225  0.409483  0.220539  1
  Si  Si311  1  0.439949  0.479558  0.310072  1
  Si  Si312  1  0.666608  0.479381  0.241241  1
  Si  Si313  1  0.893352  0.479459  0.310128  1
  Si  Si314  1  0.439754  0.479477  0.241266  1
  Si  Si315  1  0.106523  0.368339  0.309112  1
  Si  Si316  1  0.333584  0.368443  0.309055  1
  Si  Si317  1  0.333411  0.590472  0.210319  1
  Si  Si318  1  0.560268  0.590444  0.210331  1
  Si  Si319  1  0.105943  0.520480  0.354455  1
  Si  Si320  1  0.333493  0.520476  0.189274  1
  Si  Si321  1  0.332975  0.520562  0.354473  1
  Si  Si322  1  0.560440  0.520450  0.189326  1
  Si  Si323  1  0.439690  0.631669  0.355856  1
  Si  Si324  1  0.666349  0.631707  0.287052  1
  Si  Si325  1  0.893529  0.631655  0.355839  1
  Si  Si326  1  0.439653  0.631707  0.287063  1
  Si  Si327  1  0.773191  0.742864  0.288607  1
  Si  Si328  1  0.773321  0.812859  0.309845  1
  Si  Si329  1  0.227191  0.812837  0.309819  1
  Si  Si330  1  0.227138  0.742842  0.288579  1
  Si  Si331  1  0.227163  0.742819  0.357254  1
  Si  Si332  1  -0.000000  0.742854  0.219760  1
  Si  Si333  1  -0.000000  0.742833  0.357289  1
  Si  Si334  1  0.773173  0.742856  0.219792  1
  Si  Si335  1  0.000000  0.812847  0.241065  1
  Si  Si336  1  0.773370  0.812850  0.241098  1
  Si  Si337  1  0.439655  0.701711  0.308304  1
  Si  Si338  1  0.666834  0.701711  0.308281  1
  Si  Si339  1  0.227082  0.964983  0.355954  1
  Si  Si340  1  0.773055  0.965094  0.356009  1
  Si  Si341  1  0.666743  0.923886  0.210380  1
  Si  Si342  1  0.893596  0.923895  0.210401  1
  Si  Si343  1  0.439905  0.853819  0.354450  1
  Si  Si344  1  0.666911  0.853892  0.189163  1
  Si  Si345  1  0.666900  0.853868  0.354425  1
  Si  Si346  1  0.893727  0.853901  0.189154  1
  Si  Si347  1  0.000000  0.965010  0.287220  1
  Si  Si348  1  0.772893  0.965073  0.287171  1
  Si  Si349  1  0.227076  0.034984  0.377151  1
  Si  Si350  1  0.772972  0.035087  0.377164  1
  Si  Si351  1  0.333364  0.076159  0.522694  1
  Si  Si352  1  0.106717  0.076095  0.522783  1
  Si  Si353  1  0.559733  0.146228  0.378654  1
  Si  Si354  1  0.332956  0.146145  0.543976  1
  Si  Si355  1  0.332934  0.146210  0.378806  1
  Si  Si356  1  0.106324  0.146092  0.544089  1
  Si  Si357  1  -0.000000  0.035004  0.443472  1
  Si  Si358  1  0.226865  0.034954  0.445915  1
  Si  Si359  1  0.226406  0.257134  0.444768  1
  Si  Si360  1  0.772742  0.257140  0.444755  1
  Si  Si361  1  0.226328  0.187139  0.423378  1
  Si  Si362  1  0.772602  0.187139  0.423394  1
  Si  Si363  1  0.772685  0.257239  0.376102  1
  Si  Si364  1  0.000000  0.257189  0.513697  1
  Si  Si365  1  0.000000  0.257178  0.376031  1
  Si  Si366  1  0.226244  0.257240  0.513587  1
  Si  Si367  1  0.000000  0.187192  0.492226  1
  Si  Si368  1  0.226058  0.187247  0.492126  1
  Si  Si369  1  0.560013  0.298193  0.424979  1
  Si  Si370  1  0.333212  0.298298  0.425256  1
  Si  Si371  1  0.666935  0.409388  0.523175  1
  Si  Si372  1  0.440225  0.409483  0.523265  1
  Si  Si373  1  0.893736  0.479589  0.378912  1
  Si  Si374  1  0.666608  0.479381  0.543967  1
  Si  Si375  1  0.666572  0.479579  0.378828  1
  Si  Si376  1  0.439754  0.479477  0.543992  1
  Si  Si377  1  0.560368  0.368390  0.377660  1
  Si  Si378  1  0.333835  0.368296  0.446507  1
  Si  Si379  1  0.106503  0.368438  0.377785  1
  Si  Si380  1  0.560445  0.368193  0.446410  1
  Si  Si381  1  0.559894  0.590590  0.444236  1
  Si  Si382  1  0.105903  0.590477  0.375500  1
  Si  Si383  1  0.333411  0.590472  0.513045  1
  Si  Si384  1  0.333149  0.590561  0.375528  1
  Si  Si385  1  0.106202  0.590546  0.444245  1
  Si  Si386  1  0.560268  0.590444  0.513057  1
  Si  Si387  1  0.559629  0.520596  0.423221  1
  Si  Si388  1  0.333493  0.520476  0.492000  1
  Si  Si389  1  0.106482  0.520551  0.423245  1
  Si  Si390  1  0.560440  0.520450  0.492051  1
  Si  Si391  1  0.893593  0.631655  0.424496  1
  Si  Si392  1  0.666386  0.631665  0.424507  1
  Si  Si393  1  0.000000  0.742854  0.522485  1
  Si  Si394  1  0.773173  0.742856  0.522518  1
  Si  Si395  1  0.227202  0.812816  0.378498  1
  Si  Si396  1  0.000000  0.812847  0.543791  1
  Si  Si397  1  0.000000  0.812828  0.376041  1
  Si  Si398  1  0.773370  0.812850  0.543824  1
  Si  Si399  1  0.893547  0.701660  0.376916  1
  Si  Si400  1  0.666861  0.701674  0.445738  1
  Si  Si401  1  0.439659  0.701676  0.376941  1
  Si  Si402  1  0.893529  0.701662  0.445711  1
  Si  Si403  1  0.893550  0.923823  0.444287  1
  Si  Si404  1  0.439532  0.923814  0.375612  1
  Si  Si405  1  0.666743  0.923886  0.513106  1
  Si  Si406  1  0.666747  0.923855  0.375612  1
  Si  Si407  1  0.439489  0.923806  0.444282  1
  Si  Si408  1  0.893596  0.923895  0.513127  1
  Si  Si409  1  0.893728  0.853826  0.423107  1
  Si  Si410  1  0.666911  0.853892  0.491889  1
  Si  Si411  1  0.439837  0.853821  0.423129  1
  Si  Si412  1  0.893727  0.853901  0.491880  1
  Si  Si413  1  0.227022  0.964960  0.424592  1
  Si  Si414  1  0.000000  0.964997  0.427092  1
  H  H415  1  0.305133  0.055543  0.161496  1
  H  H416  1  0.028367  0.055548  0.161569  1
  H  H417  1  0.232202  0.264651  0.159505  1
  H  H418  1  0.882945  0.264640  0.159642  1
  H  H419  1  0.232417  0.179635  0.133605  1
  H  H420  1  0.882653  0.179593  0.133714  1
  H  H421  1  0.638889  0.388654  0.162039  1
  H  H422  1  0.362133  0.388827  0.162122  1
  H  H423  1  0.566257  0.597982  0.159037  1
  H  H424  1  0.216792  0.597988  0.159018  1
  H  H425  1  0.566447  0.512978  0.133491  1
  H  H426  1  0.216808  0.512963  0.133470  1
  H  H427  1  0.971815  0.722240  0.161288  1
  H  H428  1  0.694991  0.722254  0.161330  1
  H  H429  1  0.550129  0.846299  0.133403  1
  H  H430  1  0.900233  0.846310  0.133383  1
  H  H431  1  0.899800  0.931337  0.159091  1
  H  H432  1  0.549984  0.931315  0.159076  1
  H  H433  1  0.100603  0.068641  0.574096  1
  H  H434  1  0.450246  0.068765  0.573981  1
  H  H435  1  0.099805  0.153662  0.599850  1
  H  H436  1  0.449773  0.153768  0.599713  1
  H  H437  1  0.027969  0.277761  0.572213  1
  H  H438  1  0.304616  0.277874  0.572012  1
  H  H439  1  0.433901  0.402045  0.574557  1
  H  H440  1  0.783610  0.401960  0.574514  1
  H  H441  1  0.433462  0.487080  0.599796  1
  H  H442  1  0.783165  0.486952  0.599804  1
  H  H443  1  0.361423  0.611138  0.571480  1
  H  H444  1  0.638298  0.611116  0.571479  1
  H  H445  1  0.116954  0.820399  0.599554  1
  H  H446  1  0.767031  0.735391  0.573821  1
  H  H447  1  0.116663  0.735378  0.573774  1
  H  H448  1  0.766916  0.820410  0.599601  1
  H  H449  1  0.694714  0.944507  0.571564  1
  H  H450  1  0.971668  0.944491  0.571611  1
