# generated using pymatgen
data_Si24H2O49
_symmetry_space_group_name_H-M   'P 1'
_cell_length_a   13.15239484
_cell_length_b   13.70814893
_cell_length_c   55.13051761
_cell_angle_alpha   90.00000000
_cell_angle_beta   90.00000000
_cell_angle_gamma   102.90500000
_symmetry_Int_Tables_number   1
_chemical_formula_structural   Si24H2O49
_chemical_formula_sum   'Si96 H8 O196'
_cell_volume   9688.69471371
_cell_formula_units_Z   4
loop_
 _symmetry_equiv_pos_site_id
 _symmetry_equiv_pos_as_xyz
  1  'x, y, z'
loop_
 _atom_site_type_symbol
 _atom_site_label
 _atom_site_symmetry_multiplicity
 _atom_site_fract_x
 _atom_site_fract_y
 _atom_site_fract_z
 _atom_site_occupancy
  O  O1  1  0.158072  0.540926  0.395759  1
  O  O2  1  0.402993  0.680417  0.346428  1
  O  O3  1  0.340886  0.533660  0.315596  1
  O  O4  1  0.244775  0.818953  0.278753  1
  O  O5  1  0.362889  0.807111  0.317546  1
  O  O6  1  0.271402  0.519515  0.359457  1
  O  O7  1  0.595764  0.567386  0.386770  1
  O  O8  1  0.214488  0.731393  0.396198  1
  O  O9  1  0.336553  0.824756  0.364018  1
  O  O10  1  0.517520  0.866334  0.346572  1
  O  O11  1  0.204984  0.910217  0.386310  1
  O  O12  1  0.641075  0.889608  0.381597  1
  O  O13  1  0.302872  0.660725  0.287871  1
  O  O14  1  0.647444  0.738925  0.407784  1
  O  O15  1  0.704669  0.984105  0.342298  1
  O  O16  1  0.362539  0.870064  0.409246  1
  O  O17  1  0.461296  0.519062  0.351683  1
  O  O18  1  0.604308  0.226244  0.372446  1
  O  O19  1  0.840883  0.033662  0.305992  1
  O  O20  1  0.744795  0.318956  0.342837  1
  O  O21  1  0.746897  0.365050  0.387006  1
  O  O22  1  0.862886  0.307108  0.304042  1
  O  O23  1  0.064790  0.026221  0.379721  1
  O  O24  1  0.569086  0.035959  0.370349  1
  O  O25  1  0.604303  0.411343  0.360992  1
  O  O26  1  0.931301  0.342948  0.393321  1
  O  O27  1  0.106845  0.378246  0.370968  1
  O  O28  1  0.000000  0.192573  0.377344  1
  O  O29  1  0.902988  0.044968  0.351817  1
  O  O30  1  0.455577  0.412185  0.388962  1
  O  O31  1  0.247763  0.088598  0.399351  1
  O  O32  1  0.268883  0.410394  0.397135  1
  O  O33  1  0.802890  0.160727  0.333719  1
  O  O34  1  0.934366  0.307678  0.348425  1
  O  O35  1  0.450723  0.127738  0.396405  1
  O  O36  1  0.204645  0.484105  0.279293  1
  O  O37  1  0.891900  0.038385  0.397527  1
  O  O38  1  0.341829  0.958989  0.198736  1
  O  O39  1  0.096909  0.819498  0.149405  1
  O  O40  1  0.104284  0.726238  0.249145  1
  O  O41  1  0.246870  0.865045  0.234584  1
  O  O42  1  0.564758  0.526217  0.241866  1
  O  O43  1  0.069062  0.535955  0.251240  1
  O  O44  1  0.104277  0.911336  0.260598  1
  O  O45  1  0.431273  0.842947  0.228267  1
  O  O46  1  0.606821  0.878236  0.250619  1
  O  O47  1  0.228500  0.980400  0.162434  1
  O  O48  1  0.500265  0.692567  0.244242  1
  O  O49  1  0.904138  0.932529  0.189747  1
  O  O50  1  0.285414  0.768522  0.199174  1
  O  O51  1  0.163349  0.675159  0.166995  1
  O  O52  1  0.982382  0.633581  0.149548  1
  O  O53  1  0.402959  0.544964  0.269770  1
  O  O54  1  0.955552  0.912178  0.232626  1
  O  O55  1  0.747732  0.588591  0.222236  1
  O  O56  1  0.768859  0.910398  0.224452  1
  O  O57  1  0.294918  0.589697  0.189286  1
  O  O58  1  0.858827  0.610307  0.184574  1
  O  O59  1  0.434343  0.807673  0.273163  1
  O  O60  1  0.137363  0.629851  0.212223  1
  O  O61  1  0.950692  0.627736  0.225186  1
  O  O62  1  0.852457  0.760990  0.210761  1
  O  O63  1  0.038605  0.980852  0.154659  1
  O  O64  1  0.391867  0.538378  0.224059  1
  O  O65  1  0.658042  0.040923  0.225831  1
  O  O66  1  0.902965  0.180413  0.275157  1
  O  O67  1  0.895594  0.273671  0.175423  1
  O  O68  1  0.753005  0.134865  0.189982  1
  O  O69  1  0.435112  0.473694  0.182697  1
  O  O70  1  0.930816  0.463956  0.173325  1
  O  O71  1  0.895598  0.088572  0.163968  1
  O  O72  1  0.568600  0.156967  0.196298  1
  O  O73  1  0.393056  0.121669  0.173944  1
  O  O74  1  0.771374  0.019505  0.262132  1
  O  O75  1  0.499604  0.307342  0.180321  1
  O  O76  1  0.095743  0.067376  0.234817  1
  O  O77  1  0.714457  0.231389  0.225392  1
  O  O78  1  0.836524  0.324760  0.257571  1
  O  O79  1  0.017501  0.366326  0.275015  1
  O  O80  1  0.596914  0.454947  0.154793  1
  O  O81  1  0.044325  0.087729  0.191939  1
  O  O82  1  0.252139  0.411316  0.202327  1
  O  O83  1  0.231019  0.089520  0.200112  1
  O  O84  1  0.704949  0.410213  0.235278  1
  O  O85  1  0.141062  0.389611  0.239992  1
  O  O86  1  0.565536  0.192237  0.151401  1
  O  O87  1  0.862506  0.370062  0.212343  1
  O  O88  1  0.049179  0.372177  0.199381  1
  O  O89  1  0.147411  0.238919  0.213805  1
  O  O90  1  0.608002  0.461530  0.200504  1
  O  O91  1  0.961274  0.019061  0.269903  1
  O  O92  1  0.159016  0.966254  0.118573  1
  O  O93  1  0.137013  0.692803  0.120523  1
  O  O94  1  0.795233  0.515810  0.145274  1
  O  O95  1  0.659018  0.466253  0.108968  1
  O  O96  1  0.755106  0.180959  0.145814  1
  O  O97  1  0.637016  0.192806  0.107019  1
  O  O98  1  0.697012  0.339188  0.136696  1
  O  O99  1  0.340886  0.533660  0.709643  1
  O  O100  1  0.244775  0.818953  0.672800  1
  O  O101  1  0.362889  0.807111  0.711593  1
  O  O102  1  0.302872  0.660725  0.681919  1
  O  O103  1  0.840883  0.033662  0.700039  1
  O  O104  1  0.862886  0.307108  0.698089  1
  O  O105  1  0.204645  0.484105  0.673341  1
  O  O106  1  0.341829  0.958989  0.592783  1
  O  O107  1  0.096909  0.819498  0.543452  1
  O  O108  1  0.104284  0.726238  0.643192  1
  O  O109  1  0.246870  0.865045  0.628632  1
  O  O110  1  0.564758  0.526217  0.635913  1
  O  O111  1  0.069062  0.535955  0.645288  1
  O  O112  1  0.104277  0.911336  0.654645  1
  O  O113  1  0.431273  0.842947  0.622314  1
  O  O114  1  0.606821  0.878236  0.644667  1
  O  O115  1  0.228500  0.980400  0.556481  1
  O  O116  1  0.500265  0.692567  0.638289  1
  O  O117  1  0.904138  0.932529  0.583794  1
  O  O118  1  0.285414  0.768522  0.593221  1
  O  O119  1  0.163349  0.675159  0.561042  1
  O  O120  1  0.982382  0.633581  0.543595  1
  O  O121  1  0.402959  0.544964  0.663818  1
  O  O122  1  0.955552  0.912178  0.626673  1
  O  O123  1  0.747732  0.588591  0.616283  1
  O  O124  1  0.768859  0.910398  0.618499  1
  O  O125  1  0.294918  0.589697  0.583334  1
  O  O126  1  0.858827  0.610307  0.578621  1
  O  O127  1  0.434343  0.807673  0.667210  1
  O  O128  1  0.137363  0.629851  0.606270  1
  O  O129  1  0.950692  0.627736  0.619233  1
  O  O130  1  0.852457  0.760990  0.604808  1
  O  O131  1  0.038605  0.980852  0.548707  1
  O  O132  1  0.391867  0.538378  0.618107  1
  O  O133  1  0.658042  0.040923  0.619878  1
  O  O134  1  0.902965  0.180413  0.669204  1
  O  O135  1  0.895594  0.273671  0.569470  1
  O  O136  1  0.753005  0.134865  0.584029  1
  O  O137  1  0.435112  0.473694  0.576745  1
  O  O138  1  0.930816  0.463956  0.567373  1
  O  O139  1  0.895598  0.088572  0.558015  1
  O  O140  1  0.568600  0.156967  0.590345  1
  O  O141  1  0.393056  0.121669  0.567991  1
  O  O142  1  0.771374  0.019505  0.656179  1
  O  O143  1  0.499604  0.307342  0.574368  1
  O  O144  1  0.095743  0.067376  0.628864  1
  O  O145  1  0.714457  0.231389  0.619439  1
  O  O146  1  0.836524  0.324760  0.651618  1
  O  O147  1  0.017501  0.366326  0.669062  1
  O  O148  1  0.596914  0.454947  0.548840  1
  O  O149  1  0.044325  0.087729  0.585986  1
  O  O150  1  0.252139  0.411316  0.596374  1
  O  O151  1  0.231019  0.089520  0.594159  1
  O  O152  1  0.704949  0.410213  0.629325  1
  O  O153  1  0.141062  0.389611  0.634039  1
  O  O154  1  0.565536  0.192237  0.545449  1
  O  O155  1  0.862506  0.370062  0.606390  1
  O  O156  1  0.049179  0.372177  0.593429  1
  O  O157  1  0.147411  0.238919  0.607852  1
  O  O158  1  0.608002  0.461530  0.594551  1
  O  O159  1  0.961274  0.019061  0.663950  1
  O  O160  1  0.395617  0.773677  0.446168  1
  O  O161  1  0.159016  0.966254  0.512620  1
  O  O162  1  0.255127  0.680962  0.475777  1
  O  O163  1  0.253032  0.634870  0.431608  1
  O  O164  1  0.137013  0.692803  0.514570  1
  O  O165  1  0.935144  0.973698  0.438889  1
  O  O166  1  0.430840  0.963960  0.448264  1
  O  O167  1  0.395625  0.588579  0.457621  1
  O  O168  1  0.068629  0.656968  0.425291  1
  O  O169  1  0.893081  0.621678  0.447643  1
  O  O170  1  -0.000000  0.807348  0.441266  1
  O  O171  1  0.096943  0.954951  0.466794  1
  O  O172  1  0.544350  0.587737  0.429649  1
  O  O173  1  0.752170  0.911323  0.419260  1
  O  O174  1  0.731042  0.589517  0.421475  1
  O  O175  1  0.197030  0.839189  0.484895  1
  O  O176  1  0.065558  0.692242  0.470186  1
  O  O177  1  0.549210  0.872179  0.422210  1
  O  O178  1  0.795233  0.515810  0.539321  1
  O  O179  1  0.108035  0.961537  0.421083  1
  O  O180  1  0.841860  0.458992  0.422854  1
  O  O181  1  0.596937  0.319501  0.472181  1
  O  O182  1  0.659018  0.466253  0.503015  1
  O  O183  1  0.755106  0.180959  0.539861  1
  O  O184  1  0.637016  0.192806  0.501066  1
  O  O185  1  0.728528  0.480410  0.459156  1
  O  O186  1  0.404158  0.432539  0.431841  1
  O  O187  1  0.785445  0.268526  0.422416  1
  O  O188  1  0.663378  0.175155  0.454595  1
  O  O189  1  0.482401  0.133589  0.472038  1
  O  O190  1  0.794953  0.089702  0.432302  1
  O  O191  1  0.358839  0.110304  0.437016  1
  O  O192  1  0.697012  0.339188  0.530743  1
  O  O193  1  0.352491  0.260996  0.410829  1
  O  O194  1  0.295256  0.015809  0.476317  1
  O  O195  1  0.637396  0.129853  0.409367  1
  O  O196  1  0.538628  0.480854  0.466927  1
  Si  Si197  1  0.607732  0.944910  0.359191  1
  Si  Si198  1  0.406388  0.795241  0.343663  1
  Si  Si199  1  0.367607  0.563692  0.342831  1
  Si  Si200  1  0.336444  0.777580  0.290339  1
  Si  Si201  1  0.312255  0.548899  0.288342  1
  Si  Si202  1  0.280523  0.836046  0.388446  1
  Si  Si203  1  0.153672  0.996747  0.395516  1
  Si  Si204  1  0.646412  0.852273  0.408246  1
  Si  Si205  1  0.365762  0.375911  0.407591  1
  Si  Si206  1  0.967612  0.074782  0.375885  1
  Si  Si207  1  0.200732  0.462125  0.380207  1
  Si  Si208  1  0.832369  0.362824  0.406712  1
  Si  Si209  1  0.836461  0.277582  0.331251  1
  Si  Si210  1  0.812274  0.048901  0.333247  1
  Si  Si211  1  0.996352  0.305130  0.372728  1
  Si  Si212  1  0.531554  0.479822  0.370697  1
  Si  Si213  1  0.562986  0.127423  0.387025  1
  Si  Si214  1  0.672181  0.331183  0.364841  1
  Si  Si215  1  0.867585  0.063689  0.278756  1
  Si  Si216  1  0.892169  0.555005  0.162167  1
  Si  Si217  1  0.346229  0.503168  0.198492  1
  Si  Si218  1  0.062957  0.627420  0.234565  1
  Si  Si219  1  0.700705  0.962120  0.241381  1
  Si  Si220  1  0.332338  0.862821  0.214877  1
  Si  Si221  1  0.496326  0.805124  0.248859  1
  Si  Si222  1  0.031531  0.979814  0.250891  1
  Si  Si223  1  0.219379  0.663869  0.191422  1
  Si  Si224  1  0.865736  0.875907  0.213997  1
  Si  Si225  1  0.853490  0.647642  0.211222  1
  Si  Si226  1  0.172157  0.831176  0.256750  1
  Si  Si227  1  0.467579  0.574776  0.245702  1
  Si  Si228  1  0.093514  0.704674  0.146639  1
  Si  Si229  1  0.936916  0.372492  0.190001  1
  Si  Si230  1  0.107714  0.444909  0.262398  1
  Si  Si231  1  0.653640  0.496742  0.226071  1
  Si  Si232  1  0.299170  0.037790  0.183184  1
  Si  Si233  1  0.667533  0.137091  0.209689  1
  Si  Si234  1  0.503549  0.194785  0.175705  1
  Si  Si235  1  0.968348  0.020093  0.173673  1
  Si  Si236  1  0.780490  0.336043  0.233144  1
  Si  Si237  1  0.134139  0.124004  0.210567  1
  Si  Si238  1  0.146384  0.352269  0.213344  1
  Si  Si239  1  0.827721  0.168732  0.167818  1
  Si  Si240  1  0.532290  0.425133  0.178861  1
  Si  Si241  1  0.906366  0.295237  0.277924  1
  Si  Si242  1  0.132294  0.936222  0.145807  1
  Si  Si243  1  0.663441  0.222333  0.134228  1
  Si  Si244  1  0.687628  0.451014  0.136223  1
  Si  Si245  1  0.336444  0.777580  0.684386  1
  Si  Si246  1  0.312255  0.548899  0.682389  1
  Si  Si247  1  0.867585  0.063689  0.672803  1
  Si  Si248  1  0.892169  0.555005  0.556214  1
  Si  Si249  1  0.346229  0.503168  0.592539  1
  Si  Si250  1  0.062957  0.627420  0.628612  1
  Si  Si251  1  0.700705  0.962120  0.635428  1
  Si  Si252  1  0.332338  0.862821  0.608925  1
  Si  Si253  1  0.496326  0.805124  0.642906  1
  Si  Si254  1  0.031531  0.979814  0.644938  1
  Si  Si255  1  0.219379  0.663869  0.585469  1
  Si  Si256  1  0.865736  0.875907  0.608044  1
  Si  Si257  1  0.853490  0.647642  0.605269  1
  Si  Si258  1  0.172157  0.831176  0.650797  1
  Si  Si259  1  0.467579  0.574776  0.639749  1
  Si  Si260  1  0.093514  0.704674  0.540687  1
  Si  Si261  1  0.936916  0.372492  0.584048  1
  Si  Si262  1  0.107714  0.444909  0.656445  1
  Si  Si263  1  0.653640  0.496742  0.620118  1
  Si  Si264  1  0.299170  0.037790  0.577231  1
  Si  Si265  1  0.667533  0.137091  0.603736  1
  Si  Si266  1  0.503549  0.194785  0.569752  1
  Si  Si267  1  0.968348  0.020093  0.567721  1
  Si  Si268  1  0.780490  0.336043  0.627191  1
  Si  Si269  1  0.134139  0.124004  0.604614  1
  Si  Si270  1  0.146384  0.352269  0.607391  1
  Si  Si271  1  0.827721  0.168732  0.561865  1
  Si  Si272  1  0.532290  0.425133  0.572909  1
  Si  Si273  1  0.906366  0.295237  0.671971  1
  Si  Si274  1  0.634166  0.624008  0.411021  1
  Si  Si275  1  0.799196  0.537794  0.438405  1
  Si  Si276  1  0.167564  0.637094  0.411901  1
  Si  Si277  1  0.163458  0.722335  0.487362  1
  Si  Si278  1  0.187647  0.951016  0.485366  1
  Si  Si279  1  0.003576  0.694790  0.445883  1
  Si  Si280  1  0.468371  0.520101  0.447914  1
  Si  Si281  1  0.436945  0.872495  0.431589  1
  Si  Si282  1  0.327745  0.668738  0.453773  1
  Si  Si283  1  0.032323  0.925138  0.442725  1
  Si  Si284  1  0.132294  0.936222  0.539854  1
  Si  Si285  1  0.846262  0.003173  0.423095  1
  Si  Si286  1  0.593535  0.204677  0.474948  1
  Si  Si287  1  0.632317  0.436226  0.475780  1
  Si  Si288  1  0.663441  0.222333  0.528275  1
  Si  Si289  1  0.687628  0.451014  0.530270  1
  Si  Si290  1  0.719412  0.163872  0.430167  1
  Si  Si291  1  0.392188  0.055006  0.459422  1
  Si  Si292  1  0.353518  0.147646  0.410367  1
  H  H293  1  0.159016  0.966254  0.102248  1
  H  H294  1  0.137013  0.692803  0.104198  1
  H  H295  1  0.659018  0.466253  0.092643  1
  H  H296  1  0.637016  0.192806  0.090694  1
  H  H297  1  0.340886  0.533660  0.725968  1
  H  H298  1  0.362889  0.807111  0.727918  1
  H  H299  1  0.840883  0.033662  0.716364  1
  H  H300  1  0.862886  0.307108  0.714414  1
