# generated using pymatgen
data_Si8H2O17
_symmetry_space_group_name_H-M   'P 1'
_cell_length_a   7.37523501
_cell_length_b   23.09866732
_cell_length_c   41.33097162
_cell_angle_alpha   127.22993261
_cell_angle_beta   98.98900000
_cell_angle_gamma   84.57570238
_symmetry_Int_Tables_number   1
_chemical_formula_structural   Si8H2O17
_chemical_formula_sum   'Si32 H8 O68'
_cell_volume   5537.34153782
_cell_formula_units_Z   4
loop_
 _symmetry_equiv_pos_site_id
 _symmetry_equiv_pos_as_xyz
  1  'x, y, z'
loop_
 _atom_site_type_symbol
 _atom_site_label
 _atom_site_symmetry_multiplicity
 _atom_site_fract_x
 _atom_site_fract_y
 _atom_site_fract_z
 _atom_site_occupancy
  O  O1  1  0.617019  0.312422  0.174913  1
  O  O2  1  0.617104  0.812158  0.175015  1
  O  O3  1  0.392668  -0.000000  0.305057  1
  O  O4  1  0.392546  0.500082  0.305229  1
  O  O5  1  0.607374  -0.000000  0.388617  1
  O  O6  1  0.607223  0.500113  0.388560  1
  O  O7  1  0.626291  0.071061  0.301975  1
  O  O8  1  0.626892  0.571151  0.302159  1
  O  O9  1  0.372366  0.071216  0.439614  1
  O  O10  1  0.372993  0.571123  0.439736  1
  O  O11  1  0.373541  0.929145  0.391680  1
  O  O12  1  0.372800  0.429036  0.391609  1
  O  O13  1  0.627386  0.928974  0.254033  1
  O  O14  1  0.626690  0.429078  0.254037  1
  O  O15  1  0.711281  0.000000  0.332409  1
  O  O16  1  0.711167  0.499998  0.332407  1
  O  O17  1  0.288755  0.000000  0.361250  1
  O  O18  1  0.288606  0.500197  0.361375  1
  O  O19  1  0.115915  0.927520  0.289255  1
  O  O20  1  0.115645  0.427886  0.289376  1
  O  O21  1  0.883863  0.927988  0.355613  1
  O  O22  1  0.883608  0.427620  0.355489  1
  O  O23  1  0.884082  0.072712  0.404398  1
  O  O24  1  0.884022  0.572327  0.404419  1
  O  O25  1  0.116112  0.072177  0.338028  1
  O  O26  1  0.116074  0.572564  0.338298  1
  O  O27  1  0.617019  0.312422  0.513038  1
  O  O28  1  0.617104  0.812158  0.513140  1
  O  O29  1  0.383004  0.312145  0.391567  1
  O  O30  1  0.383085  0.812413  0.391848  1
  O  O31  1  0.383038  0.687836  0.180686  1
  O  O32  1  0.382363  0.188034  0.180518  1
  O  O33  1  0.617068  0.687988  0.302116  1
  O  O34  1  0.616432  0.187785  0.301811  1
  O  O35  1  0.771482  0.203476  0.453896  1
  O  O36  1  0.770721  0.702879  0.454043  1
  O  O37  1  0.229540  0.202627  0.376510  1
  O  O38  1  0.228726  0.703240  0.377067  1
  O  O39  1  0.228846  0.796881  0.239768  1
  O  O40  1  0.228722  0.297347  0.239680  1
  O  O41  1  0.770845  0.797400  0.317041  1
  O  O42  1  0.770714  0.296935  0.316637  1
  O  O43  1  0.443933  0.194794  0.462336  1
  O  O44  1  0.442630  0.694883  0.462508  1
  O  O45  1  0.558082  0.194980  0.362965  1
  O  O46  1  0.556742  0.694886  0.363080  1
  O  O47  1  0.556694  0.805326  0.231354  1
  O  O48  1  0.556764  0.305286  0.231148  1
  O  O49  1  0.442583  0.805295  0.330773  1
  O  O50  1  0.442653  0.305330  0.330594  1
  O  O51  1  0.499364  0.263835  0.435932  1
  O  O52  1  0.499921  0.763843  0.436111  1
  O  O53  1  0.500410  0.736356  0.257784  1
  O  O54  1  0.499545  0.236353  0.257552  1
  O  O55  1  0.118270  0.165869  0.462654  1
  O  O56  1  0.117857  0.665412  0.462856  1
  O  O57  1  0.882183  0.165114  0.342410  1
  O  O58  1  0.881743  0.665570  0.342923  1
  O  O59  1  0.881858  0.834423  0.230973  1
  O  O60  1  0.881689  0.334804  0.230945  1
  O  O61  1  0.117979  0.834999  0.351154  1
  O  O62  1  0.117808  0.334605  0.350865  1
  O  O63  1  0.000000  0.171728  0.404631  1
  O  O64  1  -0.000000  0.671717  0.405228  1
  O  O65  1  0.000000  0.828482  0.288973  1
  O  O66  1  0.000000  0.328482  0.288806  1
  O  O67  1  0.383038  0.687836  0.518811  1
  O  O68  1  0.382363  0.188034  0.518644  1
  Si  Si69  1  0.940058  0.155077  0.432953  1
  Si  Si70  1  0.939700  0.654723  0.433164  1
  Si  Si71  1  0.060447  0.154569  0.364911  1
  Si  Si72  1  0.060069  0.654916  0.365352  1
  Si  Si73  1  0.060044  0.845162  0.260660  1
  Si  Si74  1  0.059867  0.345504  0.260628  1
  Si  Si75  1  0.939680  0.845599  0.328685  1
  Si  Si76  1  0.939505  0.345254  0.328421  1
  Si  Si77  1  0.585274  0.245609  0.466221  1
  Si  Si78  1  0.584873  0.745371  0.466340  1
  Si  Si79  1  0.415269  0.245314  0.393157  1
  Si  Si80  1  0.414832  0.745559  0.393440  1
  Si  Si81  1  0.415004  0.754636  0.227493  1
  Si  Si82  1  0.414497  0.254821  0.227323  1
  Si  Si83  1  0.585053  0.754829  0.300521  1
  Si  Si84  1  0.584549  0.254641  0.300224  1
  Si  Si85  1  0.329281  0.154105  0.471829  1
  Si  Si86  1  0.329156  0.653906  0.472007  1
  Si  Si87  1  0.670705  0.153764  0.325614  1
  Si  Si88  1  0.670546  0.653965  0.325929  1
  Si  Si89  1  0.670718  0.846114  0.221824  1
  Si  Si90  1  0.670492  0.346308  0.221728  1
  Si  Si91  1  0.329339  0.846409  0.368020  1
  Si  Si92  1  0.329108  0.346212  0.367792  1
  Si  Si93  1  0.592601  -0.000000  0.297345  1
  Si  Si94  1  0.592496  0.500069  0.297422  1
  Si  Si95  1  0.407394  0.000000  0.396317  1
  Si  Si96  1  0.407263  0.500127  0.396362  1
  Si  Si97  1  0.222735  -0.000000  0.323240  1
  Si  Si98  1  0.222577  0.500180  0.323409  1
  Si  Si99  1  0.777333  -0.000000  0.370426  1
  Si  Si100  1  0.777172  0.500017  0.370376  1
  H  H101  1  0.617019  0.312422  0.153138  1
  H  H102  1  0.617104  0.812158  0.153240  1
  H  H103  1  0.617019  0.312422  0.534814  1
  H  H104  1  0.617104  0.812158  0.534916  1
  H  H105  1  0.383038  0.687836  0.158911  1
  H  H106  1  0.382363  0.188034  0.158743  1
  H  H107  1  0.383038  0.687836  0.540587  1
  H  H108  1  0.382363  0.188034  0.540419  1
