# generated using pymatgen
data_Si8H2O17
_symmetry_space_group_name_H-M   'P 1'
_cell_length_a   5.05415245
_cell_length_b   14.13088993
_cell_length_c   36.13653694
_cell_angle_alpha   100.96000000
_cell_angle_beta   90.00000000
_cell_angle_gamma   90.00000000
_symmetry_Int_Tables_number   1
_chemical_formula_structural   Si8H2O17
_chemical_formula_sum   'Si16 H4 O34'
_cell_volume   2533.78513245
_cell_formula_units_Z   2
loop_
 _symmetry_equiv_pos_site_id
 _symmetry_equiv_pos_as_xyz
  1  'x, y, z'
loop_
 _atom_site_type_symbol
 _atom_site_label
 _atom_site_symmetry_multiplicity
 _atom_site_fract_x
 _atom_site_fract_y
 _atom_site_fract_z
 _atom_site_occupancy
  O  O1  1  0.768215  0.857804  0.167333  1
  O  O2  1  0.276589  0.105306  0.165840  1
  O  O3  1  0.985291  0.009015  0.202757  1
  O  O4  1  0.261100  0.294927  0.295620  1
  O  O5  1  0.761088  0.704959  0.422440  1
  O  O6  1  0.477716  0.136713  0.303622  1
  O  O7  1  0.978378  0.863078  0.414511  1
  O  O8  1  0.480239  0.854115  0.420433  1
  O  O9  1  0.979553  0.145957  0.297684  1
  O  O10  1  0.268006  0.141996  0.239875  1
  O  O11  1  0.768215  0.857804  0.478245  1
  O  O12  1  0.253467  0.495911  0.321180  1
  O  O13  1  0.753497  0.504019  0.396917  1
  O  O14  1  0.972953  0.378035  0.348576  1
  O  O15  1  0.470239  0.621804  0.369767  1
  O  O16  1  0.969120  0.621914  0.361505  1
  O  O17  1  0.471786  0.377862  0.356339  1
  O  O18  1  0.267066  0.692384  0.317347  1
  O  O19  1  0.766935  0.307565  0.400821  1
  O  O20  1  0.261867  0.008528  0.410791  1
  O  O21  1  0.762030  0.991439  0.307337  1
  O  O22  1  0.271239  0.861058  0.356765  1
  O  O23  1  0.770760  0.138902  0.361370  1
  O  O24  1  0.500891  0.835148  0.293249  1
  O  O25  1  0.000000  0.164638  0.424927  1
  O  O26  1  0.499560  0.169395  0.421525  1
  O  O27  1  -0.000000  0.830690  0.296575  1
  O  O28  1  0.276589  0.105306  0.476752  1
  O  O29  1  0.776709  0.894592  0.241378  1
  O  O30  1  0.985291  0.009015  0.513668  1
  O  O31  1  0.485299  0.990805  0.204437  1
  O  O32  1  0.268006  0.141996  0.550787  1
  O  O33  1  0.776709  0.894592  0.552290  1
  O  O34  1  0.485299  0.990805  0.515349  1
  Si  Si35  1  0.254428  0.063145  0.202805  1
  Si  Si36  1  0.247826  0.180891  0.283502  1
  Si  Si37  1  0.748261  0.818977  0.434608  1
  Si  Si38  1  0.242215  0.387672  0.328115  1
  Si  Si39  1  0.740766  0.612232  0.389959  1
  Si  Si40  1  0.240648  0.607619  0.340127  1
  Si  Si41  1  0.742092  0.392293  0.377992  1
  Si  Si42  1  0.247946  0.896184  0.400289  1
  Si  Si43  1  0.747510  0.103775  0.317842  1
  Si  Si44  1  0.260763  0.803464  0.315253  1
  Si  Si45  1  0.760129  0.196467  0.402888  1
  Si  Si46  1  0.259649  0.113821  0.434159  1
  Si  Si47  1  0.760253  0.886134  0.283979  1
  Si  Si48  1  0.254428  0.063145  0.513716  1
  Si  Si49  1  0.754447  0.936680  0.204400  1
  Si  Si50  1  0.754447  0.936680  0.515312  1
  H  H51  1  0.768215  0.857804  0.142428  1
  H  H52  1  0.276589  0.105306  0.140935  1
  H  H53  1  0.268006  0.141996  0.575692  1
  H  H54  1  0.776709  0.894592  0.577196  1
