# generated using pymatgen
data_Si6H2O13
_symmetry_space_group_name_H-M   'P 1'
_cell_length_a   10.13810602
_cell_length_b   35.95875048
_cell_length_c   36.90388776
_cell_angle_alpha   106.37546612
_cell_angle_beta   90.00000000
_cell_angle_gamma   90.00000000
_symmetry_Int_Tables_number   1
_chemical_formula_structural   Si6H2O13
_chemical_formula_sum   'Si72 H24 O156'
_cell_volume   12907.7041078
_cell_formula_units_Z   12
loop_
 _symmetry_equiv_pos_site_id
 _symmetry_equiv_pos_as_xyz
  1  'x, y, z'
loop_
 _atom_site_type_symbol
 _atom_site_label
 _atom_site_symmetry_multiplicity
 _atom_site_fract_x
 _atom_site_fract_y
 _atom_site_fract_z
 _atom_site_occupancy
  O  O1  1  0.249718  0.152040  0.212059  1
  O  O2  1  0.250104  0.296786  0.165620  1
  O  O3  1  0.123553  0.283500  0.219543  1
  O  O4  1  0.376334  0.283475  0.219580  1
  O  O5  1  0.554816  0.236670  0.183941  1
  O  O6  1  0.944934  0.236718  0.183946  1
  O  O7  1  0.249929  0.457630  0.209782  1
  O  O8  1  0.749805  0.652027  0.212016  1
  O  O9  1  0.749683  0.796780  0.165603  1
  O  O10  1  0.623388  0.783486  0.219553  1
  O  O11  1  0.876168  0.783470  0.219522  1
  O  O12  1  0.054659  0.736664  0.183891  1
  O  O13  1  0.444789  0.736710  0.183919  1
  O  O14  1  0.749734  0.957637  0.209788  1
  O  O15  1  0.249892  0.152047  0.314330  1
  O  O16  1  0.249718  0.152040  0.486769  1
  O  O17  1  0.563593  0.098010  0.385741  1
  O  O18  1  0.935889  0.097985  0.385673  1
  O  O19  1  0.127455  0.125078  0.359553  1
  O  O20  1  0.372089  0.125079  0.426749  1
  O  O21  1  0.127471  0.124910  0.426714  1
  O  O22  1  0.372090  0.125020  0.359535  1
  O  O23  1  0.249601  0.076038  0.304461  1
  O  O24  1  0.250209  0.076022  0.454935  1
  O  O25  1  0.749681  0.046788  0.371663  1
  O  O26  1  0.540031  0.033499  0.333293  1
  O  O27  1  0.959373  0.033481  0.402700  1
  O  O28  1  0.540026  0.033476  0.402727  1
  O  O29  1  0.959252  0.033447  0.333252  1
  O  O30  1  0.122910  0.013425  0.446246  1
  O  O31  1  0.376508  0.013384  0.278732  1
  O  O32  1  0.122827  0.013365  0.278704  1
  O  O33  1  0.376602  0.013305  0.446242  1
  O  O34  1  0.249763  0.042402  0.233104  1
  O  O35  1  0.976135  0.326033  0.310993  1
  O  O36  1  0.523881  0.326012  0.310977  1
  O  O37  1  0.523734  0.174026  0.406566  1
  O  O38  1  0.975962  0.173996  0.406704  1
  O  O39  1  0.249838  0.203258  0.277256  1
  O  O40  1  0.250104  0.296786  0.440330  1
  O  O41  1  0.123614  0.216570  0.338524  1
  O  O42  1  0.376303  0.216546  0.223330  1
  O  O43  1  0.123528  0.216580  0.223308  1
  O  O44  1  0.376379  0.216562  0.338486  1
  O  O45  1  0.376284  0.283475  0.379048  1
  O  O46  1  0.123553  0.283500  0.494253  1
  O  O47  1  0.376334  0.283475  0.494290  1
  O  O48  1  0.123511  0.283467  0.379117  1
  O  O49  1  0.945029  0.236611  0.388941  1
  O  O50  1  0.554816  0.236670  0.458652  1
  O  O51  1  0.944934  0.236718  0.458656  1
  O  O52  1  0.554829  0.236690  0.388968  1
  O  O53  1  0.554944  0.263375  0.328637  1
  O  O54  1  0.945074  0.263373  0.258952  1
  O  O55  1  0.554922  0.263338  0.258940  1
  O  O56  1  0.945080  0.263377  0.328648  1
  O  O57  1  0.750019  0.292402  0.301762  1
  O  O58  1  0.749887  0.207639  0.415834  1
  O  O59  1  0.936103  0.402046  0.331888  1
  O  O60  1  0.563830  0.402024  0.331876  1
  O  O61  1  0.249919  0.347994  0.403258  1
  O  O62  1  0.249997  0.348006  0.230819  1
  O  O63  1  0.127680  0.375018  0.358052  1
  O  O64  1  0.372281  0.375013  0.290861  1
  O  O65  1  0.127652  0.375045  0.290858  1
  O  O66  1  0.372310  0.374993  0.358059  1
  O  O67  1  0.249983  0.424008  0.413139  1
  O  O68  1  0.250050  0.424016  0.262672  1
  O  O69  1  0.749921  0.453250  0.345948  1
  O  O70  1  0.959574  0.466572  0.384322  1
  O  O71  1  0.540268  0.466535  0.314860  1
  O  O72  1  0.959526  0.466565  0.314879  1
  O  O73  1  0.540241  0.466549  0.384305  1
  O  O74  1  0.376701  0.486687  0.271357  1
  O  O75  1  0.123125  0.486673  0.438878  1
  O  O76  1  0.376796  0.486671  0.438887  1
  O  O77  1  0.122997  0.486644  0.271335  1
  O  O78  1  0.249929  0.457630  0.484492  1
  O  O79  1  0.749928  0.652041  0.314293  1
  O  O80  1  0.749805  0.652027  0.486726  1
  O  O81  1  0.063804  0.597991  0.385671  1
  O  O82  1  0.436080  0.597989  0.385671  1
  O  O83  1  0.627521  0.625098  0.359519  1
  O  O84  1  0.872209  0.624972  0.426692  1
  O  O85  1  0.627588  0.624994  0.426687  1
  O  O86  1  0.872165  0.624983  0.359489  1
  O  O87  1  0.749607  0.576030  0.304427  1
  O  O88  1  0.749806  0.576013  0.454897  1
  O  O89  1  0.249997  0.546775  0.371627  1
  O  O90  1  0.040367  0.533465  0.333246  1
  O  O91  1  0.459648  0.533475  0.402698  1
  O  O92  1  0.040333  0.533481  0.402689  1
  O  O93  1  0.459657  0.533459  0.333254  1
  O  O94  1  0.623153  0.513331  0.446209  1
  O  O95  1  0.876748  0.513397  0.278712  1
  O  O96  1  0.623079  0.513330  0.278662  1
  O  O97  1  0.876840  0.513386  0.446227  1
  O  O98  1  0.749925  0.542397  0.233074  1
  O  O99  1  0.475824  0.826007  0.311021  1
  O  O100  1  0.023600  0.826044  0.310873  1
  O  O101  1  0.023630  0.673998  0.406551  1
  O  O102  1  0.475863  0.674009  0.406642  1
  O  O103  1  0.749747  0.703244  0.277214  1
  O  O104  1  0.749683  0.796780  0.440313  1
  O  O105  1  0.623412  0.716545  0.338470  1
  O  O106  1  0.876112  0.716546  0.223273  1
  O  O107  1  0.623326  0.716551  0.223284  1
  O  O108  1  0.876176  0.716580  0.338459  1
  O  O109  1  0.876087  0.783470  0.379069  1
  O  O110  1  0.623388  0.783486  0.494263  1
  O  O111  1  0.876168  0.783470  0.494233  1
  O  O112  1  0.623323  0.783450  0.379052  1
  O  O113  1  0.444860  0.736620  0.388915  1
  O  O114  1  0.054659  0.736664  0.458601  1
  O  O115  1  0.444789  0.736710  0.458629  1
  O  O116  1  0.054677  0.736658  0.388908  1
  O  O117  1  0.054595  0.763432  0.328621  1
  O  O118  1  0.444824  0.763363  0.258923  1
  O  O119  1  0.054678  0.763329  0.258902  1
  O  O120  1  0.444775  0.763333  0.328602  1
  O  O121  1  0.249712  0.792396  0.301728  1
  O  O122  1  0.249737  0.707630  0.415797  1
  O  O123  1  0.435953  0.902029  0.331858  1
  O  O124  1  0.063655  0.902051  0.331915  1
  O  O125  1  0.749702  0.847981  0.403242  1
  O  O126  1  0.749859  0.848000  0.230810  1
  O  O127  1  0.627460  0.875014  0.358051  1
  O  O128  1  0.872065  0.875130  0.290871  1
  O  O129  1  0.627439  0.874948  0.290834  1
  O  O130  1  0.872089  0.874970  0.358033  1
  O  O131  1  0.749886  0.923995  0.413137  1
  O  O132  1  0.749262  0.924014  0.262660  1
  O  O133  1  0.249853  0.953250  0.345947  1
  O  O134  1  0.459494  0.966542  0.384316  1
  O  O135  1  0.040164  0.966555  0.314901  1
  O  O136  1  0.459494  0.966567  0.314883  1
  O  O137  1  0.040257  0.966585  0.384348  1
  O  O138  1  0.876595  0.986605  0.271356  1
  O  O139  1  0.622999  0.986657  0.438876  1
  O  O140  1  0.876673  0.986667  0.438894  1
  O  O141  1  0.622902  0.986739  0.271365  1
  O  O142  1  0.749734  0.957637  0.484498  1
  O  O143  1  0.249763  0.042402  0.507814  1
  O  O144  1  0.249838  0.203258  0.551966  1
  O  O145  1  0.376303  0.216546  0.498040  1
  O  O146  1  0.123528  0.216580  0.498018  1
  O  O147  1  0.945074  0.263373  0.533662  1
  O  O148  1  0.554922  0.263338  0.533651  1
  O  O149  1  0.249997  0.348006  0.505529  1
  O  O150  1  0.749925  0.542397  0.507785  1
  O  O151  1  0.749747  0.703244  0.551924  1
  O  O152  1  0.876112  0.716546  0.497983  1
  O  O153  1  0.623326  0.716551  0.497994  1
  O  O154  1  0.444824  0.763363  0.533633  1
  O  O155  1  0.054678  0.763329  0.533612  1
  O  O156  1  0.749859  0.848000  0.505520  1
  Si  Si157  1  0.250004  0.303482  0.209112  1
  Si  Si158  1  0.749774  0.803478  0.209095  1
  Si  Si159  1  0.972624  0.750001  0.221397  1
  Si  Si160  1  0.249752  0.117559  0.332692  1
  Si  Si161  1  0.249854  0.117527  0.449480  1
  Si  Si162  1  0.462367  0.132521  0.395190  1
  Si  Si163  1  0.037206  0.132475  0.395205  1
  Si  Si164  1  0.598062  0.053485  0.373509  1
  Si  Si165  1  0.901310  0.053466  0.373469  1
  Si  Si166  1  0.499732  0.000000  0.297587  1
  Si  Si167  1  0.249667  0.036270  0.273348  1
  Si  Si168  1  0.249850  0.036255  0.464198  1
  Si  Si169  1  -0.000000  0.000000  0.420028  1
  Si  Si170  1  0.249953  0.196568  0.317071  1
  Si  Si171  1  0.249854  0.196564  0.233764  1
  Si  Si172  1  0.249948  0.303472  0.400513  1
  Si  Si173  1  0.250004  0.303482  0.483822  1
  Si  Si174  1  0.027096  0.250007  0.358809  1
  Si  Si175  1  0.472799  0.250005  0.221449  1
  Si  Si176  1  0.027059  0.250047  0.221438  1
  Si  Si177  1  0.472806  0.250025  0.358787  1
  Si  Si178  1  0.902642  0.286267  0.300087  1
  Si  Si179  1  0.597402  0.286251  0.300068  1
  Si  Si180  1  0.597269  0.213786  0.417515  1
  Si  Si181  1  0.902513  0.213769  0.417532  1
  Si  Si182  1  0.037399  0.367552  0.322401  1
  Si  Si183  1  0.462561  0.367522  0.322400  1
  Si  Si184  1  0.249981  0.382489  0.384906  1
  Si  Si185  1  0.249996  0.382507  0.268117  1
  Si  Si186  1  0.901548  0.446566  0.344111  1
  Si  Si187  1  0.598304  0.446549  0.344096  1
  Si  Si188  1  0.249952  0.463775  0.444253  1
  Si  Si189  1  0.249900  0.463777  0.253397  1
  Si  Si190  1  0.499919  0.499998  0.297552  1
  Si  Si191  1  0.749809  0.617553  0.332654  1
  Si  Si192  1  0.749871  0.617516  0.449438  1
  Si  Si193  1  0.962438  0.632471  0.395145  1
  Si  Si194  1  0.537268  0.632509  0.395171  1
  Si  Si195  1  0.098376  0.553471  0.373458  1
  Si  Si196  1  0.401621  0.553465  0.373464  1
  Si  Si197  1  -0.000000  0.500030  0.420009  1
  Si  Si198  1  0.000000  0.500016  0.297562  1
  Si  Si199  1  0.749869  0.536260  0.273316  1
  Si  Si200  1  0.749940  0.536250  0.464169  1
  Si  Si201  1  0.499961  0.500009  0.420006  1
  Si  Si202  1  0.749813  0.696562  0.317032  1
  Si  Si203  1  0.749727  0.696551  0.233722  1
  Si  Si204  1  0.749682  0.803459  0.400494  1
  Si  Si205  1  0.749774  0.803478  0.483806  1
  Si  Si206  1  0.526899  0.749986  0.358759  1
  Si  Si207  1  0.972624  0.750001  0.496107  1
  Si  Si208  1  0.526874  0.750027  0.221420  1
  Si  Si209  1  0.972595  0.750037  0.358765  1
  Si  Si210  1  0.402329  0.786242  0.300057  1
  Si  Si211  1  0.097081  0.786275  0.300029  1
  Si  Si212  1  0.097113  0.713767  0.417468  1
  Si  Si213  1  0.402359  0.713773  0.417502  1
  Si  Si214  1  0.537169  0.867515  0.322399  1
  Si  Si215  1  0.962333  0.867563  0.322379  1
  Si  Si216  1  0.749795  0.882479  0.384894  1
  Si  Si217  1  0.749671  0.882505  0.268104  1
  Si  Si218  1  0.401473  0.946554  0.344099  1
  Si  Si219  1  0.098225  0.946571  0.344133  1
  Si  Si220  1  -0.000000  -0.000000  0.297572  1
  Si  Si221  1  0.749642  0.963784  0.253404  1
  Si  Si222  1  0.749833  0.963763  0.444251  1
  Si  Si223  1  0.499777  -0.000000  0.420022  1
  Si  Si224  1  0.249854  0.196564  0.508474  1
  Si  Si225  1  0.472799  0.250005  0.496159  1
  Si  Si226  1  0.027059  0.250047  0.496149  1
  Si  Si227  1  0.749727  0.696551  0.508432  1
  Si  Si228  1  0.526874  0.750027  0.496130  1
  H  H229  1  0.249718  0.152040  0.187671  1
  H  H230  1  0.250104  0.296786  0.141232  1
  H  H231  1  0.554816  0.236670  0.159554  1
  H  H232  1  0.944934  0.236718  0.159558  1
  H  H233  1  0.249929  0.457630  0.185394  1
  H  H234  1  0.749805  0.652027  0.187629  1
  H  H235  1  0.749683  0.796780  0.141216  1
  H  H236  1  0.054659  0.736664  0.159503  1
  H  H237  1  0.444789  0.736710  0.159531  1
  H  H238  1  0.749734  0.957637  0.185400  1
  H  H239  1  0.249763  0.042402  0.208716  1
  H  H240  1  0.249929  0.457630  0.508880  1
  H  H241  1  0.749925  0.542397  0.208687  1
  H  H242  1  0.749734  0.957637  0.508886  1
  H  H243  1  0.249763  0.042402  0.532201  1
  H  H244  1  0.249838  0.203258  0.576353  1
  H  H245  1  0.945074  0.263373  0.558050  1
  H  H246  1  0.554922  0.263338  0.558038  1
  H  H247  1  0.249997  0.348006  0.529916  1
  H  H248  1  0.749925  0.542397  0.532172  1
  H  H249  1  0.749747  0.703244  0.576311  1
  H  H250  1  0.444824  0.763363  0.558020  1
  H  H251  1  0.054678  0.763329  0.558000  1
  H  H252  1  0.749859  0.848000  0.529907  1
