# generated using pymatgen
data_Si6H2O13
_symmetry_space_group_name_H-M   'P 1'
_cell_length_a   7.51561045
_cell_length_b   23.17128744
_cell_length_c   43.82550034
_cell_angle_alpha   52.20637989
_cell_angle_beta   90.00000000
_cell_angle_gamma   90.00000000
_symmetry_Int_Tables_number   1
_chemical_formula_structural   Si6H2O13
_chemical_formula_sum   'Si36 H12 O78'
_cell_volume   6031.02481412
_cell_formula_units_Z   6
loop_
 _symmetry_equiv_pos_site_id
 _symmetry_equiv_pos_as_xyz
  1  'x, y, z'
loop_
 _atom_site_type_symbol
 _atom_site_label
 _atom_site_symmetry_multiplicity
 _atom_site_fract_x
 _atom_site_fract_y
 _atom_site_fract_z
 _atom_site_occupancy
  O  O1  1  0.744609  0.998381  0.290048  1
  O  O2  1  0.744607  0.501736  0.288961  1
  O  O3  1  0.255064  0.001793  0.288943  1
  O  O4  1  0.255062  0.498323  0.290068  1
  O  O5  1  0.742203  0.107365  0.291050  1
  O  O6  1  0.731005  0.609925  0.290255  1
  O  O7  1  0.742234  0.107367  0.350699  1
  O  O8  1  0.730978  0.609922  0.349762  1
  O  O9  1  0.268669  0.109925  0.349798  1
  O  O10  1  0.257473  0.607365  0.350663  1
  O  O11  1  0.268698  0.109921  0.290293  1
  O  O12  1  0.257440  0.607367  0.291012  1
  O  O13  1  0.838916  0.220954  0.284065  1
  O  O14  1  0.822686  0.723942  0.283071  1
  O  O15  1  0.176988  0.223942  0.283098  1
  O  O16  1  0.160759  0.720953  0.284040  1
  O  O17  1  0.991949  0.250107  0.193616  1
  O  O18  1  0.007726  0.750009  0.193626  1
  O  O19  1  0.007729  0.750107  0.355598  1
  O  O20  1  0.002892  0.317438  0.222330  1
  O  O21  1  0.996781  0.817406  0.222303  1
  O  O22  1  0.002895  0.317406  0.283300  1
  O  O23  1  0.996784  0.817438  0.283252  1
  O  O24  1  0.996784  0.682678  0.164911  1
  O  O25  1  0.002895  0.182709  0.164939  1
  O  O26  1  0.834516  0.128451  0.228989  1
  O  O27  1  0.824599  0.633569  0.227814  1
  O  O28  1  0.824601  0.866547  0.314332  1
  O  O29  1  0.834515  0.371665  0.312190  1
  O  O30  1  0.165155  0.871757  0.312116  1
  O  O31  1  0.175073  0.366456  0.314406  1
  O  O32  1  0.175075  0.133659  0.227831  1
  O  O33  1  0.165151  0.628359  0.228975  1
  O  O34  1  0.507924  0.175981  0.298645  1
  O  O35  1  0.491750  0.675981  0.298603  1
  O  O36  1  0.504297  0.096575  0.254004  1
  O  O37  1  0.495374  0.596514  0.253994  1
  O  O38  1  0.495376  0.903602  0.316499  1
  O  O39  1  0.504295  0.403541  0.316548  1
  O  O40  1  0.744611  0.998323  0.422306  1
  O  O41  1  0.744613  0.501793  0.421182  1
  O  O42  1  0.255066  0.001735  0.421201  1
  O  O43  1  0.255069  0.498380  0.422288  1
  O  O44  1  0.731006  0.890191  0.361451  1
  O  O45  1  0.742202  0.392751  0.360586  1
  O  O46  1  0.730978  0.890194  0.420956  1
  O  O47  1  0.742235  0.392749  0.420236  1
  O  O48  1  0.257473  0.892751  0.420199  1
  O  O49  1  0.268671  0.390191  0.420994  1
  O  O50  1  0.257442  0.892749  0.360550  1
  O  O51  1  0.268697  0.390194  0.361487  1
  O  O52  1  0.822687  0.776174  0.428152  1
  O  O53  1  0.838917  0.279162  0.427209  1
  O  O54  1  0.160761  0.779163  0.427183  1
  O  O55  1  0.176989  0.276174  0.428178  1
  O  O56  1  0.991949  0.250107  0.517623  1
  O  O57  1  0.007726  0.750009  0.517634  1
  O  O58  1  0.991947  0.250009  0.355651  1
  O  O59  1  0.002892  0.317438  0.546338  1
  O  O60  1  0.996781  0.817406  0.546310  1
  O  O61  1  0.996781  0.682709  0.427949  1
  O  O62  1  0.002892  0.182678  0.427997  1
  O  O63  1  0.996784  0.682678  0.488919  1
  O  O64  1  0.002895  0.182709  0.488947  1
  O  O65  1  0.834522  0.128359  0.399133  1
  O  O66  1  0.824602  0.633660  0.396842  1
  O  O67  1  0.824601  0.866456  0.483419  1
  O  O68  1  0.834525  0.371756  0.482275  1
  O  O69  1  0.165159  0.871665  0.482260  1
  O  O70  1  0.175076  0.366547  0.483435  1
  O  O71  1  0.175074  0.133569  0.396918  1
  O  O72  1  0.165161  0.628450  0.399060  1
  O  O73  1  0.491751  0.824135  0.412604  1
  O  O74  1  0.507925  0.324135  0.412646  1
  O  O75  1  0.504299  0.096514  0.394750  1
  O  O76  1  0.495380  0.596575  0.394701  1
  O  O77  1  0.495378  0.903541  0.457245  1
  O  O78  1  0.504302  0.403602  0.457255  1
  Si  Si79  1  0.708338  0.082839  0.264994  1
  Si  Si80  1  0.700406  0.585568  0.264058  1
  Si  Si81  1  0.700409  0.914548  0.319469  1
  Si  Si82  1  0.708336  0.417277  0.318637  1
  Si  Si83  1  0.291333  0.917328  0.318592  1
  Si  Si84  1  0.299266  0.414496  0.319516  1
  Si  Si85  1  0.299267  0.085620  0.264070  1
  Si  Si86  1  0.291331  0.582787  0.264982  1
  Si  Si87  1  0.001528  0.172764  0.203830  1
  Si  Si88  1  0.998145  0.672686  0.203815  1
  Si  Si89  1  0.998147  0.827429  0.315681  1
  Si  Si90  1  0.001527  0.327351  0.315746  1
  Si  Si91  1  0.711251  0.153570  0.305904  1
  Si  Si92  1  0.696538  0.655925  0.305103  1
  Si  Si93  1  0.303137  0.155924  0.305142  1
  Si  Si94  1  0.288423  0.653570  0.305867  1
  Si  Si95  1  0.005167  0.272318  0.267425  1
  Si  Si96  1  0.994508  0.772318  0.267395  1
  Si  Si97  1  0.708342  0.082787  0.392658  1
  Si  Si98  1  0.700410  0.585620  0.391733  1
  Si  Si99  1  0.700408  0.914496  0.447179  1
  Si  Si100  1  0.708344  0.417329  0.446267  1
  Si  Si101  1  0.291337  0.917277  0.446255  1
  Si  Si102  1  0.299270  0.414548  0.447191  1
  Si  Si103  1  0.299268  0.085568  0.391779  1
  Si  Si104  1  0.291339  0.582839  0.392612  1
  Si  Si105  1  0.001528  0.172686  0.395568  1
  Si  Si106  1  0.998149  0.672764  0.395503  1
  Si  Si107  1  0.998147  0.827352  0.507419  1
  Si  Si108  1  0.001530  0.327430  0.507434  1
  Si  Si109  1  0.696539  0.844191  0.406108  1
  Si  Si110  1  0.711252  0.346546  0.405382  1
  Si  Si111  1  0.288423  0.846546  0.405345  1
  Si  Si112  1  0.303137  0.344191  0.406146  1
  Si  Si113  1  0.994508  0.727797  0.443824  1
  Si  Si114  1  0.005167  0.227798  0.443853  1
  H  H115  1  0.991949  0.250107  0.173080  1
  H  H116  1  0.007726  0.750009  0.173090  1
  H  H117  1  0.002892  0.317438  0.201794  1
  H  H118  1  0.996781  0.817406  0.201767  1
  H  H119  1  0.996784  0.682678  0.144375  1
  H  H120  1  0.002895  0.182709  0.144403  1
  H  H121  1  0.991949  0.250107  0.538159  1
  H  H122  1  0.007726  0.750009  0.538170  1
  H  H123  1  0.002892  0.317438  0.566874  1
  H  H124  1  0.996781  0.817406  0.566846  1
  H  H125  1  0.996784  0.682678  0.509455  1
  H  H126  1  0.002895  0.182709  0.509483  1
