# generated using pymatgen
data_Si42H2O85
_symmetry_space_group_name_H-M   'P 1'
_cell_length_a   17.25043091
_cell_length_b   17.25135508
_cell_length_c   96.40839155
_cell_angle_alpha   90.00000000
_cell_angle_beta   90.00000000
_cell_angle_gamma   120.00000000
_symmetry_Int_Tables_number   1
_chemical_formula_structural   Si42H2O85
_chemical_formula_sum   'Si252 H12 O510'
_cell_volume   24846.6951336
_cell_formula_units_Z   6
loop_
 _symmetry_equiv_pos_site_id
 _symmetry_equiv_pos_as_xyz
  1  'x, y, z'
loop_
 _atom_site_type_symbol
 _atom_site_label
 _atom_site_symmetry_multiplicity
 _atom_site_fract_x
 _atom_site_fract_y
 _atom_site_fract_z
 _atom_site_occupancy
  O  O1  1  0.100579  0.413729  0.061201  1
  O  O2  1  0.313200  0.413733  0.061201  1
  O  O3  1  0.332582  0.461629  0.088484  1
  O  O4  1  0.129117  0.461625  0.088485  1
  O  O5  1  0.997290  0.289562  0.185311  1
  O  O6  1  0.292369  0.289550  0.185309  1
  O  O7  1  0.289642  0.292293  0.135518  1
  O  O8  1  0.002754  0.292292  0.135521  1
  O  O9  1  0.000000  0.250792  0.160416  1
  O  O10  1  0.250869  0.250784  0.160412  1
  O  O11  1  0.144394  0.288691  0.174954  1
  O  O12  1  0.288779  0.144324  0.145875  1
  O  O13  1  0.855642  0.144328  0.145877  1
  O  O14  1  0.104884  0.408205  0.167743  1
  O  O15  1  0.303428  0.408200  0.167741  1
  O  O16  1  0.408280  0.303329  0.153085  1
  O  O17  1  0.696607  0.104788  0.153088  1
  O  O18  1  0.408280  0.104790  0.153087  1
  O  O19  1  0.895150  0.303335  0.153087  1
  O  O20  1  0.686814  0.100520  0.205061  1
  O  O21  1  0.413793  0.313132  0.205062  1
  O  O22  1  0.899426  0.313145  0.205066  1
  O  O23  1  0.413780  0.100522  0.205061  1
  O  O24  1  0.100605  0.413729  0.115768  1
  O  O25  1  0.313223  0.413736  0.115766  1
  O  O26  1  0.676343  0.123665  0.178675  1
  O  O27  1  0.447438  0.323600  0.178671  1
  O  O28  1  0.876260  0.323605  0.178672  1
  O  O29  1  0.447424  0.123671  0.178674  1
  O  O30  1  0.123769  0.447365  0.142161  1
  O  O31  1  0.323708  0.447366  0.142160  1
  O  O32  1  0.826554  0.173342  0.189657  1
  O  O33  1  0.346876  0.173346  0.189655  1
  O  O34  1  0.173459  0.346808  0.131176  1
  O  O35  1  0.570669  0.429289  0.161213  1
  O  O36  1  0.570661  0.141213  0.161214  1
  O  O37  1  0.858712  0.429281  0.161215  1
  O  O38  1  0.742656  0.485227  0.162925  1
  O  O39  1  0.514727  0.257283  0.162924  1
  O  O40  1  0.742651  0.257274  0.162925  1
  O  O41  1  0.292379  0.002683  0.185310  1
  O  O42  1  0.710407  0.002694  0.185311  1
  O  O43  1  0.997235  0.289555  0.279382  1
  O  O44  1  0.292335  0.289549  0.279382  1
  O  O45  1  0.144362  0.288685  0.289738  1
  O  O46  1  0.104844  0.408199  0.296950  1
  O  O47  1  0.303392  0.408191  0.296948  1
  O  O48  1  0.686781  0.100514  0.259628  1
  O  O49  1  0.413774  0.313134  0.259627  1
  O  O50  1  0.899396  0.313136  0.259630  1
  O  O51  1  0.413763  0.100510  0.259628  1
  O  O52  1  0.676286  0.123663  0.286021  1
  O  O53  1  0.447402  0.323597  0.286019  1
  O  O54  1  0.876224  0.323590  0.286020  1
  O  O55  1  0.447396  0.123670  0.286020  1
  O  O56  1  0.826561  0.173376  0.275035  1
  O  O57  1  0.346836  0.173360  0.275033  1
  O  O58  1  0.742625  0.485226  0.301767  1
  O  O59  1  0.514683  0.257276  0.301766  1
  O  O60  1  0.742619  0.257270  0.301767  1
  O  O61  1  0.848216  0.424037  0.213496  1
  O  O62  1  0.575898  0.424042  0.213494  1
  O  O63  1  0.575896  0.151715  0.213496  1
  O  O64  1  0.848198  0.424029  0.251197  1
  O  O65  1  0.575877  0.424031  0.251196  1
  O  O66  1  0.575875  0.151710  0.251197  1
  O  O67  1  0.870872  0.332502  0.232348  1
  O  O68  1  0.461685  0.129052  0.232345  1
  O  O69  1  0.667420  0.129052  0.232345  1
  O  O70  1  0.461682  0.332499  0.232347  1
  O  O71  1  0.745221  0.254699  0.215146  1
  O  O72  1  0.745226  0.490381  0.215146  1
  O  O73  1  0.509554  0.254703  0.215147  1
  O  O74  1  0.745210  0.254706  0.249546  1
  O  O75  1  0.745213  0.490377  0.249545  1
  O  O76  1  0.509535  0.254707  0.249546  1
  O  O77  1  0.292327  0.002661  0.279381  1
  O  O78  1  0.710368  0.002666  0.279379  1
  O  O79  1  0.570634  0.429281  0.303479  1
  O  O80  1  0.570621  0.141218  0.303480  1
  O  O81  1  0.858673  0.429275  0.303478  1
  O  O82  1  0.313189  0.899339  0.061201  1
  O  O83  1  0.586193  0.686741  0.061199  1
  O  O84  1  0.100581  0.686723  0.061202  1
  O  O85  1  0.586203  0.899335  0.061198  1
  O  O86  1  0.151784  0.575823  0.069634  1
  O  O87  1  0.424108  0.575841  0.069634  1
  O  O88  1  0.424114  0.848156  0.069633  1
  O  O89  1  0.151798  0.575826  0.107335  1
  O  O90  1  0.424116  0.575837  0.107335  1
  O  O91  1  0.424122  0.848160  0.107336  1
  O  O92  1  0.129123  0.667361  0.088485  1
  O  O93  1  0.538321  0.870826  0.088483  1
  O  O94  1  0.332569  0.870819  0.088485  1
  O  O95  1  0.538313  0.667369  0.088482  1
  O  O96  1  0.254772  0.745161  0.071284  1
  O  O97  1  0.254768  0.509477  0.071285  1
  O  O98  1  0.490436  0.745157  0.071286  1
  O  O99  1  0.254785  0.745157  0.105684  1
  O  O100  1  0.254783  0.509480  0.105684  1
  O  O101  1  0.490461  0.745165  0.105685  1
  O  O102  1  0.710402  0.707572  0.185311  1
  O  O103  1  0.997272  0.707561  0.185311  1
  O  O104  1  0.002749  0.710293  0.135521  1
  O  O105  1  0.707653  0.710303  0.135519  1
  O  O106  1  0.749168  0.749073  0.160414  1
  O  O107  1  0.250857  0.000000  0.160415  1
  O  O108  1  -0.000000  0.749057  0.160416  1
  O  O109  1  0.711273  0.855568  0.174953  1
  O  O110  1  0.144396  0.855553  0.174953  1
  O  O111  1  0.855627  0.711151  0.145875  1
  O  O112  1  0.591754  0.696535  0.167742  1
  O  O113  1  0.303411  0.895073  0.167743  1
  O  O114  1  0.591768  0.895074  0.167743  1
  O  O115  1  0.104881  0.696524  0.167743  1
  O  O116  1  0.895149  0.591653  0.153088  1
  O  O117  1  0.696602  0.591657  0.153087  1
  O  O118  1  0.899420  0.586133  0.205064  1
  O  O119  1  0.686799  0.586137  0.205063  1
  O  O120  1  0.313206  0.899334  0.115767  1
  O  O121  1  0.586216  0.686734  0.115767  1
  O  O122  1  0.100606  0.686725  0.115768  1
  O  O123  1  0.586232  0.899347  0.115768  1
  O  O124  1  0.876269  0.552501  0.178673  1
  O  O125  1  0.676329  0.552508  0.178672  1
  O  O126  1  0.323702  0.876188  0.142160  1
  O  O127  1  0.552591  0.676274  0.142160  1
  O  O128  1  0.123779  0.676265  0.142161  1
  O  O129  1  0.552592  0.876189  0.142161  1
  O  O130  1  0.826575  0.653056  0.189657  1
  O  O131  1  0.173441  0.826488  0.131177  1
  O  O132  1  0.653157  0.826500  0.131175  1
  O  O133  1  0.429377  0.570585  0.159618  1
  O  O134  1  0.429383  0.858642  0.159621  1
  O  O135  1  0.141320  0.570578  0.159619  1
  O  O136  1  0.257371  0.514627  0.157909  1
  O  O137  1  0.485316  0.742588  0.157908  1
  O  O138  1  0.257376  0.742586  0.157909  1
  O  O139  1  0.707665  0.997194  0.135520  1
  O  O140  1  0.289630  0.997190  0.135519  1
  O  O141  1  0.749171  -0.000000  0.160416  1
  O  O142  1  0.710369  0.707577  0.279379  1
  O  O143  1  0.997242  0.707565  0.279381  1
  O  O144  1  0.711233  0.855545  0.289737  1
  O  O145  1  0.144356  0.855554  0.289739  1
  O  O146  1  0.591728  0.696536  0.296946  1
  O  O147  1  0.303382  0.895076  0.296948  1
  O  O148  1  0.591728  0.895074  0.296947  1
  O  O149  1  0.104850  0.696525  0.296950  1
  O  O150  1  0.899408  0.586133  0.259630  1
  O  O151  1  0.686779  0.586136  0.259627  1
  O  O152  1  0.876235  0.552500  0.286022  1
  O  O153  1  0.676286  0.552493  0.286020  1
  O  O154  1  0.826555  0.653058  0.275036  1
  O  O155  1  0.667416  0.538230  0.232346  1
  O  O156  1  0.870877  0.538226  0.232347  1
  O  O157  1  0.289609  0.292295  0.329172  1
  O  O158  1  0.002730  0.292302  0.329174  1
  O  O159  1  0.250839  0.250784  0.304277  1
  O  O160  1  0.000000  0.250785  0.304278  1
  O  O161  1  0.288746  0.144311  0.318817  1
  O  O162  1  0.855589  0.144308  0.318816  1
  O  O163  1  0.408248  0.303327  0.311605  1
  O  O164  1  0.696581  0.104785  0.311605  1
  O  O165  1  0.408240  0.104789  0.311605  1
  O  O166  1  0.895112  0.303335  0.311606  1
  O  O167  1  0.100579  0.413729  0.348924  1
  O  O168  1  0.313200  0.413733  0.348924  1
  O  O169  1  0.123733  0.447365  0.322531  1
  O  O170  1  0.323675  0.447363  0.322531  1
  O  O171  1  0.173426  0.346809  0.333516  1
  O  O172  1  0.332582  0.461629  0.376207  1
  O  O173  1  0.129117  0.461625  0.376208  1
  O  O174  1  0.997290  0.289562  0.473034  1
  O  O175  1  0.292369  0.289550  0.473032  1
  O  O176  1  0.289642  0.292293  0.423241  1
  O  O177  1  0.002754  0.292292  0.423244  1
  O  O178  1  0.000000  0.250792  0.448139  1
  O  O179  1  0.250869  0.250784  0.448136  1
  O  O180  1  0.144394  0.288691  0.462677  1
  O  O181  1  0.288779  0.144324  0.433598  1
  O  O182  1  0.855642  0.144328  0.433600  1
  O  O183  1  0.104884  0.408205  0.455466  1
  O  O184  1  0.303428  0.408200  0.455464  1
  O  O185  1  0.408280  0.303329  0.440808  1
  O  O186  1  0.696607  0.104788  0.440811  1
  O  O187  1  0.408280  0.104790  0.440810  1
  O  O188  1  0.895150  0.303335  0.440810  1
  O  O189  1  0.686814  0.100520  0.492784  1
  O  O190  1  0.413793  0.313132  0.492786  1
  O  O191  1  0.899426  0.313145  0.492789  1
  O  O192  1  0.413780  0.100522  0.492784  1
  O  O193  1  0.100605  0.413729  0.403491  1
  O  O194  1  0.313223  0.413736  0.403490  1
  O  O195  1  0.676343  0.123665  0.466398  1
  O  O196  1  0.447438  0.323600  0.466394  1
  O  O197  1  0.876260  0.323605  0.466395  1
  O  O198  1  0.447424  0.123671  0.466398  1
  O  O199  1  0.123769  0.447365  0.429884  1
  O  O200  1  0.323708  0.447366  0.429883  1
  O  O201  1  0.826554  0.173342  0.477381  1
  O  O202  1  0.346876  0.173346  0.477378  1
  O  O203  1  0.173459  0.346808  0.418899  1
  O  O204  1  0.570669  0.429289  0.448937  1
  O  O205  1  0.570661  0.141213  0.448937  1
  O  O206  1  0.858712  0.429281  0.448938  1
  O  O207  1  0.742656  0.485227  0.450649  1
  O  O208  1  0.514727  0.257283  0.450647  1
  O  O209  1  0.742651  0.257274  0.450648  1
  O  O210  1  0.292379  0.002683  0.473033  1
  O  O211  1  0.710407  0.002694  0.473034  1
  O  O212  1  0.997235  0.289555  0.567105  1
  O  O213  1  0.292335  0.289549  0.567105  1
  O  O214  1  0.144362  0.288685  0.577461  1
  O  O215  1  0.104844  0.408199  0.584673  1
  O  O216  1  0.303392  0.408191  0.584671  1
  O  O217  1  0.686781  0.100514  0.547351  1
  O  O218  1  0.413774  0.313134  0.547350  1
  O  O219  1  0.899396  0.313136  0.547353  1
  O  O220  1  0.413763  0.100510  0.547351  1
  O  O221  1  0.676286  0.123663  0.573744  1
  O  O222  1  0.447402  0.323597  0.573743  1
  O  O223  1  0.876224  0.323590  0.573743  1
  O  O224  1  0.447396  0.123670  0.573743  1
  O  O225  1  0.826561  0.173376  0.562758  1
  O  O226  1  0.346836  0.173360  0.562756  1
  O  O227  1  0.742625  0.485226  0.589491  1
  O  O228  1  0.514683  0.257276  0.589489  1
  O  O229  1  0.742619  0.257270  0.589490  1
  O  O230  1  0.848216  0.424037  0.501219  1
  O  O231  1  0.575898  0.424042  0.501218  1
  O  O232  1  0.575896  0.151715  0.501219  1
  O  O233  1  0.848198  0.424029  0.538920  1
  O  O234  1  0.575877  0.424031  0.538919  1
  O  O235  1  0.575875  0.151710  0.538921  1
  O  O236  1  0.870872  0.332502  0.520071  1
  O  O237  1  0.461685  0.129052  0.520068  1
  O  O238  1  0.667420  0.129052  0.520068  1
  O  O239  1  0.461682  0.332499  0.520070  1
  O  O240  1  0.745221  0.254699  0.502869  1
  O  O241  1  0.745226  0.490381  0.502869  1
  O  O242  1  0.509554  0.254703  0.502870  1
  O  O243  1  0.745210  0.254706  0.537269  1
  O  O244  1  0.745213  0.490377  0.537268  1
  O  O245  1  0.509535  0.254707  0.537269  1
  O  O246  1  0.292327  0.002661  0.567104  1
  O  O247  1  0.710368  0.002666  0.567102  1
  O  O248  1  0.570634  0.429281  0.591202  1
  O  O249  1  0.570621  0.141218  0.591203  1
  O  O250  1  0.858673  0.429275  0.591202  1
  O  O251  1  0.002719  0.710291  0.329174  1
  O  O252  1  0.707610  0.710302  0.329169  1
  O  O253  1  0.749144  -0.000000  0.304276  1
  O  O254  1  0.855583  0.711150  0.318818  1
  O  O255  1  0.895115  0.591646  0.311605  1
  O  O256  1  0.696573  0.591659  0.311604  1
  O  O257  1  0.313189  0.899339  0.348924  1
  O  O258  1  0.586193  0.686741  0.348923  1
  O  O259  1  0.100581  0.686723  0.348925  1
  O  O260  1  0.586203  0.899335  0.348921  1
  O  O261  1  0.323678  0.876195  0.322530  1
  O  O262  1  0.552557  0.676258  0.322532  1
  O  O263  1  0.123747  0.676258  0.322531  1
  O  O264  1  0.552563  0.876182  0.322533  1
  O  O265  1  0.173418  0.826490  0.333517  1
  O  O266  1  0.653101  0.826494  0.333511  1
  O  O267  1  0.257336  0.514633  0.306782  1
  O  O268  1  0.485268  0.742575  0.306779  1
  O  O269  1  0.257336  0.742585  0.306783  1
  O  O270  1  0.151784  0.575823  0.357357  1
  O  O271  1  0.424108  0.575841  0.357357  1
  O  O272  1  0.424114  0.848156  0.357357  1
  O  O273  1  0.151798  0.575826  0.395058  1
  O  O274  1  0.424116  0.575837  0.395058  1
  O  O275  1  0.424122  0.848160  0.395059  1
  O  O276  1  0.129123  0.667361  0.376209  1
  O  O277  1  0.538321  0.870826  0.376207  1
  O  O278  1  0.332569  0.870819  0.376208  1
  O  O279  1  0.538313  0.667369  0.376206  1
  O  O280  1  0.254772  0.745161  0.359007  1
  O  O281  1  0.254768  0.509477  0.359008  1
  O  O282  1  0.490436  0.745157  0.359009  1
  O  O283  1  0.254785  0.745157  0.393407  1
  O  O284  1  0.254783  0.509480  0.393407  1
  O  O285  1  0.490461  0.745165  0.393408  1
  O  O286  1  0.707606  0.997172  0.329170  1
  O  O287  1  0.289602  0.997188  0.329172  1
  O  O288  1  0.000000  0.749068  0.304278  1
  O  O289  1  0.250832  0.000000  0.304278  1
  O  O290  1  0.749142  0.749069  0.304276  1
  O  O291  1  0.429331  0.570569  0.305072  1
  O  O292  1  0.429332  0.858646  0.305070  1
  O  O293  1  0.141284  0.570584  0.305073  1
  O  O294  1  0.710402  0.707572  0.473034  1
  O  O295  1  0.997272  0.707561  0.473035  1
  O  O296  1  0.002749  0.710293  0.423244  1
  O  O297  1  0.707653  0.710303  0.423242  1
  O  O298  1  0.749168  0.749073  0.448138  1
  O  O299  1  0.250857  -0.000000  0.448138  1
  O  O300  1  0.000000  0.749057  0.448139  1
  O  O301  1  0.711273  0.855568  0.462676  1
  O  O302  1  0.144396  0.855553  0.462676  1
  O  O303  1  0.855627  0.711151  0.433598  1
  O  O304  1  0.591754  0.696535  0.455466  1
  O  O305  1  0.303411  0.895073  0.455466  1
  O  O306  1  0.591768  0.895074  0.455466  1
  O  O307  1  0.104881  0.696524  0.455466  1
  O  O308  1  0.895149  0.591653  0.440812  1
  O  O309  1  0.696602  0.591657  0.440810  1
  O  O310  1  0.899420  0.586133  0.492788  1
  O  O311  1  0.686799  0.586137  0.492786  1
  O  O312  1  0.313206  0.899334  0.403490  1
  O  O313  1  0.586216  0.686734  0.403490  1
  O  O314  1  0.100606  0.686725  0.403492  1
  O  O315  1  0.586232  0.899347  0.403491  1
  O  O316  1  0.876269  0.552501  0.466396  1
  O  O317  1  0.676329  0.552508  0.466395  1
  O  O318  1  0.323702  0.876188  0.429884  1
  O  O319  1  0.552591  0.676274  0.429883  1
  O  O320  1  0.123779  0.676265  0.429884  1
  O  O321  1  0.552592  0.876189  0.429884  1
  O  O322  1  0.826575  0.653056  0.477380  1
  O  O323  1  0.173441  0.826488  0.418900  1
  O  O324  1  0.653157  0.826500  0.418898  1
  O  O325  1  0.429377  0.570585  0.447341  1
  O  O326  1  0.429383  0.858642  0.447344  1
  O  O327  1  0.141320  0.570578  0.447342  1
  O  O328  1  0.257371  0.514627  0.445632  1
  O  O329  1  0.485316  0.742588  0.445632  1
  O  O330  1  0.257376  0.742586  0.445632  1
  O  O331  1  0.707665  0.997194  0.423243  1
  O  O332  1  0.289630  0.997190  0.423242  1
  O  O333  1  0.749171  -0.000000  0.448139  1
  O  O334  1  0.710369  0.707577  0.567102  1
  O  O335  1  0.997242  0.707565  0.567104  1
  O  O336  1  0.711233  0.855545  0.577460  1
  O  O337  1  0.144356  0.855554  0.577462  1
  O  O338  1  0.591728  0.696536  0.584669  1
  O  O339  1  0.303382  0.895076  0.584671  1
  O  O340  1  0.591728  0.895074  0.584670  1
  O  O341  1  0.104850  0.696525  0.584673  1
  O  O342  1  0.899408  0.586133  0.547353  1
  O  O343  1  0.686779  0.586136  0.547350  1
  O  O344  1  0.876235  0.552500  0.573745  1
  O  O345  1  0.676286  0.552493  0.573743  1
  O  O346  1  0.826555  0.653058  0.562759  1
  O  O347  1  0.667416  0.538230  0.520069  1
  O  O348  1  0.870877  0.538226  0.520070  1
  O  O349  1  0.289609  0.292295  0.616896  1
  O  O350  1  0.002730  0.292302  0.616897  1
  O  O351  1  0.250839  0.250784  0.592000  1
  O  O352  1  0.000000  0.250785  0.592001  1
  O  O353  1  0.288746  0.144311  0.606540  1
  O  O354  1  0.855589  0.144308  0.606539  1
  O  O355  1  0.408248  0.303327  0.599328  1
  O  O356  1  0.696581  0.104785  0.599328  1
  O  O357  1  0.408240  0.104789  0.599328  1
  O  O358  1  0.895112  0.303335  0.599329  1
  O  O359  1  0.100579  0.413729  0.636647  1
  O  O360  1  0.313200  0.413733  0.636647  1
  O  O361  1  0.123733  0.447365  0.610254  1
  O  O362  1  0.323675  0.447363  0.610254  1
  O  O363  1  0.173426  0.346809  0.621239  1
  O  O364  1  0.332582  0.461629  0.663930  1
  O  O365  1  0.129117  0.461625  0.663931  1
  O  O366  1  0.997290  0.289562  0.760757  1
  O  O367  1  0.292369  0.289550  0.760755  1
  O  O368  1  0.289642  0.292293  0.710965  1
  O  O369  1  0.002754  0.292292  0.710967  1
  O  O370  1  -0.000000  0.250792  0.735862  1
  O  O371  1  0.250869  0.250784  0.735859  1
  O  O372  1  0.144394  0.288691  0.750401  1
  O  O373  1  0.288779  0.144324  0.721321  1
  O  O374  1  0.855642  0.144328  0.721323  1
  O  O375  1  0.104884  0.408205  0.743190  1
  O  O376  1  0.303428  0.408200  0.743188  1
  O  O377  1  0.408280  0.303329  0.728532  1
  O  O378  1  0.696607  0.104788  0.728534  1
  O  O379  1  0.408280  0.104790  0.728533  1
  O  O380  1  0.895150  0.303335  0.728533  1
  O  O381  1  0.686814  0.100520  0.780507  1
  O  O382  1  0.413793  0.313132  0.780509  1
  O  O383  1  0.899426  0.313145  0.780512  1
  O  O384  1  0.413780  0.100522  0.780507  1
  O  O385  1  0.100605  0.413729  0.691214  1
  O  O386  1  0.313223  0.413736  0.691213  1
  O  O387  1  0.676343  0.123665  0.754121  1
  O  O388  1  0.447438  0.323600  0.754117  1
  O  O389  1  0.876260  0.323605  0.754118  1
  O  O390  1  0.447424  0.123671  0.754121  1
  O  O391  1  0.123769  0.447365  0.717608  1
  O  O392  1  0.323708  0.447366  0.717606  1
  O  O393  1  0.826554  0.173342  0.765104  1
  O  O394  1  0.346876  0.173346  0.765101  1
  O  O395  1  0.173459  0.346808  0.706622  1
  O  O396  1  0.570669  0.429289  0.736660  1
  O  O397  1  0.570661  0.141213  0.736661  1
  O  O398  1  0.858712  0.429281  0.736661  1
  O  O399  1  0.742656  0.485227  0.738372  1
  O  O400  1  0.514727  0.257283  0.738370  1
  O  O401  1  0.742651  0.257274  0.738371  1
  O  O402  1  0.292379  0.002683  0.760757  1
  O  O403  1  0.710407  0.002694  0.760757  1
  O  O404  1  0.686781  0.100514  0.835075  1
  O  O405  1  0.413774  0.313134  0.835073  1
  O  O406  1  0.899396  0.313136  0.835077  1
  O  O407  1  0.413763  0.100510  0.835075  1
  O  O408  1  0.848216  0.424037  0.788942  1
  O  O409  1  0.575898  0.424042  0.788941  1
  O  O410  1  0.575896  0.151715  0.788942  1
  O  O411  1  0.848198  0.424029  0.826643  1
  O  O412  1  0.575877  0.424031  0.826642  1
  O  O413  1  0.575875  0.151710  0.826644  1
  O  O414  1  0.870872  0.332502  0.807794  1
  O  O415  1  0.461685  0.129052  0.807791  1
  O  O416  1  0.667420  0.129052  0.807791  1
  O  O417  1  0.461682  0.332499  0.807793  1
  O  O418  1  0.745221  0.254699  0.790592  1
  O  O419  1  0.745226  0.490381  0.790593  1
  O  O420  1  0.509554  0.254703  0.790593  1
  O  O421  1  0.745210  0.254706  0.824992  1
  O  O422  1  0.745213  0.490377  0.824992  1
  O  O423  1  0.509535  0.254707  0.824992  1
  O  O424  1  0.002719  0.710291  0.616897  1
  O  O425  1  0.707610  0.710302  0.616892  1
  O  O426  1  0.749144  -0.000000  0.591999  1
  O  O427  1  0.855583  0.711150  0.606541  1
  O  O428  1  0.895115  0.591646  0.599328  1
  O  O429  1  0.696573  0.591659  0.599327  1
  O  O430  1  0.313189  0.899339  0.636647  1
  O  O431  1  0.586193  0.686741  0.636646  1
  O  O432  1  0.100581  0.686723  0.636648  1
  O  O433  1  0.586203  0.899335  0.636644  1
  O  O434  1  0.323678  0.876195  0.610253  1
  O  O435  1  0.552557  0.676258  0.610255  1
  O  O436  1  0.123747  0.676258  0.610254  1
  O  O437  1  0.552563  0.876182  0.610256  1
  O  O438  1  0.173418  0.826490  0.621240  1
  O  O439  1  0.653101  0.826494  0.621234  1
  O  O440  1  0.257336  0.514633  0.594505  1
  O  O441  1  0.485268  0.742575  0.594502  1
  O  O442  1  0.257336  0.742585  0.594506  1
  O  O443  1  0.151784  0.575823  0.645080  1
  O  O444  1  0.424108  0.575841  0.645080  1
  O  O445  1  0.424114  0.848156  0.645080  1
  O  O446  1  0.151798  0.575826  0.682782  1
  O  O447  1  0.424116  0.575837  0.682781  1
  O  O448  1  0.424122  0.848160  0.682782  1
  O  O449  1  0.129123  0.667361  0.663932  1
  O  O450  1  0.538321  0.870826  0.663930  1
  O  O451  1  0.332569  0.870819  0.663931  1
  O  O452  1  0.538313  0.667369  0.663929  1
  O  O453  1  0.254772  0.745161  0.646730  1
  O  O454  1  0.254768  0.509477  0.646731  1
  O  O455  1  0.490436  0.745157  0.646732  1
  O  O456  1  0.254785  0.745157  0.681130  1
  O  O457  1  0.254783  0.509480  0.681130  1
  O  O458  1  0.490461  0.745165  0.681131  1
  O  O459  1  0.707606  0.997172  0.616893  1
  O  O460  1  0.289602  0.997188  0.616895  1
  O  O461  1  0.000000  0.749068  0.592001  1
  O  O462  1  0.250832  -0.000000  0.592001  1
  O  O463  1  0.749142  0.749069  0.591999  1
  O  O464  1  0.429331  0.570569  0.592795  1
  O  O465  1  0.429332  0.858646  0.592793  1
  O  O466  1  0.141284  0.570584  0.592796  1
  O  O467  1  0.710402  0.707572  0.760757  1
  O  O468  1  0.997272  0.707561  0.760758  1
  O  O469  1  0.002749  0.710293  0.710968  1
  O  O470  1  0.707653  0.710303  0.710965  1
  O  O471  1  0.749168  0.749073  0.735861  1
  O  O472  1  0.250857  0.000000  0.735861  1
  O  O473  1  -0.000000  0.749057  0.735862  1
  O  O474  1  0.711273  0.855568  0.750399  1
  O  O475  1  0.144396  0.855553  0.750399  1
  O  O476  1  0.855627  0.711151  0.721322  1
  O  O477  1  0.591754  0.696535  0.743189  1
  O  O478  1  0.303411  0.895073  0.743189  1
  O  O479  1  0.591768  0.895074  0.743190  1
  O  O480  1  0.104881  0.696524  0.743190  1
  O  O481  1  0.895149  0.591653  0.728535  1
  O  O482  1  0.696602  0.591657  0.728534  1
  O  O483  1  0.899420  0.586133  0.780511  1
  O  O484  1  0.686799  0.586137  0.780509  1
  O  O485  1  0.313206  0.899334  0.691213  1
  O  O486  1  0.586216  0.686734  0.691214  1
  O  O487  1  0.100606  0.686725  0.691215  1
  O  O488  1  0.586232  0.899347  0.691214  1
  O  O489  1  0.876269  0.552501  0.754119  1
  O  O490  1  0.676329  0.552508  0.754118  1
  O  O491  1  0.323702  0.876188  0.717607  1
  O  O492  1  0.552591  0.676274  0.717606  1
  O  O493  1  0.123779  0.676265  0.717607  1
  O  O494  1  0.552592  0.876189  0.717607  1
  O  O495  1  0.826575  0.653056  0.765103  1
  O  O496  1  0.173441  0.826488  0.706623  1
  O  O497  1  0.653157  0.826500  0.706621  1
  O  O498  1  0.429377  0.570585  0.735064  1
  O  O499  1  0.429383  0.858642  0.735067  1
  O  O500  1  0.141320  0.570578  0.735065  1
  O  O501  1  0.257371  0.514627  0.733355  1
  O  O502  1  0.485316  0.742588  0.733355  1
  O  O503  1  0.257376  0.742586  0.733355  1
  O  O504  1  0.707665  0.997194  0.710966  1
  O  O505  1  0.289630  0.997190  0.710965  1
  O  O506  1  0.749171  -0.000000  0.735862  1
  O  O507  1  0.899408  0.586133  0.835076  1
  O  O508  1  0.686779  0.586136  0.835073  1
  O  O509  1  0.667416  0.538230  0.807792  1
  O  O510  1  0.870877  0.538226  0.807793  1
  Si  Si511  1  0.154495  0.487522  0.104346  1
  Si  Si512  1  0.333114  0.487529  0.104346  1
  Si  Si513  1  0.154485  0.487520  0.072623  1
  Si  Si514  1  0.333100  0.487532  0.072622  1
  Si  Si515  1  0.667261  0.155207  0.163673  1
  Si  Si516  1  0.488057  0.332683  0.163669  1
  Si  Si517  1  0.844721  0.332683  0.163672  1
  Si  Si518  1  0.064415  0.307725  0.172768  1
  Si  Si519  1  0.243405  0.307718  0.172765  1
  Si  Si520  1  0.307807  0.243327  0.148058  1
  Si  Si521  1  0.756625  0.064333  0.148062  1
  Si  Si522  1  0.307799  0.064329  0.148060  1
  Si  Si523  1  0.935624  0.243328  0.148061  1
  Si  Si524  1  0.724452  0.097062  0.190193  1
  Si  Si525  1  0.372715  0.275469  0.190187  1
  Si  Si526  1  0.902847  0.275476  0.190190  1
  Si  Si527  1  0.372701  0.097064  0.190191  1
  Si  Si528  1  0.097171  0.372645  0.130643  1
  Si  Si529  1  0.275583  0.372647  0.130641  1
  Si  Si530  1  0.332780  0.487985  0.157161  1
  Si  Si531  1  0.155318  0.487984  0.157162  1
  Si  Si532  1  0.488049  0.155211  0.163674  1
  Si  Si533  1  0.064381  0.307727  0.291924  1
  Si  Si534  1  0.243377  0.307721  0.291924  1
  Si  Si535  1  0.724426  0.097084  0.274503  1
  Si  Si536  1  0.372682  0.275484  0.274500  1
  Si  Si537  1  0.902835  0.275489  0.274502  1
  Si  Si538  1  0.372675  0.097074  0.274502  1
  Si  Si539  1  0.845510  0.333026  0.216485  1
  Si  Si540  1  0.487579  0.154409  0.216482  1
  Si  Si541  1  0.666905  0.154405  0.216482  1
  Si  Si542  1  0.487585  0.333026  0.216484  1
  Si  Si543  1  0.845502  0.333024  0.248209  1
  Si  Si544  1  0.487572  0.154425  0.248208  1
  Si  Si545  1  0.666892  0.154420  0.248207  1
  Si  Si546  1  0.487573  0.333026  0.248208  1
  Si  Si547  1  0.488014  0.155213  0.301020  1
  Si  Si548  1  0.844680  0.332676  0.301021  1
  Si  Si549  1  0.488026  0.332679  0.301020  1
  Si  Si550  1  0.667219  0.155202  0.301020  1
  Si  Si551  1  0.154485  0.666831  0.072623  1
  Si  Si552  1  0.512420  0.845450  0.072622  1
  Si  Si553  1  0.333097  0.845447  0.072623  1
  Si  Si554  1  0.512414  0.666844  0.072622  1
  Si  Si555  1  0.154504  0.666832  0.104347  1
  Si  Si556  1  0.512425  0.845446  0.104346  1
  Si  Si557  1  0.333103  0.845439  0.104346  1
  Si  Si558  1  0.512420  0.666844  0.104346  1
  Si  Si559  1  0.844717  0.511879  0.163672  1
  Si  Si560  1  0.667258  0.511890  0.163671  1
  Si  Si561  1  0.692232  0.756547  0.172768  1
  Si  Si562  1  0.243404  0.935535  0.172770  1
  Si  Si563  1  0.692231  0.935543  0.172771  1
  Si  Si564  1  0.064413  0.756535  0.172769  1
  Si  Si565  1  0.935611  0.692123  0.148061  1
  Si  Si566  1  0.756614  0.692126  0.148060  1
  Si  Si567  1  0.902859  0.627215  0.190191  1
  Si  Si568  1  0.724449  0.627217  0.190189  1
  Si  Si569  1  0.275566  0.902776  0.130642  1
  Si  Si570  1  0.627313  0.724381  0.130641  1
  Si  Si571  1  0.097165  0.724373  0.130642  1
  Si  Si572  1  0.627315  0.902784  0.130642  1
  Si  Si573  1  0.511985  0.844648  0.157161  1
  Si  Si574  1  0.155317  0.667178  0.157161  1
  Si  Si575  1  0.511969  0.667187  0.157161  1
  Si  Si576  1  0.332776  0.844649  0.157161  1
  Si  Si577  1  0.844683  0.511875  0.301021  1
  Si  Si578  1  0.667224  0.511885  0.301021  1
  Si  Si579  1  0.845506  0.512342  0.248209  1
  Si  Si580  1  0.666885  0.512341  0.248208  1
  Si  Si581  1  0.845511  0.512342  0.216485  1
  Si  Si582  1  0.666910  0.512352  0.216484  1
  Si  Si583  1  0.724423  0.627216  0.274501  1
  Si  Si584  1  0.902832  0.627206  0.274503  1
  Si  Si585  1  0.692212  0.756544  0.291923  1
  Si  Si586  1  0.243365  0.935533  0.291924  1
  Si  Si587  1  0.692212  0.935535  0.291923  1
  Si  Si588  1  0.064384  0.756532  0.291924  1
  Si  Si589  1  0.155279  0.487985  0.307530  1
  Si  Si590  1  0.332735  0.487971  0.307529  1
  Si  Si591  1  0.154495  0.487522  0.392070  1
  Si  Si592  1  0.333114  0.487529  0.392069  1
  Si  Si593  1  0.154485  0.487520  0.360346  1
  Si  Si594  1  0.307763  0.243314  0.316631  1
  Si  Si595  1  0.756585  0.064320  0.316632  1
  Si  Si596  1  0.307760  0.064322  0.316632  1
  Si  Si597  1  0.935578  0.243324  0.316633  1
  Si  Si598  1  0.097144  0.372650  0.334050  1
  Si  Si599  1  0.275547  0.372643  0.334049  1
  Si  Si600  1  0.333100  0.487532  0.360345  1
  Si  Si601  1  0.667261  0.155207  0.451397  1
  Si  Si602  1  0.488057  0.332683  0.451393  1
  Si  Si603  1  0.844721  0.332683  0.451395  1
  Si  Si604  1  0.064415  0.307725  0.460491  1
  Si  Si605  1  0.243405  0.307718  0.460488  1
  Si  Si606  1  0.307807  0.243327  0.435782  1
  Si  Si607  1  0.756625  0.064333  0.435785  1
  Si  Si608  1  0.307799  0.064329  0.435783  1
  Si  Si609  1  0.935624  0.243328  0.435784  1
  Si  Si610  1  0.724452  0.097062  0.477916  1
  Si  Si611  1  0.372715  0.275469  0.477910  1
  Si  Si612  1  0.902847  0.275476  0.477913  1
  Si  Si613  1  0.372701  0.097064  0.477914  1
  Si  Si614  1  0.097171  0.372645  0.418366  1
  Si  Si615  1  0.275583  0.372647  0.418364  1
  Si  Si616  1  0.332780  0.487985  0.444884  1
  Si  Si617  1  0.155318  0.487984  0.444885  1
  Si  Si618  1  0.488049  0.155211  0.451397  1
  Si  Si619  1  0.064381  0.307727  0.579647  1
  Si  Si620  1  0.243377  0.307721  0.579647  1
  Si  Si621  1  0.724426  0.097084  0.562226  1
  Si  Si622  1  0.372682  0.275484  0.562223  1
  Si  Si623  1  0.902835  0.275489  0.562225  1
  Si  Si624  1  0.372675  0.097074  0.562225  1
  Si  Si625  1  0.845510  0.333026  0.504208  1
  Si  Si626  1  0.487579  0.154409  0.504206  1
  Si  Si627  1  0.666905  0.154405  0.504205  1
  Si  Si628  1  0.487585  0.333026  0.504207  1
  Si  Si629  1  0.845502  0.333024  0.535933  1
  Si  Si630  1  0.487572  0.154425  0.535931  1
  Si  Si631  1  0.666892  0.154420  0.535930  1
  Si  Si632  1  0.487573  0.333026  0.535931  1
  Si  Si633  1  0.488014  0.155213  0.588743  1
  Si  Si634  1  0.844680  0.332676  0.588744  1
  Si  Si635  1  0.488026  0.332679  0.588743  1
  Si  Si636  1  0.667219  0.155202  0.588743  1
  Si  Si637  1  0.935575  0.692120  0.316633  1
  Si  Si638  1  0.756578  0.692130  0.316631  1
  Si  Si639  1  0.275543  0.902779  0.334050  1
  Si  Si640  1  0.627280  0.724384  0.334048  1
  Si  Si641  1  0.097143  0.724368  0.334050  1
  Si  Si642  1  0.627291  0.902783  0.334049  1
  Si  Si643  1  0.154485  0.666831  0.360346  1
  Si  Si644  1  0.512420  0.845450  0.360345  1
  Si  Si645  1  0.333097  0.845447  0.360346  1
  Si  Si646  1  0.512414  0.666844  0.360345  1
  Si  Si647  1  0.154504  0.666832  0.392070  1
  Si  Si648  1  0.512425  0.845446  0.392069  1
  Si  Si649  1  0.333103  0.845439  0.392069  1
  Si  Si650  1  0.512420  0.666844  0.392069  1
  Si  Si651  1  0.511944  0.844650  0.307530  1
  Si  Si652  1  0.155285  0.667177  0.307531  1
  Si  Si653  1  0.511943  0.667174  0.307530  1
  Si  Si654  1  0.332732  0.844642  0.307530  1
  Si  Si655  1  0.844717  0.511879  0.451395  1
  Si  Si656  1  0.667258  0.511890  0.451395  1
  Si  Si657  1  0.692232  0.756547  0.460492  1
  Si  Si658  1  0.243404  0.935535  0.460493  1
  Si  Si659  1  0.692231  0.935543  0.460494  1
  Si  Si660  1  0.064413  0.756535  0.460492  1
  Si  Si661  1  0.935611  0.692123  0.435784  1
  Si  Si662  1  0.756614  0.692126  0.435783  1
  Si  Si663  1  0.902859  0.627215  0.477914  1
  Si  Si664  1  0.724449  0.627217  0.477913  1
  Si  Si665  1  0.275566  0.902776  0.418365  1
  Si  Si666  1  0.627313  0.724381  0.418364  1
  Si  Si667  1  0.097165  0.724373  0.418365  1
  Si  Si668  1  0.627315  0.902784  0.418365  1
  Si  Si669  1  0.511985  0.844648  0.444884  1
  Si  Si670  1  0.155317  0.667178  0.444885  1
  Si  Si671  1  0.511969  0.667187  0.444884  1
  Si  Si672  1  0.332776  0.844649  0.444884  1
  Si  Si673  1  0.844683  0.511875  0.588744  1
  Si  Si674  1  0.667224  0.511885  0.588744  1
  Si  Si675  1  0.845506  0.512342  0.535932  1
  Si  Si676  1  0.666885  0.512341  0.535931  1
  Si  Si677  1  0.845511  0.512342  0.504208  1
  Si  Si678  1  0.666910  0.512352  0.504207  1
  Si  Si679  1  0.724423  0.627216  0.562224  1
  Si  Si680  1  0.902832  0.627206  0.562226  1
  Si  Si681  1  0.692212  0.756544  0.579646  1
  Si  Si682  1  0.243365  0.935533  0.579647  1
  Si  Si683  1  0.692212  0.935535  0.579646  1
  Si  Si684  1  0.064384  0.756532  0.579647  1
  Si  Si685  1  0.155279  0.487985  0.595254  1
  Si  Si686  1  0.332735  0.487971  0.595252  1
  Si  Si687  1  0.154495  0.487522  0.679793  1
  Si  Si688  1  0.333114  0.487529  0.679792  1
  Si  Si689  1  0.154485  0.487520  0.648069  1
  Si  Si690  1  0.307763  0.243314  0.604355  1
  Si  Si691  1  0.756585  0.064320  0.604355  1
  Si  Si692  1  0.307760  0.064322  0.604355  1
  Si  Si693  1  0.935578  0.243324  0.604356  1
  Si  Si694  1  0.097144  0.372650  0.621773  1
  Si  Si695  1  0.275547  0.372643  0.621772  1
  Si  Si696  1  0.333100  0.487532  0.648068  1
  Si  Si697  1  0.667261  0.155207  0.739120  1
  Si  Si698  1  0.488057  0.332683  0.739116  1
  Si  Si699  1  0.844721  0.332683  0.739118  1
  Si  Si700  1  0.064415  0.307725  0.748214  1
  Si  Si701  1  0.243405  0.307718  0.748212  1
  Si  Si702  1  0.307807  0.243327  0.723505  1
  Si  Si703  1  0.756625  0.064333  0.723508  1
  Si  Si704  1  0.307799  0.064329  0.723506  1
  Si  Si705  1  0.935624  0.243328  0.723508  1
  Si  Si706  1  0.724452  0.097062  0.765639  1
  Si  Si707  1  0.372715  0.275469  0.765633  1
  Si  Si708  1  0.902847  0.275476  0.765636  1
  Si  Si709  1  0.372701  0.097064  0.765637  1
  Si  Si710  1  0.097171  0.372645  0.706089  1
  Si  Si711  1  0.275583  0.372647  0.706087  1
  Si  Si712  1  0.332780  0.487985  0.732607  1
  Si  Si713  1  0.155318  0.487984  0.732608  1
  Si  Si714  1  0.488049  0.155211  0.739120  1
  Si  Si715  1  0.845510  0.333026  0.791932  1
  Si  Si716  1  0.487579  0.154409  0.791929  1
  Si  Si717  1  0.666905  0.154405  0.791928  1
  Si  Si718  1  0.487585  0.333026  0.791930  1
  Si  Si719  1  0.845502  0.333024  0.823656  1
  Si  Si720  1  0.487572  0.154425  0.823655  1
  Si  Si721  1  0.666892  0.154420  0.823653  1
  Si  Si722  1  0.487573  0.333026  0.823655  1
  Si  Si723  1  0.935575  0.692120  0.604356  1
  Si  Si724  1  0.756578  0.692130  0.604354  1
  Si  Si725  1  0.275543  0.902779  0.621773  1
  Si  Si726  1  0.627280  0.724384  0.621772  1
  Si  Si727  1  0.097143  0.724368  0.621773  1
  Si  Si728  1  0.627291  0.902783  0.621772  1
  Si  Si729  1  0.154485  0.666831  0.648069  1
  Si  Si730  1  0.512420  0.845450  0.648068  1
  Si  Si731  1  0.333097  0.845447  0.648069  1
  Si  Si732  1  0.512414  0.666844  0.648069  1
  Si  Si733  1  0.154504  0.666832  0.679793  1
  Si  Si734  1  0.512425  0.845446  0.679792  1
  Si  Si735  1  0.333103  0.845439  0.679792  1
  Si  Si736  1  0.512420  0.666844  0.679792  1
  Si  Si737  1  0.511944  0.844650  0.595253  1
  Si  Si738  1  0.155285  0.667177  0.595254  1
  Si  Si739  1  0.511943  0.667174  0.595253  1
  Si  Si740  1  0.332732  0.844642  0.595253  1
  Si  Si741  1  0.844717  0.511879  0.739119  1
  Si  Si742  1  0.667258  0.511890  0.739118  1
  Si  Si743  1  0.692232  0.756547  0.748215  1
  Si  Si744  1  0.243404  0.935535  0.748216  1
  Si  Si745  1  0.692231  0.935543  0.748217  1
  Si  Si746  1  0.064413  0.756535  0.748215  1
  Si  Si747  1  0.935611  0.692123  0.723507  1
  Si  Si748  1  0.756614  0.692126  0.723506  1
  Si  Si749  1  0.902859  0.627215  0.765637  1
  Si  Si750  1  0.724449  0.627217  0.765636  1
  Si  Si751  1  0.275566  0.902776  0.706088  1
  Si  Si752  1  0.627313  0.724381  0.706087  1
  Si  Si753  1  0.097165  0.724373  0.706089  1
  Si  Si754  1  0.627315  0.902784  0.706089  1
  Si  Si755  1  0.511985  0.844648  0.732607  1
  Si  Si756  1  0.155317  0.667178  0.732608  1
  Si  Si757  1  0.511969  0.667187  0.732607  1
  Si  Si758  1  0.332776  0.844649  0.732607  1
  Si  Si759  1  0.845506  0.512342  0.823655  1
  Si  Si760  1  0.666885  0.512341  0.823654  1
  Si  Si761  1  0.845511  0.512342  0.791931  1
  Si  Si762  1  0.666910  0.512352  0.791930  1
  H  H763  1  0.100579  0.413729  0.051866  1
  H  H764  1  0.313200  0.413733  0.051865  1
  H  H765  1  0.313189  0.899339  0.051866  1
  H  H766  1  0.586193  0.686741  0.051864  1
  H  H767  1  0.100581  0.686723  0.051866  1
  H  H768  1  0.586203  0.899335  0.051863  1
  H  H769  1  0.686781  0.100514  0.844410  1
  H  H770  1  0.413774  0.313134  0.844408  1
  H  H771  1  0.899396  0.313136  0.844412  1
  H  H772  1  0.413763  0.100510  0.844410  1
  H  H773  1  0.899408  0.586133  0.844412  1
  H  H774  1  0.686779  0.586136  0.844409  1
