# generated using pymatgen
data_Si28H2O57
_symmetry_space_group_name_H-M   'P 1'
_cell_length_a   8.41979979
_cell_length_b   33.60885434
_cell_length_c   75.32014987
_cell_angle_alpha   59.66755629
_cell_angle_beta   90.00000000
_cell_angle_gamma   90.00000000
_symmetry_Int_Tables_number   1
_chemical_formula_structural   Si28H2O57
_chemical_formula_sum   'Si224 H16 O456'
_cell_volume   18396.3921214
_cell_formula_units_Z   8
loop_
 _symmetry_equiv_pos_site_id
 _symmetry_equiv_pos_as_xyz
  1  'x, y, z'
loop_
 _atom_site_type_symbol
 _atom_site_label
 _atom_site_symmetry_multiplicity
 _atom_site_fract_x
 _atom_site_fract_y
 _atom_site_fract_z
 _atom_site_occupancy
  O  O1  1  -0.000000  0.861582  0.242146  1
  O  O2  1  0.742235  0.997213  0.200535  1
  O  O3  1  0.257897  0.997213  0.200534  1
  O  O4  1  0.500067  0.947049  0.203241  1
  O  O5  1  0.786274  0.245810  0.124811  1
  O  O6  1  0.213858  0.245810  0.124811  1
  O  O7  1  0.737878  0.248586  0.176400  1
  O  O8  1  0.262256  0.248586  0.176400  1
  O  O9  1  0.743326  0.906271  0.226318  1
  O  O10  1  0.256806  0.906271  0.226318  1
  O  O11  1  0.764436  0.746714  0.124378  1
  O  O12  1  0.235698  0.746716  0.124379  1
  O  O13  1  0.785463  0.826512  0.231072  1
  O  O14  1  0.214673  0.826513  0.231071  1
  O  O15  1  0.731418  0.831863  0.196458  1
  O  O16  1  0.268713  0.831862  0.196457  1
  O  O17  1  -0.000000  0.804775  0.213945  1
  O  O18  1  0.764557  0.941672  0.188082  1
  O  O19  1  0.235577  0.941671  0.188083  1
  O  O20  1  -0.000000  0.953660  0.164851  1
  O  O21  1  0.759312  0.834552  0.162607  1
  O  O22  1  0.240828  0.834552  0.162605  1
  O  O23  1  0.500064  0.859704  0.171539  1
  O  O24  1  -0.000000  0.800101  0.154631  1
  O  O25  1  0.500066  0.786565  0.120696  1
  O  O26  1  0.741925  0.832709  0.099543  1
  O  O27  1  0.258211  0.832709  0.099542  1
  O  O28  1  0.783556  0.747813  0.177341  1
  O  O29  1  0.216576  0.747812  0.177342  1
  O  O30  1  0.732710  0.799485  0.138854  1
  O  O31  1  0.267424  0.799482  0.138854  1
  O  O32  1  0.747693  0.910320  0.164414  1
  O  O33  1  0.252438  0.910320  0.164413  1
  O  O34  1  0.760051  0.332434  0.098305  1
  O  O35  1  0.760053  0.667515  0.090098  1
  O  O36  1  0.240082  0.667516  0.090098  1
  O  O37  1  0.240083  0.332434  0.098305  1
  O  O38  1  0.736326  0.593520  0.126257  1
  O  O39  1  0.263806  0.593522  0.126257  1
  O  O40  1  0.500065  0.647253  0.110099  1
  O  O41  1  -0.000000  0.551900  0.141465  1
  O  O42  1  0.733740  0.301644  0.137670  1
  O  O43  1  0.266394  0.301644  0.137670  1
  O  O44  1  0.500067  0.299580  0.159829  1
  O  O45  1  0.769965  0.324764  0.231081  1
  O  O46  1  0.230170  0.324765  0.231081  1
  O  O47  1  0.500067  0.311228  0.219837  1
  O  O48  1  0.764480  0.410214  0.164955  1
  O  O49  1  0.235654  0.410213  0.164955  1
  O  O50  1  0.500066  0.451196  0.162532  1
  O  O51  1  0.000000  0.353999  0.177499  1
  O  O52  1  -0.000000  0.300861  0.122071  1
  O  O53  1  0.715387  0.251888  0.227897  1
  O  O54  1  0.284746  0.251888  0.227897  1
  O  O55  1  0.736731  0.331072  0.196111  1
  O  O56  1  0.263401  0.331070  0.196112  1
  O  O57  1  0.709626  0.443555  0.187816  1
  O  O58  1  0.290506  0.443555  0.187816  1
  O  O59  1  0.760561  0.334832  0.162125  1
  O  O60  1  0.239572  0.334832  0.162125  1
  O  O61  1  0.750435  0.501746  0.150610  1
  O  O62  1  0.249698  0.501747  0.150609  1
  O  O63  1  0.757630  0.752684  0.228360  1
  O  O64  1  0.242505  0.752684  0.228360  1
  O  O65  1  0.737559  0.672920  0.122240  1
  O  O66  1  0.262576  0.672926  0.122238  1
  O  O67  1  0.765950  0.668408  0.156759  1
  O  O68  1  0.234183  0.668405  0.156760  1
  O  O69  1  -0.000000  0.692753  0.132372  1
  O  O70  1  0.790881  0.555166  0.164477  1
  O  O71  1  0.209250  0.555166  0.164476  1
  O  O72  1  -0.000000  0.547781  0.189781  1
  O  O73  1  0.739828  0.662052  0.191252  1
  O  O74  1  0.260302  0.662052  0.191252  1
  O  O75  1  0.500069  0.645144  0.174990  1
  O  O76  1  -0.000000  0.691684  0.197979  1
  O  O77  1  0.500067  0.711286  0.230855  1
  O  O78  1  -0.000000  0.352399  0.243692  1
  O  O79  1  0.749858  0.497017  0.201658  1
  O  O80  1  0.250276  0.497017  0.201658  1
  O  O81  1  0.500067  0.446854  0.210755  1
  O  O82  1  0.734077  0.667716  0.254695  1
  O  O83  1  0.266058  0.667716  0.254695  1
  O  O84  1  0.763682  0.405420  0.226117  1
  O  O85  1  0.236452  0.405421  0.226116  1
  O  O86  1  0.747385  0.695435  0.215886  1
  O  O87  1  0.252745  0.695435  0.215886  1
  O  O88  1  0.734283  0.588408  0.187305  1
  O  O89  1  0.265854  0.588407  0.187306  1
  O  O90  1  -0.000000  0.209206  0.190906  1
  O  O91  1  0.500066  0.197193  0.230765  1
  O  O92  1  0.743071  0.001316  0.151131  1
  O  O93  1  0.257063  0.001315  0.151131  1
  O  O94  1  0.783540  0.171484  0.121390  1
  O  O95  1  0.216593  0.171484  0.121390  1
  O  O96  1  -0.000000  0.185318  0.140663  1
  O  O97  1  0.761499  0.162779  0.190431  1
  O  O98  1  0.238633  0.162780  0.190430  1
  O  O99  1  0.743085  0.166309  0.254276  1
  O  O100  1  0.257047  0.166309  0.254276  1
  O  O101  1  0.766279  0.196168  0.214976  1
  O  O102  1  0.233854  0.196167  0.214976  1
  O  O103  1  0.723124  0.166646  0.156347  1
  O  O104  1  0.277010  0.166646  0.156348  1
  O  O105  1  0.741925  0.167240  0.088861  1
  O  O106  1  0.258208  0.167240  0.088861  1
  O  O107  1  0.762202  0.057160  0.163576  1
  O  O108  1  0.237931  0.057159  0.163576  1
  O  O109  1  -0.000000  0.044077  0.186595  1
  O  O110  1  0.500067  0.135905  0.182617  1
  O  O111  1  0.750839  0.087577  0.187852  1
  O  O112  1  0.249295  0.087578  0.187851  1
  O  O113  1  -0.000000  0.137910  0.109578  1
  O  O114  1  0.500066  0.050948  0.148274  1
  O  O115  1  0.743885  0.092327  0.125318  1
  O  O116  1  0.256248  0.092327  0.125318  1
  O  O117  1  -0.000000  0.861582  0.571032  1
  O  O118  1  0.742235  0.997213  0.529421  1
  O  O119  1  0.257897  0.997213  0.529421  1
  O  O120  1  0.500067  0.947049  0.532127  1
  O  O121  1  -0.000000  0.790743  0.326383  1
  O  O122  1  0.786274  0.245810  0.453698  1
  O  O123  1  0.786275  0.754139  0.392478  1
  O  O124  1  0.213858  0.754139  0.392478  1
  O  O125  1  0.213858  0.245810  0.453698  1
  O  O126  1  0.783540  0.828465  0.395899  1
  O  O127  1  0.216592  0.828466  0.395899  1
  O  O128  1  0.723124  0.833304  0.360942  1
  O  O129  1  0.277008  0.833303  0.360942  1
  O  O130  1  -0.000000  0.814631  0.376627  1
  O  O131  1  0.762203  0.942789  0.353714  1
  O  O132  1  0.237931  0.942790  0.353713  1
  O  O133  1  -0.000000  0.955872  0.330694  1
  O  O134  1  0.761500  0.837170  0.326859  1
  O  O135  1  0.238633  0.837169  0.326859  1
  O  O136  1  0.500067  0.864044  0.334672  1
  O  O137  1  0.500066  0.802756  0.286524  1
  O  O138  1  0.750838  0.912372  0.329438  1
  O  O139  1  0.249295  0.912372  0.329438  1
  O  O140  1  0.737878  0.248586  0.505286  1
  O  O141  1  0.737876  0.751363  0.340889  1
  O  O142  1  0.262256  0.751363  0.340890  1
  O  O143  1  0.262256  0.248586  0.505286  1
  O  O144  1  0.743084  0.833640  0.263013  1
  O  O145  1  0.257046  0.833640  0.263014  1
  O  O146  1  0.743326  0.906271  0.555204  1
  O  O147  1  0.256806  0.906271  0.555204  1
  O  O148  1  0.766280  0.803783  0.302313  1
  O  O149  1  0.233855  0.803782  0.302313  1
  O  O150  1  0.764437  0.253231  0.392911  1
  O  O151  1  0.764436  0.746714  0.453264  1
  O  O152  1  0.235698  0.746716  0.453265  1
  O  O153  1  0.235697  0.253231  0.392911  1
  O  O154  1  0.785463  0.826512  0.559958  1
  O  O155  1  0.214673  0.826513  0.559958  1
  O  O156  1  0.731418  0.831863  0.525344  1
  O  O157  1  0.268713  0.831862  0.525344  1
  O  O158  1  -0.000000  0.804775  0.542831  1
  O  O159  1  0.764557  0.941672  0.516969  1
  O  O160  1  0.235577  0.941671  0.516969  1
  O  O161  1  0.000000  0.953660  0.493737  1
  O  O162  1  0.759312  0.834552  0.491493  1
  O  O163  1  0.240828  0.834552  0.491492  1
  O  O164  1  0.500064  0.859704  0.500425  1
  O  O165  1  -0.000000  0.800101  0.483518  1
  O  O166  1  0.500066  0.786565  0.449583  1
  O  O167  1  -0.000000  0.862038  0.407712  1
  O  O168  1  0.500067  0.949001  0.369015  1
  O  O169  1  0.741925  0.832709  0.428429  1
  O  O170  1  0.258211  0.832709  0.428429  1
  O  O171  1  0.743885  0.907622  0.391971  1
  O  O172  1  0.256247  0.907622  0.391971  1
  O  O173  1  0.783559  0.252137  0.339947  1
  O  O174  1  0.783556  0.747813  0.506228  1
  O  O175  1  0.216576  0.747812  0.506229  1
  O  O176  1  0.216575  0.252137  0.339947  1
  O  O177  1  0.732710  0.799485  0.467741  1
  O  O178  1  0.267424  0.799482  0.467741  1
  O  O179  1  0.747693  0.910320  0.493300  1
  O  O180  1  0.252438  0.910320  0.493300  1
  O  O181  1  0.760051  0.332434  0.427192  1
  O  O182  1  0.760053  0.667515  0.418984  1
  O  O183  1  0.240082  0.667516  0.418985  1
  O  O184  1  0.240083  0.332434  0.427191  1
  O  O185  1  0.736325  0.406427  0.391032  1
  O  O186  1  0.736326  0.593520  0.455143  1
  O  O187  1  0.263806  0.593522  0.455144  1
  O  O188  1  0.263808  0.406427  0.391032  1
  O  O189  1  0.500066  0.352694  0.407190  1
  O  O190  1  0.500065  0.647253  0.438985  1
  O  O191  1  -0.000000  0.448048  0.375825  1
  O  O192  1  -0.000000  0.551900  0.470351  1
  O  O193  1  0.733740  0.301644  0.466557  1
  O  O194  1  0.733741  0.698306  0.379618  1
  O  O195  1  0.266396  0.698305  0.379619  1
  O  O196  1  0.266394  0.301644  0.466557  1
  O  O197  1  0.500067  0.299580  0.488715  1
  O  O198  1  0.500067  0.700369  0.357460  1
  O  O199  1  0.769964  0.675184  0.286209  1
  O  O200  1  0.769965  0.324764  0.559967  1
  O  O201  1  0.230170  0.324765  0.559967  1
  O  O202  1  0.230168  0.675184  0.286209  1
  O  O203  1  0.500066  0.688721  0.297452  1
  O  O204  1  0.500067  0.311228  0.548724  1
  O  O205  1  0.764480  0.589735  0.352335  1
  O  O206  1  0.764480  0.410214  0.493841  1
  O  O207  1  0.235654  0.410213  0.493841  1
  O  O208  1  0.235655  0.589735  0.352335  1
  O  O209  1  0.500066  0.548752  0.354758  1
  O  O210  1  0.500066  0.451196  0.491419  1
  O  O211  1  -0.000000  0.645949  0.339790  1
  O  O212  1  -0.000000  0.353999  0.506385  1
  O  O213  1  -0.000000  0.300861  0.450958  1
  O  O214  1  -0.000000  0.699089  0.395218  1
  O  O215  1  0.715388  0.748061  0.289393  1
  O  O216  1  0.715387  0.251888  0.556783  1
  O  O217  1  0.284746  0.251888  0.556783  1
  O  O218  1  0.284746  0.748061  0.289393  1
  O  O219  1  0.736732  0.668878  0.321178  1
  O  O220  1  0.736731  0.331072  0.524998  1
  O  O221  1  0.263401  0.331070  0.524998  1
  O  O222  1  0.263402  0.668878  0.321178  1
  O  O223  1  0.709626  0.556394  0.329473  1
  O  O224  1  0.709626  0.443555  0.516703  1
  O  O225  1  0.290506  0.443555  0.516703  1
  O  O226  1  0.290507  0.556394  0.329473  1
  O  O227  1  0.760562  0.665117  0.355164  1
  O  O228  1  0.760561  0.334832  0.491012  1
  O  O229  1  0.239572  0.334832  0.491012  1
  O  O230  1  0.239571  0.665117  0.355164  1
  O  O231  1  0.750436  0.498202  0.366680  1
  O  O232  1  0.750435  0.501746  0.479496  1
  O  O233  1  0.249698  0.501747  0.479496  1
  O  O234  1  0.249698  0.498202  0.366680  1
  O  O235  1  0.757630  0.752684  0.557246  1
  O  O236  1  0.757630  0.247264  0.288930  1
  O  O237  1  0.242504  0.247264  0.288930  1
  O  O238  1  0.242505  0.752684  0.557246  1
  O  O239  1  0.737555  0.327023  0.395051  1
  O  O240  1  0.737559  0.672920  0.451126  1
  O  O241  1  0.262576  0.672926  0.451125  1
  O  O242  1  0.262576  0.327022  0.395052  1
  O  O243  1  0.765949  0.331544  0.360530  1
  O  O244  1  0.765950  0.668408  0.485646  1
  O  O245  1  0.234183  0.668405  0.485646  1
  O  O246  1  0.234184  0.331544  0.360530  1
  O  O247  1  0.000000  0.307196  0.384917  1
  O  O248  1  -0.000000  0.692753  0.461258  1
  O  O249  1  0.790883  0.444783  0.352813  1
  O  O250  1  0.790881  0.555166  0.493363  1
  O  O251  1  0.209250  0.555166  0.493363  1
  O  O252  1  0.209251  0.444783  0.352813  1
  O  O253  1  -0.000000  0.452168  0.327508  1
  O  O254  1  0.000000  0.547781  0.518668  1
  O  O255  1  0.739829  0.337898  0.326037  1
  O  O256  1  0.739828  0.662052  0.520139  1
  O  O257  1  0.260302  0.662052  0.520139  1
  O  O258  1  0.260304  0.337897  0.326037  1
  O  O259  1  0.500067  0.354806  0.342299  1
  O  O260  1  0.500069  0.645144  0.503876  1
  O  O261  1  -0.000000  0.308265  0.319311  1
  O  O262  1  -0.000000  0.691684  0.526865  1
  O  O263  1  0.500067  0.711286  0.559742  1
  O  O264  1  0.500067  0.288663  0.286434  1
  O  O265  1  -0.000000  0.647550  0.273597  1
  O  O266  1  -0.000000  0.352399  0.572579  1
  O  O267  1  0.749858  0.502932  0.315631  1
  O  O268  1  0.749858  0.497017  0.530545  1
  O  O269  1  0.250276  0.497017  0.530545  1
  O  O270  1  0.250275  0.502932  0.315631  1
  O  O271  1  0.500066  0.553096  0.306534  1
  O  O272  1  0.500067  0.446854  0.539641  1
  O  O273  1  0.734077  0.667716  0.583581  1
  O  O274  1  0.734078  0.332233  0.262595  1
  O  O275  1  0.266057  0.332233  0.262594  1
  O  O276  1  0.266058  0.667716  0.583581  1
  O  O277  1  0.763683  0.594528  0.291173  1
  O  O278  1  0.763682  0.405420  0.555003  1
  O  O279  1  0.236452  0.405421  0.555003  1
  O  O280  1  0.236450  0.594528  0.291173  1
  O  O281  1  0.747385  0.695435  0.544773  1
  O  O282  1  0.747386  0.304514  0.301403  1
  O  O283  1  0.252747  0.304514  0.301403  1
  O  O284  1  0.252745  0.695435  0.544773  1
  O  O285  1  0.734281  0.411542  0.329984  1
  O  O286  1  0.734283  0.588408  0.516192  1
  O  O287  1  0.265854  0.588407  0.516192  1
  O  O288  1  0.265852  0.411542  0.329984  1
  O  O289  1  0.743071  0.998633  0.366159  1
  O  O290  1  0.257062  0.998634  0.366158  1
  O  O291  1  0.500067  0.213383  0.396594  1
  O  O292  1  -0.000000  0.209206  0.519793  1
  O  O293  1  0.500066  0.197193  0.559652  1
  O  O294  1  -0.000000  0.199847  0.362658  1
  O  O295  1  0.732708  0.200467  0.378436  1
  O  O296  1  0.267426  0.200467  0.378436  1
  O  O297  1  -0.000000  0.195174  0.303345  1
  O  O298  1  0.743071  0.001316  0.480017  1
  O  O299  1  0.257063  0.001315  0.480018  1
  O  O300  1  0.783540  0.171484  0.450276  1
  O  O301  1  0.216593  0.171484  0.450277  1
  O  O302  1  -0.000000  0.185318  0.469550  1
  O  O303  1  0.761499  0.162779  0.519317  1
  O  O304  1  0.238633  0.162780  0.519317  1
  O  O305  1  0.743085  0.166309  0.583162  1
  O  O306  1  0.257047  0.166309  0.583162  1
  O  O307  1  0.766279  0.196168  0.543863  1
  O  O308  1  0.233854  0.196167  0.543863  1
  O  O309  1  0.785463  0.173435  0.286219  1
  O  O310  1  0.214671  0.173436  0.286218  1
  O  O311  1  0.731421  0.168087  0.320832  1
  O  O312  1  0.268712  0.168087  0.320832  1
  O  O313  1  0.759303  0.165397  0.354684  1
  O  O314  1  0.240830  0.165396  0.354685  1
  O  O315  1  0.723124  0.166646  0.485234  1
  O  O316  1  0.277010  0.166646  0.485234  1
  O  O317  1  0.741925  0.167240  0.417747  1
  O  O318  1  0.258208  0.167240  0.417747  1
  O  O319  1  -0.000000  0.138367  0.275144  1
  O  O320  1  0.742236  0.002736  0.316755  1
  O  O321  1  0.257898  0.002737  0.316755  1
  O  O322  1  0.500067  0.052900  0.314049  1
  O  O323  1  0.762202  0.057160  0.492462  1
  O  O324  1  0.237931  0.057159  0.492462  1
  O  O325  1  -0.000000  0.044077  0.515482  1
  O  O326  1  0.500067  0.135905  0.511504  1
  O  O327  1  0.750839  0.087577  0.516738  1
  O  O328  1  0.249295  0.087578  0.516738  1
  O  O329  1  0.743327  0.093678  0.290972  1
  O  O330  1  0.256808  0.093678  0.290972  1
  O  O331  1  0.764557  0.058277  0.329207  1
  O  O332  1  0.235575  0.058278  0.329207  1
  O  O333  1  0.000000  0.046289  0.352439  1
  O  O334  1  0.500067  0.140245  0.345751  1
  O  O335  1  -0.000000  0.137910  0.438464  1
  O  O336  1  0.500066  0.050948  0.477161  1
  O  O337  1  0.743885  0.092327  0.454205  1
  O  O338  1  0.256248  0.092327  0.454205  1
  O  O339  1  0.747694  0.089629  0.352876  1
  O  O340  1  0.252441  0.089629  0.352876  1
  O  O341  1  -0.000000  0.790743  0.655269  1
  O  O342  1  0.786275  0.754139  0.721364  1
  O  O343  1  0.213858  0.754139  0.721365  1
  O  O344  1  0.783540  0.828465  0.724786  1
  O  O345  1  0.216592  0.828466  0.724786  1
  O  O346  1  0.723124  0.833304  0.689829  1
  O  O347  1  0.277008  0.833303  0.689829  1
  O  O348  1  -0.000000  0.814631  0.705513  1
  O  O349  1  0.762203  0.942789  0.682600  1
  O  O350  1  0.237931  0.942790  0.682600  1
  O  O351  1  -0.000000  0.955872  0.659581  1
  O  O352  1  0.761500  0.837170  0.655745  1
  O  O353  1  0.238633  0.837169  0.655746  1
  O  O354  1  0.500067  0.864044  0.663558  1
  O  O355  1  0.500066  0.802756  0.615410  1
  O  O356  1  0.750838  0.912372  0.658324  1
  O  O357  1  0.249295  0.912372  0.658324  1
  O  O358  1  0.737876  0.751363  0.669776  1
  O  O359  1  0.262256  0.751363  0.669776  1
  O  O360  1  0.743084  0.833640  0.591900  1
  O  O361  1  0.257046  0.833640  0.591900  1
  O  O362  1  0.766280  0.803783  0.631199  1
  O  O363  1  0.233855  0.803782  0.631200  1
  O  O364  1  0.764437  0.253231  0.721798  1
  O  O365  1  0.235697  0.253231  0.721798  1
  O  O366  1  -0.000000  0.862038  0.736599  1
  O  O367  1  0.500067  0.949001  0.697902  1
  O  O368  1  0.741925  0.832709  0.757316  1
  O  O369  1  0.258211  0.832709  0.757315  1
  O  O370  1  0.743885  0.907622  0.720858  1
  O  O371  1  0.256247  0.907622  0.720857  1
  O  O372  1  0.783559  0.252137  0.668834  1
  O  O373  1  0.216575  0.252137  0.668833  1
  O  O374  1  0.760051  0.332434  0.756078  1
  O  O375  1  0.760053  0.667515  0.747871  1
  O  O376  1  0.240082  0.667516  0.747871  1
  O  O377  1  0.240083  0.332434  0.756078  1
  O  O378  1  0.736325  0.406427  0.719919  1
  O  O379  1  0.263808  0.406427  0.719919  1
  O  O380  1  0.500066  0.352694  0.736077  1
  O  O381  1  -0.000000  0.448048  0.704712  1
  O  O382  1  0.733741  0.698306  0.708505  1
  O  O383  1  0.266396  0.698305  0.708506  1
  O  O384  1  0.500067  0.700369  0.686347  1
  O  O385  1  0.769964  0.675184  0.615095  1
  O  O386  1  0.230168  0.675184  0.615095  1
  O  O387  1  0.500066  0.688721  0.626339  1
  O  O388  1  0.764480  0.589735  0.681221  1
  O  O389  1  0.235655  0.589735  0.681222  1
  O  O390  1  0.500066  0.548752  0.683644  1
  O  O391  1  -0.000000  0.645949  0.668677  1
  O  O392  1  -0.000000  0.699089  0.724104  1
  O  O393  1  0.715388  0.748061  0.618279  1
  O  O394  1  0.284746  0.748061  0.618279  1
  O  O395  1  0.736732  0.668878  0.650064  1
  O  O396  1  0.263402  0.668878  0.650064  1
  O  O397  1  0.709626  0.556394  0.658360  1
  O  O398  1  0.290507  0.556394  0.658360  1
  O  O399  1  0.760562  0.665117  0.684051  1
  O  O400  1  0.239571  0.665117  0.684051  1
  O  O401  1  0.750436  0.498202  0.695567  1
  O  O402  1  0.249698  0.498202  0.695567  1
  O  O403  1  0.757630  0.247264  0.617817  1
  O  O404  1  0.242504  0.247264  0.617817  1
  O  O405  1  0.737555  0.327023  0.723938  1
  O  O406  1  0.262576  0.327022  0.723938  1
  O  O407  1  0.765949  0.331544  0.689416  1
  O  O408  1  0.234184  0.331544  0.689416  1
  O  O409  1  -0.000000  0.307196  0.713804  1
  O  O410  1  0.790883  0.444783  0.681699  1
  O  O411  1  0.209251  0.444783  0.681699  1
  O  O412  1  -0.000000  0.452168  0.656395  1
  O  O413  1  0.739829  0.337898  0.654923  1
  O  O414  1  0.260304  0.337897  0.654923  1
  O  O415  1  0.500067  0.354806  0.671186  1
  O  O416  1  0.000000  0.308265  0.648197  1
  O  O417  1  0.500067  0.288663  0.615321  1
  O  O418  1  -0.000000  0.647550  0.602483  1
  O  O419  1  0.749858  0.502932  0.644517  1
  O  O420  1  0.250275  0.502932  0.644518  1
  O  O421  1  0.500066  0.553096  0.635421  1
  O  O422  1  0.734078  0.332233  0.591481  1
  O  O423  1  0.266057  0.332233  0.591481  1
  O  O424  1  0.763683  0.594528  0.620060  1
  O  O425  1  0.236450  0.594528  0.620060  1
  O  O426  1  0.747386  0.304514  0.630290  1
  O  O427  1  0.252747  0.304514  0.630289  1
  O  O428  1  0.734281  0.411542  0.658870  1
  O  O429  1  0.265852  0.411542  0.658870  1
  O  O430  1  0.743071  0.998633  0.695045  1
  O  O431  1  0.257062  0.998634  0.695045  1
  O  O432  1  0.500067  0.213383  0.725480  1
  O  O433  1  -0.000000  0.199847  0.691545  1
  O  O434  1  0.732708  0.200467  0.707322  1
  O  O435  1  0.267426  0.200467  0.707322  1
  O  O436  1  -0.000000  0.195174  0.632231  1
  O  O437  1  0.785463  0.173435  0.615105  1
  O  O438  1  0.214671  0.173436  0.615105  1
  O  O439  1  0.731421  0.168087  0.649718  1
  O  O440  1  0.268712  0.168087  0.649718  1
  O  O441  1  0.759303  0.165397  0.683571  1
  O  O442  1  0.240830  0.165396  0.683571  1
  O  O443  1  0.741925  0.167240  0.746634  1
  O  O444  1  0.258208  0.167240  0.746634  1
  O  O445  1  -0.000000  0.138367  0.604030  1
  O  O446  1  0.742236  0.002736  0.645642  1
  O  O447  1  0.257898  0.002737  0.645642  1
  O  O448  1  0.500067  0.052900  0.642935  1
  O  O449  1  0.743327  0.093678  0.619858  1
  O  O450  1  0.256808  0.093678  0.619858  1
  O  O451  1  0.764557  0.058277  0.658094  1
  O  O452  1  0.235575  0.058278  0.658094  1
  O  O453  1  0.000000  0.046289  0.681325  1
  O  O454  1  0.500067  0.140245  0.674638  1
  O  O455  1  0.747694  0.089629  0.681763  1
  O  O456  1  0.252441  0.089629  0.681763  1
  Si  Si457  1  0.684166  0.859667  0.173266  1
  Si  Si458  1  0.315964  0.859666  0.173266  1
  Si  Si459  1  0.683745  0.792090  0.120726  1
  Si  Si460  1  0.316392  0.792089  0.120727  1
  Si  Si461  1  0.683770  0.644935  0.111959  1
  Si  Si462  1  0.316362  0.644937  0.111959  1
  Si  Si463  1  0.683908  0.296697  0.158653  1
  Si  Si464  1  0.316227  0.296697  0.158653  1
  Si  Si465  1  0.816591  0.358314  0.174533  1
  Si  Si466  1  0.183543  0.358314  0.174533  1
  Si  Si467  1  0.815958  0.695403  0.133749  1
  Si  Si468  1  0.184171  0.695403  0.133749  1
  Si  Si469  1  0.683652  0.640296  0.178148  1
  Si  Si470  1  0.316484  0.640296  0.178148  1
  Si  Si471  1  0.816433  0.354289  0.241000  1
  Si  Si472  1  0.183700  0.354289  0.241001  1
  Si  Si473  1  0.683988  0.706068  0.232519  1
  Si  Si474  1  0.316146  0.706068  0.232519  1
  Si  Si475  1  0.684873  0.947916  0.205296  1
  Si  Si476  1  0.315260  0.947915  0.205296  1
  Si  Si477  1  0.816396  0.857246  0.240967  1
  Si  Si478  1  0.183737  0.857246  0.240967  1
  Si  Si479  1  0.816667  0.803706  0.217636  1
  Si  Si480  1  0.183469  0.803706  0.217636  1
  Si  Si481  1  0.816563  0.796340  0.158036  1
  Si  Si482  1  0.183565  0.796338  0.158036  1
  Si  Si483  1  0.814802  0.951955  0.166167  1
  Si  Si484  1  0.185334  0.951954  0.166168  1
  Si  Si485  1  0.816737  0.296194  0.120463  1
  Si  Si486  1  0.183397  0.296194  0.120463  1
  Si  Si487  1  0.683404  0.304604  0.219018  1
  Si  Si488  1  0.316730  0.304604  0.219018  1
  Si  Si489  1  0.816077  0.698304  0.196010  1
  Si  Si490  1  0.184054  0.698302  0.196010  1
  Si  Si491  1  0.683600  0.451867  0.165541  1
  Si  Si492  1  0.316531  0.451867  0.165541  1
  Si  Si493  1  0.816780  0.550677  0.144936  1
  Si  Si494  1  0.183354  0.550678  0.144936  1
  Si  Si495  1  0.683475  0.448065  0.207347  1
  Si  Si496  1  0.316660  0.448064  0.207347  1
  Si  Si497  1  0.816570  0.546936  0.186732  1
  Si  Si498  1  0.183564  0.546936  0.186732  1
  Si  Si499  1  0.816372  0.203466  0.193529  1
  Si  Si500  1  0.183761  0.203466  0.193529  1
  Si  Si501  1  0.683489  0.201748  0.232194  1
  Si  Si502  1  0.316644  0.201748  0.232194  1
  Si  Si503  1  0.817430  0.192330  0.135607  1
  Si  Si504  1  0.182702  0.192330  0.135607  1
  Si  Si505  1  0.683897  0.137561  0.179864  1
  Si  Si506  1  0.316237  0.137561  0.179864  1
  Si  Si507  1  0.814791  0.046489  0.185483  1
  Si  Si508  1  0.185343  0.046489  0.185483  1
  Si  Si509  1  0.684873  0.050569  0.146317  1
  Si  Si510  1  0.315260  0.050569  0.146317  1
  Si  Si511  1  0.815894  0.141755  0.110979  1
  Si  Si512  1  0.184240  0.141755  0.110979  1
  Si  Si513  1  0.683897  0.862388  0.337425  1
  Si  Si514  1  0.316237  0.862388  0.337425  1
  Si  Si515  1  0.816372  0.796484  0.323760  1
  Si  Si516  1  0.183761  0.796484  0.323760  1
  Si  Si517  1  0.684166  0.859667  0.502153  1
  Si  Si518  1  0.315964  0.859666  0.502152  1
  Si  Si519  1  0.683745  0.792090  0.449613  1
  Si  Si520  1  0.316392  0.792089  0.449613  1
  Si  Si521  1  0.683773  0.355011  0.405330  1
  Si  Si522  1  0.683770  0.644935  0.440845  1
  Si  Si523  1  0.316362  0.644937  0.440845  1
  Si  Si524  1  0.316362  0.355011  0.405330  1
  Si  Si525  1  0.683908  0.296697  0.487540  1
  Si  Si526  1  0.683907  0.703253  0.358636  1
  Si  Si527  1  0.316227  0.703252  0.358636  1
  Si  Si528  1  0.316227  0.296697  0.487540  1
  Si  Si529  1  0.816591  0.641635  0.342757  1
  Si  Si530  1  0.816591  0.358314  0.503419  1
  Si  Si531  1  0.183543  0.358314  0.503419  1
  Si  Si532  1  0.183543  0.641635  0.342757  1
  Si  Si533  1  0.815965  0.304548  0.383539  1
  Si  Si534  1  0.815958  0.695403  0.462635  1
  Si  Si535  1  0.184171  0.695403  0.462636  1
  Si  Si536  1  0.184169  0.304548  0.383540  1
  Si  Si537  1  0.683651  0.359654  0.339141  1
  Si  Si538  1  0.683652  0.640296  0.507035  1
  Si  Si539  1  0.316484  0.640296  0.507035  1
  Si  Si540  1  0.316484  0.359654  0.339141  1
  Si  Si541  1  0.816433  0.645660  0.276289  1
  Si  Si542  1  0.816433  0.354289  0.569887  1
  Si  Si543  1  0.183700  0.354289  0.569887  1
  Si  Si544  1  0.183700  0.645660  0.276289  1
  Si  Si545  1  0.683988  0.706068  0.561406  1
  Si  Si546  1  0.683988  0.293880  0.284771  1
  Si  Si547  1  0.316145  0.293880  0.284771  1
  Si  Si548  1  0.316146  0.706068  0.561406  1
  Si  Si549  1  0.684873  0.947916  0.534183  1
  Si  Si550  1  0.315260  0.947915  0.534183  1
  Si  Si551  1  0.814790  0.953460  0.331807  1
  Si  Si552  1  0.185343  0.953461  0.331806  1
  Si  Si553  1  0.683489  0.798201  0.285095  1
  Si  Si554  1  0.316644  0.798201  0.285095  1
  Si  Si555  1  0.816396  0.857246  0.569853  1
  Si  Si556  1  0.183737  0.857246  0.569853  1
  Si  Si557  1  0.816667  0.803706  0.546523  1
  Si  Si558  1  0.183469  0.803706  0.546523  1
  Si  Si559  1  0.684874  0.949380  0.370973  1
  Si  Si560  1  0.315260  0.949380  0.370973  1
  Si  Si561  1  0.815893  0.858193  0.406311  1
  Si  Si562  1  0.184240  0.858194  0.406311  1
  Si  Si563  1  0.816563  0.796340  0.486922  1
  Si  Si564  1  0.183565  0.796338  0.486922  1
  Si  Si565  1  0.814802  0.951955  0.495054  1
  Si  Si566  1  0.185334  0.951954  0.495054  1
  Si  Si567  1  0.816737  0.296194  0.449349  1
  Si  Si568  1  0.816738  0.703755  0.396826  1
  Si  Si569  1  0.183398  0.703755  0.396826  1
  Si  Si570  1  0.183397  0.296194  0.449349  1
  Si  Si571  1  0.683404  0.695345  0.298271  1
  Si  Si572  1  0.683404  0.304604  0.547904  1
  Si  Si573  1  0.316730  0.304604  0.547904  1
  Si  Si574  1  0.316730  0.695345  0.298271  1
  Si  Si575  1  0.816077  0.698304  0.524896  1
  Si  Si576  1  0.816079  0.301647  0.321279  1
  Si  Si577  1  0.184055  0.301647  0.321279  1
  Si  Si578  1  0.184054  0.698302  0.524897  1
  Si  Si579  1  0.817430  0.807619  0.381682  1
  Si  Si580  1  0.182703  0.807619  0.381682  1
  Si  Si581  1  0.683601  0.548082  0.351749  1
  Si  Si582  1  0.683600  0.451867  0.494427  1
  Si  Si583  1  0.316531  0.451867  0.494427  1
  Si  Si584  1  0.316532  0.548082  0.351749  1
  Si  Si585  1  0.816780  0.449271  0.372354  1
  Si  Si586  1  0.816780  0.550677  0.473822  1
  Si  Si587  1  0.183354  0.550678  0.473822  1
  Si  Si588  1  0.183354  0.449271  0.372354  1
  Si  Si589  1  0.683474  0.551885  0.309942  1
  Si  Si590  1  0.683475  0.448065  0.536234  1
  Si  Si591  1  0.316660  0.448064  0.536234  1
  Si  Si592  1  0.316658  0.551885  0.309942  1
  Si  Si593  1  0.816570  0.453013  0.330557  1
  Si  Si594  1  0.816570  0.546936  0.515619  1
  Si  Si595  1  0.183564  0.546936  0.515619  1
  Si  Si596  1  0.183564  0.453013  0.330557  1
  Si  Si597  1  0.683750  0.207861  0.396562  1
  Si  Si598  1  0.316383  0.207861  0.396562  1
  Si  Si599  1  0.816372  0.203466  0.522415  1
  Si  Si600  1  0.183761  0.203466  0.522415  1
  Si  Si601  1  0.683489  0.201748  0.561081  1
  Si  Si602  1  0.316644  0.201748  0.561081  1
  Si  Si603  1  0.816665  0.196243  0.299653  1
  Si  Si604  1  0.183468  0.196243  0.299653  1
  Si  Si605  1  0.816570  0.203611  0.359253  1
  Si  Si606  1  0.183563  0.203611  0.359252  1
  Si  Si607  1  0.817430  0.192330  0.464494  1
  Si  Si608  1  0.182702  0.192330  0.464494  1
  Si  Si609  1  0.683897  0.137561  0.508751  1
  Si  Si610  1  0.316237  0.137561  0.508751  1
  Si  Si611  1  0.684167  0.140283  0.344024  1
  Si  Si612  1  0.315966  0.140283  0.344024  1
  Si  Si613  1  0.684873  0.052034  0.311993  1
  Si  Si614  1  0.315260  0.052034  0.311993  1
  Si  Si615  1  0.814791  0.046489  0.514370  1
  Si  Si616  1  0.185343  0.046489  0.514370  1
  Si  Si617  1  0.816397  0.142702  0.276323  1
  Si  Si618  1  0.183737  0.142703  0.276323  1
  Si  Si619  1  0.684873  0.050569  0.475203  1
  Si  Si620  1  0.315260  0.050569  0.475203  1
  Si  Si621  1  0.815894  0.141755  0.439865  1
  Si  Si622  1  0.184240  0.141755  0.439865  1
  Si  Si623  1  0.814800  0.047995  0.351122  1
  Si  Si624  1  0.185332  0.047995  0.351122  1
  Si  Si625  1  0.683897  0.862388  0.666312  1
  Si  Si626  1  0.316237  0.862388  0.666312  1
  Si  Si627  1  0.816372  0.796484  0.652647  1
  Si  Si628  1  0.183761  0.796484  0.652647  1
  Si  Si629  1  0.683773  0.355011  0.734217  1
  Si  Si630  1  0.316362  0.355011  0.734217  1
  Si  Si631  1  0.683907  0.703253  0.687522  1
  Si  Si632  1  0.316227  0.703252  0.687523  1
  Si  Si633  1  0.816591  0.641635  0.671643  1
  Si  Si634  1  0.183543  0.641635  0.671643  1
  Si  Si635  1  0.815965  0.304548  0.712426  1
  Si  Si636  1  0.184169  0.304548  0.712426  1
  Si  Si637  1  0.683651  0.359654  0.668027  1
  Si  Si638  1  0.316484  0.359654  0.668027  1
  Si  Si639  1  0.816433  0.645660  0.605175  1
  Si  Si640  1  0.183700  0.645660  0.605175  1
  Si  Si641  1  0.683988  0.293880  0.613657  1
  Si  Si642  1  0.316145  0.293880  0.613657  1
  Si  Si643  1  0.814790  0.953460  0.660693  1
  Si  Si644  1  0.185343  0.953461  0.660692  1
  Si  Si645  1  0.683489  0.798201  0.613981  1
  Si  Si646  1  0.316644  0.798201  0.613982  1
  Si  Si647  1  0.684874  0.949380  0.699860  1
  Si  Si648  1  0.315260  0.949380  0.699859  1
  Si  Si649  1  0.815893  0.858193  0.735198  1
  Si  Si650  1  0.184240  0.858194  0.735197  1
  Si  Si651  1  0.816738  0.703755  0.725713  1
  Si  Si652  1  0.183398  0.703755  0.725713  1
  Si  Si653  1  0.683404  0.695345  0.627158  1
  Si  Si654  1  0.316730  0.695345  0.627158  1
  Si  Si655  1  0.816079  0.301647  0.650165  1
  Si  Si656  1  0.184055  0.301647  0.650165  1
  Si  Si657  1  0.817430  0.807619  0.710569  1
  Si  Si658  1  0.182703  0.807619  0.710569  1
  Si  Si659  1  0.683601  0.548082  0.680635  1
  Si  Si660  1  0.316532  0.548082  0.680635  1
  Si  Si661  1  0.816780  0.449271  0.701240  1
  Si  Si662  1  0.183354  0.449271  0.701240  1
  Si  Si663  1  0.683474  0.551885  0.638828  1
  Si  Si664  1  0.316658  0.551885  0.638828  1
  Si  Si665  1  0.816570  0.453013  0.659444  1
  Si  Si666  1  0.183564  0.453013  0.659444  1
  Si  Si667  1  0.683750  0.207861  0.725449  1
  Si  Si668  1  0.316383  0.207861  0.725449  1
  Si  Si669  1  0.816665  0.196243  0.628540  1
  Si  Si670  1  0.183468  0.196243  0.628540  1
  Si  Si671  1  0.816570  0.203611  0.688139  1
  Si  Si672  1  0.183563  0.203611  0.688139  1
  Si  Si673  1  0.684167  0.140283  0.672910  1
  Si  Si674  1  0.315966  0.140283  0.672910  1
  Si  Si675  1  0.684873  0.052034  0.640880  1
  Si  Si676  1  0.315260  0.052034  0.640880  1
  Si  Si677  1  0.816397  0.142702  0.605210  1
  Si  Si678  1  0.183737  0.142703  0.605209  1
  Si  Si679  1  0.814800  0.047995  0.680009  1
  Si  Si680  1  0.185332  0.047995  0.680009  1
  H  H681  1  0.741925  0.832709  0.087594  1
  H  H682  1  0.258211  0.832709  0.087593  1
  H  H683  1  0.760051  0.332434  0.086356  1
  H  H684  1  0.760053  0.667515  0.078149  1
  H  H685  1  0.240082  0.667516  0.078149  1
  H  H686  1  0.240083  0.332434  0.086356  1
  H  H687  1  0.741925  0.167240  0.076912  1
  H  H688  1  0.258208  0.167240  0.076912  1
  H  H689  1  0.741925  0.832709  0.769265  1
  H  H690  1  0.258211  0.832709  0.769264  1
  H  H691  1  0.760051  0.332434  0.768027  1
  H  H692  1  0.760053  0.667515  0.759820  1
  H  H693  1  0.240082  0.667516  0.759820  1
  H  H694  1  0.240083  0.332434  0.768027  1
  H  H695  1  0.741925  0.167240  0.758583  1
  H  H696  1  0.258208  0.167240  0.758583  1
