# generated using pymatgen
data_Si48H2O97
_symmetry_space_group_name_H-M   'P 1'
_cell_length_a   13.79891269
_cell_length_b   6.95425229
_cell_length_c   89.18281137
_cell_angle_alpha   99.01600000
_cell_angle_beta   90.00000000
_cell_angle_gamma   90.00000000
_symmetry_Int_Tables_number   1
_chemical_formula_structural   Si48H2O97
_chemical_formula_sum   'Si96 H4 O194'
_cell_volume   8452.34409512
_cell_formula_units_Z   2
loop_
 _symmetry_equiv_pos_site_id
 _symmetry_equiv_pos_as_xyz
  1  'x, y, z'
loop_
 _atom_site_type_symbol
 _atom_site_label
 _atom_site_symmetry_multiplicity
 _atom_site_fract_x
 _atom_site_fract_y
 _atom_site_fract_z
 _atom_site_occupancy
  O  O1  1  0.137138  0.000000  0.066879  1
  O  O2  1  0.862595  0.000000  0.066858  1
  O  O3  1  0.000000  0.026714  0.299202  1
  O  O4  1  0.499869  0.026709  0.173747  1
  O  O5  1  0.000000  0.973448  0.085448  1
  O  O6  1  0.499863  0.973463  0.210904  1
  O  O7  1  0.138226  0.071245  0.263104  1
  O  O8  1  0.638155  0.071212  0.137634  1
  O  O9  1  0.138151  0.928896  0.121572  1
  O  O10  1  0.638222  0.928891  0.247013  1
  O  O11  1  0.861502  0.928939  0.121546  1
  O  O12  1  0.361583  0.928921  0.247018  1
  O  O13  1  0.861595  0.071285  0.263077  1
  O  O14  1  0.361513  0.071239  0.137639  1
  O  O15  1  0.137138  0.000000  0.317790  1
  O  O16  1  0.637138  0.000000  0.192325  1
  O  O17  1  0.862595  0.000000  0.317768  1
  O  O18  1  0.362595  0.000000  0.192327  1
  O  O19  1  0.000000  0.878260  0.248210  1
  O  O20  1  0.499834  0.878203  0.122759  1
  O  O21  1  0.000000  0.121938  0.136437  1
  O  O22  1  0.499904  0.121909  0.261896  1
  O  O23  1  0.173586  0.418698  0.276826  1
  O  O24  1  0.673532  0.418691  0.151359  1
  O  O25  1  0.173495  0.581409  0.107847  1
  O  O26  1  0.673547  0.581426  0.233289  1
  O  O27  1  0.826150  0.581483  0.107821  1
  O  O28  1  0.326202  0.581446  0.233296  1
  O  O29  1  0.826243  0.418768  0.276800  1
  O  O30  1  0.326189  0.418708  0.151364  1
  O  O31  1  0.690223  0.159378  0.270762  1
  O  O32  1  0.190128  0.159416  0.145320  1
  O  O33  1  0.690115  0.840774  0.113878  1
  O  O34  1  0.190209  0.840845  0.239346  1
  O  O35  1  0.309520  0.840756  0.113889  1
  O  O36  1  0.809602  0.840752  0.239328  1
  O  O37  1  0.309617  0.159361  0.270774  1
  O  O38  1  0.809536  0.159330  0.145303  1
  O  O39  1  0.170534  0.121539  0.291184  1
  O  O40  1  0.670449  0.121539  0.165715  1
  O  O41  1  0.170352  0.878532  0.093489  1
  O  O42  1  0.670435  0.878554  0.218931  1
  O  O43  1  0.829182  0.878670  0.093465  1
  O  O44  1  0.329303  0.878591  0.218936  1
  O  O45  1  0.829403  0.121679  0.291159  1
  O  O46  1  0.329281  0.121570  0.165720  1
  O  O47  1  0.873567  0.710792  0.262694  1
  O  O48  1  0.373483  0.710743  0.137255  1
  O  O49  1  0.873430  0.289436  0.121936  1
  O  O50  1  0.373514  0.289416  0.247407  1
  O  O51  1  0.126175  0.289403  0.121953  1
  O  O52  1  0.626247  0.289389  0.247400  1
  O  O53  1  0.126302  0.710761  0.262711  1
  O  O54  1  0.626227  0.710719  0.137248  1
  O  O55  1  0.126869  0.768906  0.291486  1
  O  O56  1  0.626821  0.768940  0.166022  1
  O  O57  1  0.126766  0.231131  0.093181  1
  O  O58  1  0.626816  0.231192  0.218628  1
  O  O59  1  0.872870  0.231263  0.093162  1
  O  O60  1  0.372908  0.231206  0.218632  1
  O  O61  1  0.872962  0.769037  0.291465  1
  O  O62  1  0.372920  0.768955  0.166026  1
  O  O63  1  0.000000  0.553934  0.277203  1
  O  O64  1  0.499866  0.553895  0.151751  1
  O  O65  1  0.000000  0.446258  0.107446  1
  O  O66  1  0.499869  0.446245  0.232904  1
  O  O67  1  0.000000  0.026714  0.550113  1
  O  O68  1  0.499869  0.026709  0.424657  1
  O  O69  1  0.000000  0.973448  0.336359  1
  O  O70  1  0.499863  0.973463  0.461814  1
  O  O71  1  0.138226  0.071245  0.514014  1
  O  O72  1  0.638155  0.071212  0.388545  1
  O  O73  1  0.138151  0.928896  0.372482  1
  O  O74  1  0.638222  0.928891  0.497923  1
  O  O75  1  0.861502  0.928939  0.372456  1
  O  O76  1  0.361583  0.928921  0.497928  1
  O  O77  1  0.861595  0.071285  0.513987  1
  O  O78  1  0.361513  0.071239  0.388549  1
  O  O79  1  0.137138  0.000000  0.568700  1
  O  O80  1  0.637138  0.000000  0.443235  1
  O  O81  1  0.862595  0.000000  0.568678  1
  O  O82  1  0.362595  -0.000000  0.443238  1
  O  O83  1  0.000000  0.878260  0.499120  1
  O  O84  1  0.499834  0.878203  0.373669  1
  O  O85  1  -0.000000  0.121938  0.387347  1
  O  O86  1  0.499904  0.121909  0.512806  1
  O  O87  1  0.173586  0.418698  0.527737  1
  O  O88  1  0.673532  0.418691  0.402269  1
  O  O89  1  0.173495  0.581409  0.358757  1
  O  O90  1  0.673547  0.581426  0.484200  1
  O  O91  1  0.826150  0.581483  0.358732  1
  O  O92  1  0.326202  0.581446  0.484206  1
  O  O93  1  0.826243  0.418768  0.527710  1
  O  O94  1  0.326189  0.418708  0.402275  1
  O  O95  1  0.690223  0.159378  0.521672  1
  O  O96  1  0.190128  0.159416  0.396230  1
  O  O97  1  0.690115  0.840774  0.364788  1
  O  O98  1  0.190209  0.840845  0.490256  1
  O  O99  1  0.309520  0.840756  0.364800  1
  O  O100  1  0.809602  0.840752  0.490238  1
  O  O101  1  0.309617  0.159361  0.521685  1
  O  O102  1  0.809536  0.159330  0.396213  1
  O  O103  1  0.170534  0.121539  0.542094  1
  O  O104  1  0.670449  0.121539  0.416626  1
  O  O105  1  0.170352  0.878532  0.344399  1
  O  O106  1  0.670435  0.878554  0.469841  1
  O  O107  1  0.829182  0.878670  0.344376  1
  O  O108  1  0.329303  0.878591  0.469846  1
  O  O109  1  0.829403  0.121679  0.542070  1
  O  O110  1  0.329281  0.121570  0.416630  1
  O  O111  1  0.873567  0.710792  0.513604  1
  O  O112  1  0.373483  0.710743  0.388165  1
  O  O113  1  0.873430  0.289436  0.372846  1
  O  O114  1  0.373514  0.289416  0.498317  1
  O  O115  1  0.126175  0.289403  0.372863  1
  O  O116  1  0.626247  0.289389  0.498310  1
  O  O117  1  0.126302  0.710761  0.513622  1
  O  O118  1  0.626227  0.710719  0.388159  1
  O  O119  1  0.126869  0.768906  0.542396  1
  O  O120  1  0.626821  0.768940  0.416932  1
  O  O121  1  0.126766  0.231131  0.344092  1
  O  O122  1  0.626816  0.231192  0.469539  1
  O  O123  1  0.872870  0.231263  0.344072  1
  O  O124  1  0.372908  0.231206  0.469543  1
  O  O125  1  0.872962  0.769037  0.542376  1
  O  O126  1  0.372920  0.768955  0.416936  1
  O  O127  1  0.000000  0.553934  0.528113  1
  O  O128  1  0.499866  0.553895  0.402661  1
  O  O129  1  0.000000  0.446258  0.358356  1
  O  O130  1  0.499869  0.446245  0.483814  1
  O  O131  1  0.000000  0.026714  0.801023  1
  O  O132  1  0.499869  0.026709  0.675568  1
  O  O133  1  0.000000  0.973448  0.587269  1
  O  O134  1  0.499863  0.973463  0.712725  1
  O  O135  1  0.138226  0.071245  0.764924  1
  O  O136  1  0.638155  0.071212  0.639455  1
  O  O137  1  0.138151  0.928896  0.623392  1
  O  O138  1  0.638222  0.928891  0.748833  1
  O  O139  1  0.861502  0.928939  0.623366  1
  O  O140  1  0.361583  0.928921  0.748839  1
  O  O141  1  0.861595  0.071285  0.764897  1
  O  O142  1  0.361513  0.071239  0.639460  1
  O  O143  1  0.137138  0.000000  0.819610  1
  O  O144  1  0.637138  0.000000  0.694145  1
  O  O145  1  0.862595  0.000000  0.819589  1
  O  O146  1  0.362595  0.000000  0.694148  1
  O  O147  1  0.000000  0.878260  0.750030  1
  O  O148  1  0.499834  0.878203  0.624579  1
  O  O149  1  0.000000  0.121938  0.638258  1
  O  O150  1  0.499904  0.121909  0.763717  1
  O  O151  1  0.173586  0.418698  0.778647  1
  O  O152  1  0.673532  0.418691  0.653179  1
  O  O153  1  0.173495  0.581409  0.609668  1
  O  O154  1  0.673547  0.581426  0.735110  1
  O  O155  1  0.826150  0.581483  0.609642  1
  O  O156  1  0.326202  0.581446  0.735117  1
  O  O157  1  0.826243  0.418768  0.778620  1
  O  O158  1  0.326189  0.418708  0.653185  1
  O  O159  1  0.690223  0.159378  0.772583  1
  O  O160  1  0.190128  0.159416  0.647140  1
  O  O161  1  0.690115  0.840774  0.615699  1
  O  O162  1  0.190209  0.840845  0.741166  1
  O  O163  1  0.309520  0.840756  0.615710  1
  O  O164  1  0.809602  0.840752  0.741149  1
  O  O165  1  0.309617  0.159361  0.772595  1
  O  O166  1  0.809536  0.159330  0.647124  1
  O  O167  1  0.170534  0.121539  0.793004  1
  O  O168  1  0.670449  0.121539  0.667536  1
  O  O169  1  0.170352  0.878532  0.595310  1
  O  O170  1  0.670435  0.878554  0.720752  1
  O  O171  1  0.829182  0.878670  0.595286  1
  O  O172  1  0.329303  0.878591  0.720757  1
  O  O173  1  0.829403  0.121679  0.792980  1
  O  O174  1  0.329281  0.121570  0.667541  1
  O  O175  1  0.873567  0.710792  0.764515  1
  O  O176  1  0.373483  0.710743  0.639075  1
  O  O177  1  0.873430  0.289436  0.623757  1
  O  O178  1  0.373514  0.289416  0.749227  1
  O  O179  1  0.126175  0.289403  0.623774  1
  O  O180  1  0.626247  0.289389  0.749220  1
  O  O181  1  0.126302  0.710761  0.764532  1
  O  O182  1  0.626227  0.710719  0.639069  1
  O  O183  1  0.126869  0.768906  0.793306  1
  O  O184  1  0.626821  0.768940  0.667843  1
  O  O185  1  0.126766  0.231131  0.595002  1
  O  O186  1  0.626816  0.231192  0.720449  1
  O  O187  1  0.872870  0.231263  0.594982  1
  O  O188  1  0.372908  0.231206  0.720453  1
  O  O189  1  0.872962  0.769037  0.793286  1
  O  O190  1  0.372920  0.768955  0.667847  1
  O  O191  1  -0.000000  0.553934  0.779023  1
  O  O192  1  0.499866  0.553895  0.653572  1
  O  O193  1  0.000000  0.446258  0.609266  1
  O  O194  1  0.499869  0.446245  0.734724  1
  Si  Si195  1  0.200152  0.197256  0.275978  1
  Si  Si196  1  0.700077  0.197229  0.150509  1
  Si  Si197  1  0.200039  0.802869  0.108694  1
  Si  Si198  1  0.700114  0.802870  0.234135  1
  Si  Si199  1  0.799577  0.802927  0.108671  1
  Si  Si200  1  0.299668  0.802911  0.234143  1
  Si  Si201  1  0.799707  0.197314  0.275954  1
  Si  Si202  1  0.299612  0.197265  0.150516  1
  Si  Si203  1  0.887986  0.982679  0.300334  1
  Si  Si204  1  0.387931  0.982624  0.174891  1
  Si  Si205  1  0.887873  0.017593  0.084296  1
  Si  Si206  1  0.387925  0.017561  0.209764  1
  Si  Si207  1  0.111749  0.017483  0.084313  1
  Si  Si208  1  0.611802  0.017538  0.209761  1
  Si  Si209  1  0.111862  0.982573  0.300351  1
  Si  Si210  1  0.611808  0.982603  0.174889  1
  Si  Si211  1  0.888375  0.874577  0.252452  1
  Si  Si212  1  0.388292  0.874538  0.127013  1
  Si  Si213  1  0.888275  0.125618  0.132175  1
  Si  Si214  1  0.388357  0.125606  0.257646  1
  Si  Si215  1  0.111363  0.125614  0.132195  1
  Si  Si216  1  0.611442  0.125581  0.257640  1
  Si  Si217  1  0.111462  0.874579  0.252472  1
  Si  Si218  1  0.611382  0.874513  0.127007  1
  Si  Si219  1  0.110964  0.607548  0.277071  1
  Si  Si220  1  0.610909  0.607545  0.151611  1
  Si  Si221  1  0.110856  0.392562  0.107590  1
  Si  Si222  1  0.610912  0.392591  0.233040  1
  Si  Si223  1  0.888771  0.392634  0.107575  1
  Si  Si224  1  0.388826  0.392595  0.233044  1
  Si  Si225  1  0.888881  0.607621  0.277056  1
  Si  Si226  1  0.388822  0.607547  0.151615  1
  Si  Si227  1  0.200152  0.197256  0.526888  1
  Si  Si228  1  0.700077  0.197229  0.401419  1
  Si  Si229  1  0.200039  0.802869  0.359604  1
  Si  Si230  1  0.700114  0.802870  0.485045  1
  Si  Si231  1  0.799577  0.802927  0.359581  1
  Si  Si232  1  0.299668  0.802911  0.485053  1
  Si  Si233  1  0.799707  0.197314  0.526865  1
  Si  Si234  1  0.299612  0.197265  0.401426  1
  Si  Si235  1  0.887986  0.982679  0.551244  1
  Si  Si236  1  0.387931  0.982624  0.425801  1
  Si  Si237  1  0.887873  0.017593  0.335206  1
  Si  Si238  1  0.387925  0.017561  0.460674  1
  Si  Si239  1  0.111749  0.017483  0.335224  1
  Si  Si240  1  0.611802  0.017538  0.460671  1
  Si  Si241  1  0.111862  0.982573  0.551261  1
  Si  Si242  1  0.611808  0.982603  0.425799  1
  Si  Si243  1  0.888375  0.874577  0.503362  1
  Si  Si244  1  0.388292  0.874538  0.377923  1
  Si  Si245  1  0.888275  0.125618  0.383085  1
  Si  Si246  1  0.388357  0.125606  0.508557  1
  Si  Si247  1  0.111363  0.125614  0.383105  1
  Si  Si248  1  0.611442  0.125581  0.508551  1
  Si  Si249  1  0.111462  0.874579  0.503383  1
  Si  Si250  1  0.611382  0.874513  0.377918  1
  Si  Si251  1  0.110964  0.607548  0.527982  1
  Si  Si252  1  0.610909  0.607545  0.402521  1
  Si  Si253  1  0.110856  0.392562  0.358501  1
  Si  Si254  1  0.610912  0.392591  0.483950  1
  Si  Si255  1  0.888771  0.392634  0.358486  1
  Si  Si256  1  0.388826  0.392595  0.483955  1
  Si  Si257  1  0.888881  0.607621  0.527966  1
  Si  Si258  1  0.388822  0.607547  0.402525  1
  Si  Si259  1  0.200152  0.197256  0.777798  1
  Si  Si260  1  0.700077  0.197229  0.652330  1
  Si  Si261  1  0.200039  0.802869  0.610514  1
  Si  Si262  1  0.700114  0.802870  0.735956  1
  Si  Si263  1  0.799577  0.802927  0.610492  1
  Si  Si264  1  0.299668  0.802911  0.735963  1
  Si  Si265  1  0.799707  0.197314  0.777775  1
  Si  Si266  1  0.299612  0.197265  0.652336  1
  Si  Si267  1  0.887986  0.982679  0.802154  1
  Si  Si268  1  0.387931  0.982624  0.676712  1
  Si  Si269  1  0.887873  0.017593  0.586117  1
  Si  Si270  1  0.387925  0.017561  0.711584  1
  Si  Si271  1  0.111749  0.017483  0.586134  1
  Si  Si272  1  0.611802  0.017538  0.711582  1
  Si  Si273  1  0.111862  0.982573  0.802172  1
  Si  Si274  1  0.611808  0.982603  0.676709  1
  Si  Si275  1  0.888375  0.874577  0.754273  1
  Si  Si276  1  0.388292  0.874538  0.628834  1
  Si  Si277  1  0.888275  0.125618  0.633996  1
  Si  Si278  1  0.388357  0.125606  0.759467  1
  Si  Si279  1  0.111363  0.125614  0.634015  1
  Si  Si280  1  0.611442  0.125581  0.759461  1
  Si  Si281  1  0.111462  0.874579  0.754293  1
  Si  Si282  1  0.611382  0.874513  0.628828  1
  Si  Si283  1  0.110964  0.607548  0.778892  1
  Si  Si284  1  0.610909  0.607545  0.653431  1
  Si  Si285  1  0.110856  0.392562  0.609411  1
  Si  Si286  1  0.610912  0.392591  0.734860  1
  Si  Si287  1  0.888771  0.392634  0.609396  1
  Si  Si288  1  0.388826  0.392595  0.734865  1
  Si  Si289  1  0.888881  0.607621  0.778876  1
  Si  Si290  1  0.388822  0.607547  0.653436  1
  H  H291  1  0.137138  0.000000  0.056788  1
  H  H292  1  0.862595  0.000000  0.056766  1
  H  H293  1  0.137138  0.000000  0.829702  1
  H  H294  1  0.862595  0.000000  0.829680  1
