# generated using pymatgen
data_Si6H2O13
_symmetry_space_group_name_H-M   'P 1'
_cell_length_a   5.06483519
_cell_length_b   14.10770455
_cell_length_c   30.20213710
_cell_angle_alpha   90.00000000
_cell_angle_beta   90.00000000
_cell_angle_gamma   90.00000000
_symmetry_Int_Tables_number   1
_chemical_formula_structural   Si6H2O13
_chemical_formula_sum   'Si12 H4 O26'
_cell_volume   2158.03929596
_cell_formula_units_Z   2
loop_
 _symmetry_equiv_pos_site_id
 _symmetry_equiv_pos_as_xyz
  1  'x, y, z'
loop_
 _atom_site_type_symbol
 _atom_site_label
 _atom_site_symmetry_multiplicity
 _atom_site_fract_x
 _atom_site_fract_y
 _atom_site_fract_z
 _atom_site_occupancy
  O  O1  1  0.241022  0.803011  0.195350  1
  O  O2  1  0.742913  0.197565  0.473547  1
  O  O3  1  0.740659  0.050982  0.195518  1
  O  O4  1  0.242615  0.949333  0.473401  1
  O  O5  1  0.246763  0.674449  0.260019  1
  O  O6  1  0.751212  0.325368  0.408649  1
  O  O7  1  0.034790  0.837134  0.270228  1
  O  O8  1  0.533025  0.823222  0.263116  1
  O  O9  1  0.037832  0.177036  0.406093  1
  O  O10  1  0.539522  0.162360  0.398605  1
  O  O11  1  0.244191  0.485758  0.289805  1
  O  O12  1  0.744820  0.513887  0.379060  1
  O  O13  1  -0.000000  0.619753  0.327566  1
  O  O14  1  0.499483  0.618784  0.326364  1
  O  O15  1  0.965854  0.379811  0.338064  1
  O  O16  1  0.467203  0.381915  0.345706  1
  O  O17  1  0.248129  0.016432  0.395815  1
  O  O18  1  0.747599  0.983471  0.273108  1
  O  O19  1  0.500033  0.864617  0.411057  1
  O  O20  1  -0.000000  0.863049  0.409603  1
  O  O21  1  0.506714  0.138035  0.259911  1
  O  O22  1  0.006487  0.134195  0.257515  1
  O  O23  1  0.744117  0.712731  0.383989  1
  O  O24  1  0.248658  0.287033  0.285104  1
  O  O25  1  0.741255  0.863422  0.337614  1
  O  O26  1  0.243171  0.136580  0.331432  1
  Si  Si27  1  0.263336  0.783060  0.246313  1
  Si  Si28  1  0.767302  0.216959  0.422586  1
  Si  Si29  1  0.247387  0.597406  0.298280  1
  Si  Si30  1  0.732909  0.402267  0.370468  1
  Si  Si31  1  0.247200  0.922182  0.423084  1
  Si  Si32  1  0.750658  0.077798  0.245881  1
  Si  Si33  1  0.747579  0.616734  0.357035  1
  Si  Si34  1  0.232720  0.383002  0.311961  1
  Si  Si35  1  0.746733  0.824986  0.386267  1
  Si  Si36  1  0.250594  0.174863  0.282757  1
  Si  Si37  1  0.763787  0.876655  0.286392  1
  Si  Si38  1  0.267339  0.123249  0.382632  1
  H  H39  1  0.241022  0.803011  0.165551  1
  H  H40  1  0.742913  0.197565  0.503346  1
  H  H41  1  0.740659  0.050982  0.165718  1
  H  H42  1  0.242615  0.949333  0.503200  1
