# generated using pymatgen
data_Si16H2O33
_symmetry_space_group_name_H-M   'P 1'
_cell_length_a   5.08082609
_cell_length_b   34.39831134
_cell_length_c   50.84891582
_cell_angle_alpha   58.10494533
_cell_angle_beta   90.00000000
_cell_angle_gamma   90.00000000
_symmetry_Int_Tables_number   1
_chemical_formula_structural   Si16H2O33
_chemical_formula_sum   'Si64 H8 O132'
_cell_volume   7545.18143618
_cell_formula_units_Z   4
loop_
 _symmetry_equiv_pos_site_id
 _symmetry_equiv_pos_as_xyz
  1  'x, y, z'
loop_
 _atom_site_type_symbol
 _atom_site_label
 _atom_site_symmetry_multiplicity
 _atom_site_fract_x
 _atom_site_fract_y
 _atom_site_fract_z
 _atom_site_occupancy
  O  O1  1  0.005119  0.673715  0.133516  1
  O  O2  1  0.494456  0.173745  0.133517  1
  O  O3  1  0.499882  0.306916  0.225053  1
  O  O4  1  0.499882  0.806916  0.474782  1
  O  O5  1  0.000000  0.306904  0.474787  1
  O  O6  1  0.000000  0.806904  0.225058  1
  O  O7  1  0.500238  0.193123  0.293568  1
  O  O8  1  0.500238  0.693123  0.543298  1
  O  O9  1  -0.000000  0.193125  0.543303  1
  O  O10  1  -0.000000  0.693125  0.293574  1
  O  O11  1  0.251039  0.345707  0.249506  1
  O  O12  1  0.251039  0.845707  0.499235  1
  O  O13  1  0.748380  0.345597  0.499552  1
  O  O14  1  0.748380  0.845597  0.249823  1
  O  O15  1  0.249073  0.154450  0.268757  1
  O  O16  1  0.249073  0.654450  0.518486  1
  O  O17  1  0.750682  0.154308  0.518851  1
  O  O18  1  0.750682  0.654308  0.269122  1
  O  O19  1  0.749259  0.154332  0.269118  1
  O  O20  1  0.749259  0.654332  0.518848  1
  O  O21  1  0.250865  0.154439  0.518518  1
  O  O22  1  0.250865  0.654439  0.268789  1
  O  O23  1  0.751210  0.345605  0.249848  1
  O  O24  1  0.751210  0.845605  0.499577  1
  O  O25  1  0.248546  0.345735  0.499238  1
  O  O26  1  0.248546  0.845735  0.249509  1
  O  O27  1  0.501755  0.272035  0.283309  1
  O  O28  1  0.501755  0.772035  0.533038  1
  O  O29  1  0.997839  0.272043  0.533038  1
  O  O30  1  0.997839  0.772043  0.283309  1
  O  O31  1  0.498377  0.228008  0.235315  1
  O  O32  1  0.498377  0.728007  0.485044  1
  O  O33  1  0.001458  0.227989  0.485054  1
  O  O34  1  0.001458  0.727989  0.235325  1
  O  O35  1  0.750261  0.210399  0.330636  1
  O  O36  1  0.750261  0.710399  0.580366  1
  O  O37  1  0.251468  0.210768  0.579803  1
  O  O38  1  0.251468  0.710768  0.330074  1
  O  O39  1  0.751797  0.289262  0.188537  1
  O  O40  1  0.751797  0.789262  0.438266  1
  O  O41  1  0.250481  0.289604  0.437757  1
  O  O42  1  0.250481  0.789605  0.188027  1
  O  O43  1  0.249439  0.289626  0.188013  1
  O  O44  1  0.249439  0.789625  0.437743  1
  O  O45  1  0.748128  0.289257  0.438269  1
  O  O46  1  0.748128  0.789257  0.188540  1
  O  O47  1  0.247913  0.210766  0.330063  1
  O  O48  1  0.247913  0.710766  0.579792  1
  O  O49  1  0.749120  0.210420  0.580357  1
  O  O50  1  0.749120  0.710420  0.330628  1
  O  O51  1  0.005119  0.173715  0.383245  1
  O  O52  1  0.005119  0.673715  0.632974  1
  O  O53  1  0.494456  0.173745  0.632975  1
  O  O54  1  0.494456  0.673745  0.383246  1
  O  O55  1  0.994711  0.326330  0.135385  1
  O  O56  1  0.994711  0.826330  0.385114  1
  O  O57  1  0.505113  0.326309  0.385121  1
  O  O58  1  0.505113  0.826309  0.135392  1
  O  O59  1  0.225096  0.175073  0.427853  1
  O  O60  1  0.225096  0.675073  0.178124  1
  O  O61  1  0.772641  0.172534  0.175369  1
  O  O62  1  0.772641  0.672534  0.425098  1
  O  O63  1  0.269179  0.327373  0.592836  1
  O  O64  1  0.269179  0.827373  0.343106  1
  O  O65  1  0.726473  0.325003  0.340560  1
  O  O66  1  0.726473  0.825002  0.590289  1
  O  O67  1  0.772706  0.325031  0.590316  1
  O  O68  1  0.772706  0.825030  0.340587  1
  O  O69  1  0.230000  0.327354  0.343154  1
  O  O70  1  0.230000  0.827354  0.592883  1
  O  O71  1  0.728604  0.172590  0.425168  1
  O  O72  1  0.728604  0.672590  0.175439  1
  O  O73  1  0.276129  0.175140  0.178192  1
  O  O74  1  0.276129  0.675140  0.427921  1
  O  O75  1  0.998341  0.100872  0.440767  1
  O  O76  1  0.998341  0.600873  0.191038  1
  O  O77  1  0.501791  0.100892  0.191027  1
  O  O78  1  0.501791  0.600892  0.440756  1
  O  O79  1  0.000000  0.399176  0.577312  1
  O  O80  1  -0.000000  0.899177  0.327583  1
  O  O81  1  0.498864  0.399152  0.327594  1
  O  O82  1  0.498864  0.899152  0.577323  1
  O  O83  1  0.001153  0.413802  0.247952  1
  O  O84  1  0.001153  0.913801  0.497681  1
  O  O85  1  0.498889  0.413816  0.497666  1
  O  O86  1  0.498889  0.913817  0.247937  1
  O  O87  1  -0.000000  0.086242  0.270670  1
  O  O88  1  0.000000  0.586241  0.520399  1
  O  O89  1  0.500514  0.086226  0.520413  1
  O  O90  1  0.500514  0.586226  0.270684  1
  O  O91  1  0.006538  0.334875  0.295950  1
  O  O92  1  0.006538  0.834875  0.545679  1
  O  O93  1  0.493355  0.334889  0.545665  1
  O  O94  1  0.493355  0.834888  0.295936  1
  O  O95  1  0.993509  0.165147  0.222663  1
  O  O96  1  0.993509  0.665148  0.472392  1
  O  O97  1  0.506159  0.165143  0.472408  1
  O  O98  1  0.506159  0.665143  0.222679  1
  O  O99  1  0.001159  0.259166  0.345636  1
  O  O100  1  0.001159  0.759166  0.595365  1
  O  O101  1  0.498252  0.259192  0.595355  1
  O  O102  1  0.498252  0.759192  0.345626  1
  O  O103  1  0.998983  0.240870  0.172972  1
  O  O104  1  0.998983  0.740870  0.422701  1
  O  O105  1  0.500994  0.240853  0.422717  1
  O  O106  1  0.500994  0.740852  0.172988  1
  O  O107  1  -0.000000  0.005313  0.480565  1
  O  O108  1  0.000000  0.505313  0.230836  1
  O  O109  1  0.499688  0.005330  0.230821  1
  O  O110  1  0.499688  0.505330  0.480550  1
  O  O111  1  -0.000000  0.494730  0.537512  1
  O  O112  1  -0.000000  0.994730  0.287783  1
  O  O113  1  0.499548  0.494713  0.287798  1
  O  O114  1  0.499548  0.994713  0.537528  1
  O  O115  1  0.746802  0.441922  0.276823  1
  O  O116  1  0.746802  0.941922  0.526552  1
  O  O117  1  0.248611  0.442087  0.526638  1
  O  O118  1  0.248611  0.942087  0.276909  1
  O  O119  1  0.747016  0.057939  0.241859  1
  O  O120  1  0.747016  0.557939  0.491588  1
  O  O121  1  0.249304  0.058122  0.491319  1
  O  O122  1  0.249304  0.558123  0.241590  1
  O  O123  1  0.247119  0.058177  0.241315  1
  O  O124  1  0.247119  0.558177  0.491044  1
  O  O125  1  0.749394  0.057967  0.491339  1
  O  O126  1  0.749394  0.557967  0.241610  1
  O  O127  1  0.246882  0.442047  0.277245  1
  O  O128  1  0.246882  0.942047  0.526974  1
  O  O129  1  0.748701  0.441907  0.526861  1
  O  O130  1  0.748701  0.941906  0.277132  1
  O  O131  1  0.994711  0.326330  0.634843  1
  O  O132  1  0.505113  0.826309  0.634850  1
  Si  Si133  1  0.501456  0.318177  0.251179  1
  Si  Si134  1  0.501456  0.818178  0.500908  1
  Si  Si135  1  0.998261  0.318181  0.500905  1
  Si  Si136  1  0.998261  0.818181  0.251176  1
  Si  Si137  1  0.498818  0.181862  0.267442  1
  Si  Si138  1  0.498818  0.681863  0.517171  1
  Si  Si139  1  0.001026  0.181850  0.517184  1
  Si  Si140  1  0.001026  0.681850  0.267455  1
  Si  Si141  1  0.500626  0.220652  0.310154  1
  Si  Si142  1  0.500626  0.720652  0.559883  1
  Si  Si143  1  0.998811  0.220660  0.559884  1
  Si  Si144  1  0.998811  0.720660  0.310155  1
  Si  Si145  1  0.499255  0.279386  0.208468  1
  Si  Si146  1  0.499255  0.779386  0.458197  1
  Si  Si147  1  -0.000000  0.279369  0.458207  1
  Si  Si148  1  -0.000000  0.779370  0.208478  1
  Si  Si149  1  0.990262  0.154989  0.418919  1
  Si  Si150  1  0.990262  0.654989  0.169190  1
  Si  Si151  1  0.510304  0.155010  0.169186  1
  Si  Si152  1  0.510304  0.655010  0.418915  1
  Si  Si153  1  0.008334  0.345062  0.599164  1
  Si  Si154  1  0.008334  0.845061  0.349435  1
  Si  Si155  1  0.491099  0.345036  0.349445  1
  Si  Si156  1  0.491099  0.845036  0.599174  1
  Si  Si157  1  0.001840  0.360796  0.259837  1
  Si  Si158  1  0.001840  0.860796  0.509566  1
  Si  Si159  1  0.497921  0.360810  0.509552  1
  Si  Si160  1  0.497921  0.860811  0.259823  1
  Si  Si161  1  0.998461  0.139252  0.258777  1
  Si  Si162  1  0.998461  0.639251  0.508506  1
  Si  Si163  1  0.501392  0.139235  0.508522  1
  Si  Si164  1  0.501392  0.639235  0.258793  1
  Si  Si165  1  -0.000000  0.212106  0.347747  1
  Si  Si166  1  -0.000000  0.712106  0.597476  1
  Si  Si167  1  0.498602  0.212125  0.597474  1
  Si  Si168  1  0.498602  0.712126  0.347745  1
  Si  Si169  1  0.000000  0.287920  0.170878  1
  Si  Si170  1  0.000000  0.787920  0.420607  1
  Si  Si171  1  0.500852  0.287906  0.420616  1
  Si  Si172  1  0.500852  0.787906  0.170887  1
  Si  Si173  1  0.990974  0.311907  0.331708  1
  Si  Si174  1  0.990974  0.811907  0.581437  1
  Si  Si175  1  0.508438  0.311932  0.581424  1
  Si  Si176  1  0.508438  0.811932  0.331695  1
  Si  Si177  1  0.010431  0.188128  0.186907  1
  Si  Si178  1  0.010431  0.688128  0.436636  1
  Si  Si179  1  0.490132  0.188111  0.436650  1
  Si  Si180  1  0.490132  0.688111  0.186921  1
  Si  Si181  1  0.998439  0.451932  0.256490  1
  Si  Si182  1  0.998439  0.951932  0.506219  1
  Si  Si183  1  0.499255  0.451947  0.506205  1
  Si  Si184  1  0.499255  0.951947  0.256476  1
  Si  Si185  1  0.998714  0.048112  0.262129  1
  Si  Si186  1  0.998714  0.548111  0.511858  1
  Si  Si187  1  0.499455  0.048095  0.511874  1
  Si  Si188  1  0.499455  0.548095  0.262145  1
  Si  Si189  1  -0.000000  0.055929  0.474260  1
  Si  Si190  1  0.000000  0.555929  0.224531  1
  Si  Si191  1  0.498760  0.055946  0.224516  1
  Si  Si192  1  0.498760  0.555946  0.474245  1
  Si  Si193  1  -0.000000  0.444115  0.543817  1
  Si  Si194  1  -0.000000  0.944115  0.294088  1
  Si  Si195  1  0.498467  0.444099  0.294102  1
  Si  Si196  1  0.498467  0.944098  0.543831  1
  H  H197  1  0.005119  0.673715  0.115817  1
  H  H198  1  0.494456  0.173745  0.115817  1
  H  H199  1  0.005119  0.673715  0.650674  1
  H  H200  1  0.494456  0.173745  0.650674  1
  H  H201  1  0.994711  0.326330  0.117685  1
  H  H202  1  0.505113  0.826309  0.117692  1
  H  H203  1  0.994711  0.326330  0.652542  1
  H  H204  1  0.505113  0.826309  0.652549  1
