# generated using pymatgen
data_Si11H2O23
_symmetry_space_group_name_H-M   'P 1'
_cell_length_a   17.04919116
_cell_length_b   17.04860003
_cell_length_c   39.43552914
_cell_angle_alpha   90.00000000
_cell_angle_beta   90.00000000
_cell_angle_gamma   120.00000000
_symmetry_Int_Tables_number   1
_chemical_formula_structural   Si11H2O23
_chemical_formula_sum   'Si66 H12 O138'
_cell_volume   9926.83507274
_cell_formula_units_Z   6
loop_
 _symmetry_equiv_pos_site_id
 _symmetry_equiv_pos_as_xyz
  1  'x, y, z'
loop_
 _atom_site_type_symbol
 _atom_site_label
 _atom_site_symmetry_multiplicity
 _atom_site_fract_x
 _atom_site_fract_y
 _atom_site_fract_z
 _atom_site_occupancy
  O  O1  1  0.084211  0.395051  0.316104  1
  O  O2  1  0.310023  0.395109  0.316080  1
  O  O3  1  0.252654  0.253133  0.149637  1
  O  O4  1  0.252695  0.253135  0.277227  1
  O  O5  1  0.235367  0.235992  0.341239  1
  O  O6  1  0.085855  0.172685  0.167909  1
  O  O7  1  0.172328  0.086347  0.167888  1
  O  O8  1  0.172436  0.086346  0.258967  1
  O  O9  1  0.085895  0.172630  0.258977  1
  O  O10  1  0.202203  0.202624  0.213433  1
  O  O11  1  0.174396  0.087353  0.373135  1
  O  O12  1  0.252204  0.747144  0.328788  1
  O  O13  1  0.252302  0.505499  0.328794  1
  O  O14  1  0.310076  0.915276  0.316073  1
  O  O15  1  0.084103  0.689461  0.316116  1
  O  O16  1  0.143482  0.571926  0.325312  1
  O  O17  1  0.252679  0.000000  0.149611  1
  O  O18  1  0.252826  0.000000  0.277197  1
  O  O19  1  0.235585  0.000000  0.341208  1
  O  O20  1  0.085911  0.913519  0.167889  1
  O  O21  1  0.086025  0.913513  0.258968  1
  O  O22  1  0.202257  0.000000  0.213411  1
  O  O23  1  0.086983  0.912517  0.373141  1
  O  O24  1  0.504988  0.252700  0.328792  1
  O  O25  1  0.394560  0.310372  0.316121  1
  O  O26  1  0.394736  0.084570  0.316076  1
  O  O27  1  0.571472  0.427917  0.325316  1
  O  O28  1  0.571617  0.144069  0.325310  1
  O  O29  1  0.494086  0.747160  0.328804  1
  O  O30  1  0.604491  0.689472  0.316123  1
  O  O31  1  0.604372  0.915295  0.316127  1
  O  O32  1  0.427568  0.571957  0.325313  1
  O  O33  1  0.427465  0.855787  0.325306  1
  O  O34  1  0.746864  0.252713  0.328809  1
  O  O35  1  0.746721  0.494355  0.328798  1
  O  O36  1  0.689030  0.084580  0.316130  1
  O  O37  1  0.914955  0.310403  0.316125  1
  O  O38  1  0.855545  0.427916  0.325317  1
  O  O39  1  0.000000  0.253146  0.149669  1
  O  O40  1  0.913009  0.086339  0.167914  1
  O  O41  1  0.913057  0.086322  0.258996  1
  O  O42  1  -0.000000  0.202594  0.213458  1
  O  O43  1  0.000000  0.253095  0.277254  1
  O  O44  1  -0.000000  0.235912  0.341270  1
  O  O45  1  0.914830  0.604762  0.316085  1
  O  O46  1  0.689068  0.604792  0.316105  1
  O  O47  1  0.746315  0.746712  0.149668  1
  O  O48  1  0.746216  0.000000  0.149665  1
  O  O49  1  0.746417  0.746751  0.277254  1
  O  O50  1  0.763640  0.763934  0.341270  1
  O  O51  1  0.826606  0.913518  0.167914  1
  O  O52  1  0.913099  0.827165  0.167908  1
  O  O53  1  0.913201  0.827235  0.258976  1
  O  O54  1  0.826652  0.913524  0.258997  1
  O  O55  1  0.796834  0.797260  0.213457  1
  O  O56  1  0.746277  0.000000  0.277260  1
  O  O57  1  0.000000  0.797237  0.213433  1
  O  O58  1  0.000000  0.746723  0.277227  1
  O  O59  1  0.763512  0.000000  0.341275  1
  O  O60  1  0.796732  0.000000  0.213460  1
  O  O61  1  -0.000000  0.746734  0.149638  1
  O  O62  1  0.000000  0.763884  0.341239  1
  O  O63  1  0.084187  0.395057  0.430333  1
  O  O64  1  0.309959  0.395012  0.430302  1
  O  O65  1  0.134068  0.470111  0.373212  1
  O  O66  1  0.252654  0.253133  0.469188  1
  O  O67  1  0.252695  0.253135  0.596777  1
  O  O68  1  0.235531  0.235821  0.405175  1
  O  O69  1  0.085855  0.172685  0.487459  1
  O  O70  1  0.172328  0.086347  0.487438  1
  O  O71  1  0.172436  0.086346  0.578517  1
  O  O72  1  0.085895  0.172630  0.578528  1
  O  O73  1  0.202203  0.202624  0.532983  1
  O  O74  1  0.086889  0.174671  0.373274  1
  O  O75  1  0.252239  0.747177  0.417630  1
  O  O76  1  0.252284  0.505430  0.417624  1
  O  O77  1  0.309963  0.915288  0.430299  1
  O  O78  1  0.084134  0.689414  0.430340  1
  O  O79  1  0.134023  0.664279  0.373220  1
  O  O80  1  0.143550  0.571935  0.421119  1
  O  O81  1  0.252679  0.000000  0.469161  1
  O  O82  1  0.252826  0.000000  0.596747  1
  O  O83  1  0.235474  0.000000  0.405146  1
  O  O84  1  0.085911  0.913519  0.487439  1
  O  O85  1  0.086025  0.913513  0.578518  1
  O  O86  1  0.202257  0.000000  0.532961  1
  O  O87  1  0.504989  0.252668  0.417635  1
  O  O88  1  0.394639  0.310425  0.430342  1
  O  O89  1  0.394616  0.084555  0.430305  1
  O  O90  1  0.469666  0.335560  0.373224  1
  O  O91  1  0.663907  0.134543  0.373230  1
  O  O92  1  0.335165  0.470121  0.373201  1
  O  O93  1  0.469726  0.134492  0.373204  1
  O  O94  1  0.571531  0.427909  0.421123  1
  O  O95  1  0.571534  0.143992  0.421124  1
  O  O96  1  0.494011  0.747147  0.417650  1
  O  O97  1  0.604402  0.689433  0.430348  1
  O  O98  1  0.604336  0.915284  0.430332  1
  O  O99  1  0.529387  0.664287  0.373231  1
  O  O100  1  0.335144  0.865354  0.373199  1
  O  O101  1  0.529285  0.865325  0.373226  1
  O  O102  1  0.663867  0.529738  0.373216  1
  O  O103  1  0.427517  0.571909  0.421119  1
  O  O104  1  0.427458  0.855867  0.421120  1
  O  O105  1  0.746805  0.252720  0.417654  1
  O  O106  1  0.746772  0.494430  0.417628  1
  O  O107  1  0.689001  0.084582  0.430334  1
  O  O108  1  0.914913  0.310450  0.430353  1
  O  O109  1  0.865039  0.335588  0.373234  1
  O  O110  1  0.855534  0.427960  0.421123  1
  O  O111  1  0.000000  0.235888  0.405208  1
  O  O112  1  0.000000  0.253146  0.469219  1
  O  O113  1  0.913009  0.086339  0.487464  1
  O  O114  1  0.913057  0.086322  0.578546  1
  O  O115  1  -0.000000  0.202594  0.533008  1
  O  O116  1  0.912067  0.087345  0.373233  1
  O  O117  1  0.000000  0.253095  0.596805  1
  O  O118  1  0.914868  0.604856  0.430305  1
  O  O119  1  0.689035  0.604791  0.430336  1
  O  O120  1  0.864962  0.529744  0.373205  1
  O  O121  1  0.746315  0.746712  0.469218  1
  O  O122  1  0.746216  0.000000  0.469215  1
  O  O123  1  0.746417  0.746751  0.596804  1
  O  O124  1  0.763555  0.763956  0.405207  1
  O  O125  1  0.826606  0.913518  0.487465  1
  O  O126  1  0.913099  0.827165  0.487458  1
  O  O127  1  0.913201  0.827235  0.578526  1
  O  O128  1  0.826652  0.913524  0.578547  1
  O  O129  1  0.796834  0.797260  0.533007  1
  O  O130  1  0.000000  0.764041  0.405175  1
  O  O131  1  0.824649  0.912500  0.373234  1
  O  O132  1  0.912158  0.825186  0.373270  1
  O  O133  1  0.746277  0.000000  0.596810  1
  O  O134  1  0.000000  0.797237  0.532984  1
  O  O135  1  -0.000000  0.746723  0.596778  1
  O  O136  1  0.763513  0.000000  0.405209  1
  O  O137  1  0.796732  0.000000  0.533010  1
  O  O138  1  -0.000000  0.746734  0.469188  1
  Si  Si139  1  0.180647  0.181024  0.252388  1
  Si  Si140  1  0.297407  0.297886  0.312092  1
  Si  Si141  1  0.332759  0.486283  0.334029  1
  Si  Si142  1  0.152624  0.486256  0.334038  1
  Si  Si143  1  0.180597  0.181044  0.174480  1
  Si  Si144  1  0.297553  0.000000  0.312063  1
  Si  Si145  1  0.152541  0.666700  0.334044  1
  Si  Si146  1  0.182101  0.000000  0.373158  1
  Si  Si147  1  0.332717  0.846780  0.334027  1
  Si  Si148  1  0.180723  0.000000  0.252370  1
  Si  Si149  1  0.180629  0.000000  0.174462  1
  Si  Si150  1  0.485869  0.153064  0.334031  1
  Si  Si151  1  0.485762  0.333142  0.334047  1
  Si  Si152  1  0.666354  0.153081  0.334055  1
  Si  Si153  1  0.513295  0.666708  0.334053  1
  Si  Si154  1  0.513198  0.846790  0.334051  1
  Si  Si155  1  0.666278  0.513589  0.334042  1
  Si  Si156  1  0.846522  0.333164  0.334057  1
  Si  Si157  1  0.000000  0.181019  0.174502  1
  Si  Si158  1  -0.000000  0.180997  0.252409  1
  Si  Si159  1  -0.000000  0.297845  0.312115  1
  Si  Si160  1  0.818446  0.818853  0.252409  1
  Si  Si161  1  0.846398  0.513586  0.334033  1
  Si  Si162  1  0.701559  0.000000  0.312127  1
  Si  Si163  1  0.701670  0.702008  0.312114  1
  Si  Si164  1  0.818377  0.818833  0.174501  1
  Si  Si165  1  0.000000  0.818839  0.252388  1
  Si  Si166  1  -0.000000  0.818819  0.174480  1
  Si  Si167  1  0.000000  0.701972  0.312092  1
  Si  Si168  1  0.818334  0.000000  0.252412  1
  Si  Si169  1  0.818299  0.000000  0.174504  1
  Si  Si170  1  0.182042  0.182451  0.373206  1
  Si  Si171  1  0.180647  0.181024  0.571938  1
  Si  Si172  1  0.152622  0.486232  0.412387  1
  Si  Si173  1  0.180597  0.181044  0.494030  1
  Si  Si174  1  0.297430  0.297836  0.434325  1
  Si  Si175  1  0.332738  0.486222  0.412377  1
  Si  Si176  1  0.152586  0.666700  0.412393  1
  Si  Si177  1  0.180723  0.000000  0.571920  1
  Si  Si178  1  0.297416  0.000000  0.434300  1
  Si  Si179  1  0.180629  0.000000  0.494012  1
  Si  Si180  1  0.332707  0.846830  0.412376  1
  Si  Si181  1  0.485808  0.333144  0.412397  1
  Si  Si182  1  0.485812  0.153016  0.412381  1
  Si  Si183  1  0.666316  0.153073  0.412404  1
  Si  Si184  1  0.513228  0.666694  0.412403  1
  Si  Si185  1  0.513165  0.846796  0.412401  1
  Si  Si186  1  0.666300  0.513616  0.412390  1
  Si  Si187  1  0.000000  0.181019  0.494052  1
  Si  Si188  1  -0.000000  0.180997  0.571959  1
  Si  Si189  1  0.846470  0.333177  0.412407  1
  Si  Si190  1  0.000000  0.182446  0.373245  1
  Si  Si191  1  -0.000000  0.297880  0.434354  1
  Si  Si192  1  0.817001  0.817400  0.373244  1
  Si  Si193  1  0.000000  0.817417  0.373207  1
  Si  Si194  1  0.818446  0.818853  0.571959  1
  Si  Si195  1  -0.000000  0.702022  0.434326  1
  Si  Si196  1  0.846436  0.513646  0.412382  1
  Si  Si197  1  0.701587  0.701980  0.434353  1
  Si  Si198  1  0.701517  0.000000  0.434343  1
  Si  Si199  1  0.818377  0.818833  0.494051  1
  Si  Si200  1  0.000000  0.818839  0.571938  1
  Si  Si201  1  0.000000  0.818819  0.494030  1
  Si  Si202  1  0.816949  0.000000  0.373241  1
  Si  Si203  1  0.818334  0.000000  0.571962  1
  Si  Si204  1  0.818299  0.000000  0.494054  1
  H  H205  1  0.252654  0.253133  0.126815  1
  H  H206  1  0.252679  0.000000  0.126789  1
  H  H207  1  0.000000  0.253146  0.126847  1
  H  H208  1  0.746315  0.746712  0.126846  1
  H  H209  1  0.746216  0.000000  0.126843  1
  H  H210  1  -0.000000  0.746734  0.126816  1
  H  H211  1  0.252695  0.253135  0.619599  1
  H  H212  1  0.252826  0.000000  0.619569  1
  H  H213  1  0.000000  0.253095  0.619627  1
  H  H214  1  0.746417  0.746751  0.619626  1
  H  H215  1  0.746277  0.000000  0.619632  1
  H  H216  1  -0.000000  0.746723  0.619600  1
