# generated using pymatgen
data_Si69(H5O37)4
_symmetry_space_group_name_H-M   'P 1'
_cell_length_a   25.24803673
_cell_length_b   12.87887348
_cell_length_c   36.90428824
_cell_angle_alpha   90.00000000
_cell_angle_beta   90.00000000
_cell_angle_gamma   90.00000000
_symmetry_Int_Tables_number   1
_chemical_formula_structural   Si69(H5O37)4
_chemical_formula_sum   'Si69 H20 O148'
_cell_volume   12000.0297769
_cell_formula_units_Z   1
loop_
 _symmetry_equiv_pos_site_id
 _symmetry_equiv_pos_as_xyz
  1  'x, y, z'
loop_
 _atom_site_type_symbol
 _atom_site_label
 _atom_site_symmetry_multiplicity
 _atom_site_fract_x
 _atom_site_fract_y
 _atom_site_fract_z
 _atom_site_occupancy
  O  O1  1  0.836090  0.593037  0.295968  1
  O  O2  1  0.926214  0.632451  0.271076  1
  O  O3  1  0.844437  0.612967  0.228221  1
  O  O4  1  0.854193  0.771281  0.271758  1
  O  O5  1  0.800128  0.942378  0.271436  1
  O  O6  1  0.699821  0.942348  0.271447  1
  O  O7  1  0.899666  0.946731  0.282547  1
  O  O8  1  0.000000  -0.000000  0.279475  1
  O  O9  1  0.925662  0.139798  0.269666  1
  O  O10  1  0.974330  0.312862  0.271922  1
  O  O11  1  0.881370  0.299053  0.296091  1
  O  O12  1  0.892907  0.289484  0.228154  1
  O  O13  1  0.749963  0.069621  0.228232  1
  O  O14  1  0.749971  0.094964  0.296018  1
  O  O15  1  -0.000000  0.499967  0.283902  1
  O  O16  1  0.663863  0.593058  0.295969  1
  O  O17  1  0.573731  0.632400  0.271074  1
  O  O18  1  0.655514  0.612971  0.228222  1
  O  O19  1  0.645733  0.771279  0.271760  1
  O  O20  1  0.600282  0.946744  0.282544  1
  O  O21  1  0.425663  0.860101  0.269670  1
  O  O22  1  0.474346  0.687056  0.271919  1
  O  O23  1  0.381392  0.700824  0.296098  1
  O  O24  1  0.392916  0.710412  0.228156  1
  O  O25  1  0.359548  0.693771  0.159874  1
  O  O26  1  0.499975  0.000000  0.279476  1
  O  O27  1  0.336080  0.406864  0.295967  1
  O  O28  1  0.426203  0.367477  0.271072  1
  O  O29  1  0.344424  0.386932  0.228221  1
  O  O30  1  0.354195  0.228622  0.271763  1
  O  O31  1  0.399666  0.053166  0.282545  1
  O  O32  1  0.574288  0.139807  0.269669  1
  O  O33  1  0.525588  0.312837  0.271913  1
  O  O34  1  0.618539  0.299106  0.296095  1
  O  O35  1  0.607026  0.289497  0.228152  1
  O  O36  1  0.499965  0.499942  0.283899  1
  O  O37  1  0.074289  0.860114  0.269671  1
  O  O38  1  0.025602  0.687070  0.271920  1
  O  O39  1  0.118554  0.700837  0.296100  1
  O  O40  1  0.107033  0.710429  0.228157  1
  O  O41  1  0.140400  0.693784  0.159876  1
  O  O42  1  0.175152  0.573307  0.208371  1
  O  O43  1  0.324788  0.573304  0.208371  1
  O  O44  1  0.200367  0.764659  0.208801  1
  O  O45  1  0.299588  0.764666  0.208801  1
  O  O46  1  0.249970  0.930293  0.228238  1
  O  O47  1  0.249961  0.904956  0.296023  1
  O  O48  1  0.249975  0.862541  0.159874  1
  O  O49  1  0.163841  0.406888  0.295969  1
  O  O50  1  0.073718  0.367488  0.271073  1
  O  O51  1  0.155502  0.386949  0.228223  1
  O  O52  1  0.145738  0.228648  0.271765  1
  O  O53  1  0.199821  0.057570  0.271446  1
  O  O54  1  0.300128  0.057534  0.271449  1
  O  O55  1  0.100282  0.053182  0.282545  1
  O  O56  1  0.249967  0.443451  0.208846  1
  O  O57  1  0.179886  0.434989  0.159874  1
  O  O58  1  0.320049  0.434989  0.159873  1
  O  O59  1  0.836100  0.593038  0.364697  1
  O  O60  1  0.926214  0.632475  0.389593  1
  O  O61  1  0.844434  0.612987  0.432442  1
  O  O62  1  0.854182  0.771297  0.388898  1
  O  O63  1  0.800128  0.942412  0.389208  1
  O  O64  1  0.699822  0.942333  0.389219  1
  O  O65  1  0.839201  0.872344  0.330327  1
  O  O66  1  0.899664  0.946738  0.378121  1
  O  O67  1  0.749976  0.562682  0.330338  1
  O  O68  1  0.978180  0.636242  0.330335  1
  O  O69  1  -0.000000  -0.000000  0.381188  1
  O  O70  1  0.925659  0.139807  0.390993  1
  O  O71  1  0.974336  0.312860  0.388745  1
  O  O72  1  0.881382  0.299070  0.364567  1
  O  O73  1  0.892905  0.289490  0.432506  1
  O  O74  1  0.822777  0.425461  0.330332  1
  O  O75  1  0.677161  0.425479  0.330331  1
  O  O76  1  0.800849  0.232349  0.330338  1
  O  O77  1  0.699076  0.232367  0.330311  1
  O  O78  1  0.749962  0.069634  0.432421  1
  O  O79  1  0.749935  0.094970  0.364637  1
  O  O80  1  0.941064  0.057288  0.330331  1
  O  O81  1  -0.000000  0.499968  0.376769  1
  O  O82  1  0.663853  0.593046  0.364698  1
  O  O83  1  0.573724  0.632396  0.389594  1
  O  O84  1  0.655509  0.612975  0.432445  1
  O  O85  1  0.645725  0.771275  0.388903  1
  O  O86  1  0.600282  0.946740  0.378121  1
  O  O87  1  0.425664  0.860104  0.390997  1
  O  O88  1  0.474339  0.687050  0.388742  1
  O  O89  1  0.381377  0.700842  0.364572  1
  O  O90  1  0.392913  0.710415  0.432509  1
  O  O91  1  0.392916  0.710412  0.569074  1
  O  O92  1  0.359548  0.693771  0.500792  1
  O  O93  1  0.660730  0.872322  0.330332  1
  O  O94  1  0.521766  0.636203  0.330332  1
  O  O95  1  0.499975  0.000000  0.381190  1
  O  O96  1  0.441070  0.942617  0.330333  1
  O  O97  1  0.336084  0.406860  0.364697  1
  O  O98  1  0.426207  0.367455  0.389591  1
  O  O99  1  0.344428  0.386935  0.432443  1
  O  O100  1  0.344424  0.386932  0.569139  1
  O  O101  1  0.354191  0.228619  0.388904  1
  O  O102  1  0.399663  0.053165  0.378121  1
  O  O103  1  0.574288  0.139804  0.390996  1
  O  O104  1  0.525599  0.312843  0.388741  1
  O  O105  1  0.618561  0.299074  0.364569  1
  O  O106  1  0.607029  0.289507  0.432506  1
  O  O107  1  0.478169  0.363667  0.330330  1
  O  O108  1  0.558878  0.057300  0.330332  1
  O  O109  1  0.339212  0.127565  0.330333  1
  O  O110  1  0.499958  0.499939  0.376763  1
  O  O111  1  0.074284  0.860123  0.390999  1
  O  O112  1  0.025603  0.687069  0.388748  1
  O  O113  1  0.118559  0.700854  0.364574  1
  O  O114  1  0.107033  0.710435  0.432512  1
  O  O115  1  0.107033  0.710429  0.569075  1
  O  O116  1  0.140400  0.693784  0.500794  1
  O  O117  1  0.175148  0.573307  0.452297  1
  O  O118  1  0.324792  0.573303  0.452295  1
  O  O119  1  0.175152  0.573307  0.549289  1
  O  O120  1  0.324788  0.573304  0.549288  1
  O  O121  1  0.200366  0.764655  0.451868  1
  O  O122  1  0.299586  0.764660  0.451868  1
  O  O123  1  0.200367  0.764659  0.549719  1
  O  O124  1  0.299588  0.764666  0.549718  1
  O  O125  1  0.177161  0.574449  0.330339  1
  O  O126  1  0.322777  0.574439  0.330334  1
  O  O127  1  0.199085  0.767555  0.330331  1
  O  O128  1  0.300858  0.767556  0.330323  1
  O  O129  1  0.249971  0.930282  0.432427  1
  O  O130  1  0.249970  0.930293  0.569156  1
  O  O131  1  0.249973  0.904935  0.364643  1
  O  O132  1  0.058879  0.942624  0.330333  1
  O  O133  1  0.249975  0.862541  0.500792  1
  O  O134  1  0.163846  0.406872  0.364699  1
  O  O135  1  0.073723  0.367484  0.389593  1
  O  O136  1  0.155504  0.386947  0.432445  1
  O  O137  1  0.155502  0.386949  0.569140  1
  O  O138  1  0.145744  0.228636  0.388905  1
  O  O139  1  0.199818  0.057541  0.389217  1
  O  O140  1  0.300125  0.057530  0.389217  1
  O  O141  1  0.160735  0.127590  0.330333  1
  O  O142  1  0.100280  0.053188  0.378120  1
  O  O143  1  0.249965  0.437233  0.330333  1
  O  O144  1  0.021757  0.363701  0.330334  1
  O  O145  1  0.249968  0.443459  0.451818  1
  O  O146  1  0.249967  0.443451  0.549764  1
  O  O147  1  0.179886  0.434989  0.500792  1
  O  O148  1  0.320049  0.434989  0.500791  1
  Si  Si149  1  0.865754  0.653548  0.265640  1
  Si  Si150  1  0.847739  0.882062  0.288371  1
  Si  Si151  1  0.981981  0.614958  0.288523  1
  Si  Si152  1  0.919189  0.260396  0.265428  1
  Si  Si153  1  0.941630  0.035069  0.288545  1
  Si  Si154  1  0.749968  0.011162  0.265660  1
  Si  Si155  1  0.441633  0.964833  0.288547  1
  Si  Si156  1  0.634187  0.653543  0.265639  1
  Si  Si157  1  0.652200  0.882053  0.288376  1
  Si  Si158  1  0.419198  0.739501  0.265431  1
  Si  Si159  1  0.345953  0.686177  0.201478  1
  Si  Si160  1  0.517961  0.614925  0.288520  1
  Si  Si161  1  0.365745  0.346355  0.265639  1
  Si  Si162  1  0.347743  0.117844  0.288377  1
  Si  Si163  1  0.580741  0.260408  0.265426  1
  Si  Si164  1  0.481972  0.384957  0.288518  1
  Si  Si165  1  0.558317  0.035077  0.288547  1
  Si  Si166  1  0.080750  0.739515  0.265431  1
  Si  Si167  1  0.153994  0.686185  0.201479  1
  Si  Si168  1  0.058318  0.964846  0.288547  1
  Si  Si169  1  0.249976  0.835062  0.201538  1
  Si  Si170  1  0.249969  0.988756  0.265665  1
  Si  Si171  1  0.310999  0.456043  0.201530  1
  Si  Si172  1  0.188935  0.456044  0.201531  1
  Si  Si173  1  0.134177  0.346377  0.265641  1
  Si  Si174  1  0.152202  0.117869  0.288377  1
  Si  Si175  1  0.017951  0.384979  0.288522  1
  Si  Si176  1  0.865753  0.653572  0.395024  1
  Si  Si177  1  0.847737  0.882076  0.372283  1
  Si  Si178  1  0.811049  0.544007  0.330334  1
  Si  Si179  1  0.688901  0.544019  0.330334  1
  Si  Si180  1  0.981980  0.614959  0.372147  1
  Si  Si181  1  0.919191  0.260404  0.395233  1
  Si  Si182  1  0.846238  0.313865  0.330331  1
  Si  Si183  1  0.749959  0.164499  0.330326  1
  Si  Si184  1  0.941629  0.035074  0.372117  1
  Si  Si185  1  0.749963  0.011171  0.394995  1
  Si  Si186  1  0.441632  0.964836  0.372119  1
  Si  Si187  1  0.634180  0.653540  0.395027  1
  Si  Si188  1  0.652199  0.882047  0.372288  1
  Si  Si189  1  0.419195  0.739506  0.395234  1
  Si  Si190  1  0.345954  0.686176  0.459189  1
  Si  Si191  1  0.345953  0.686177  0.542395  1
  Si  Si192  1  0.346245  0.686031  0.330332  1
  Si  Si193  1  0.517956  0.614921  0.372144  1
  Si  Si194  1  0.365748  0.346350  0.395026  1
  Si  Si195  1  0.347740  0.117841  0.372289  1
  Si  Si196  1  0.580748  0.260405  0.395233  1
  Si  Si197  1  0.653690  0.313891  0.330327  1
  Si  Si198  1  0.481974  0.384950  0.372142  1
  Si  Si199  1  0.558317  0.035074  0.372118  1
  Si  Si200  1  0.080747  0.739524  0.395239  1
  Si  Si201  1  0.153992  0.686185  0.459190  1
  Si  Si202  1  0.153994  0.686185  0.542397  1
  Si  Si203  1  0.153695  0.686041  0.330336  1
  Si  Si204  1  0.249971  0.835414  0.330330  1
  Si  Si205  1  0.058316  0.964851  0.372119  1
  Si  Si206  1  0.249975  0.835057  0.459130  1
  Si  Si207  1  0.249976  0.835062  0.542455  1
  Si  Si208  1  0.249970  0.988739  0.394999  1
  Si  Si209  1  0.310999  0.456043  0.542448  1
  Si  Si210  1  0.188935  0.456044  0.542449  1
  Si  Si211  1  0.134181  0.346366  0.395028  1
  Si  Si212  1  0.152204  0.117861  0.372289  1
  Si  Si213  1  0.188891  0.455905  0.330335  1
  Si  Si214  1  0.311039  0.455897  0.330333  1
  Si  Si215  1  0.017955  0.384982  0.372146  1
  Si  Si216  1  0.188936  0.456046  0.459135  1
  Si  Si217  1  0.311000  0.456043  0.459134  1
  H  H218  1  0.844437  0.612967  0.203833  1
  H  H219  1  0.892907  0.289484  0.203767  1
  H  H220  1  0.749963  0.069621  0.203845  1
  H  H221  1  0.655514  0.612971  0.203835  1
  H  H222  1  0.359548  0.693771  0.135487  1
  H  H223  1  0.607026  0.289497  0.203765  1
  H  H224  1  0.140400  0.693784  0.135488  1
  H  H225  1  0.249975  0.862541  0.135487  1
  H  H226  1  0.179886  0.434989  0.135487  1
  H  H227  1  0.320049  0.434989  0.135486  1
  H  H228  1  0.844434  0.612987  0.456830  1
  H  H229  1  0.892905  0.289490  0.456893  1
  H  H230  1  0.749962  0.069634  0.456809  1
  H  H231  1  0.655509  0.612975  0.456832  1
  H  H232  1  0.392916  0.710412  0.593461  1
  H  H233  1  0.344424  0.386932  0.593526  1
  H  H234  1  0.607029  0.289507  0.456893  1
  H  H235  1  0.107033  0.710429  0.593463  1
  H  H236  1  0.249970  0.930293  0.593543  1
  H  H237  1  0.155502  0.386949  0.593528  1
