# generated using pymatgen
data_Si8H2O17
_symmetry_space_group_name_H-M   'P 1'
_cell_length_a   13.15239484
_cell_length_b   13.70814893
_cell_length_c   33.40649406
_cell_angle_alpha   90.00000000
_cell_angle_beta   90.00000000
_cell_angle_gamma   102.90500000
_symmetry_Int_Tables_number   1
_chemical_formula_structural   Si8H2O17
_chemical_formula_sum   'Si32 H8 O68'
_cell_volume   5870.89213819
_cell_formula_units_Z   4
loop_
 _symmetry_equiv_pos_site_id
 _symmetry_equiv_pos_as_xyz
  1  'x, y, z'
loop_
 _atom_site_type_symbol
 _atom_site_label
 _atom_site_symmetry_multiplicity
 _atom_site_fract_x
 _atom_site_fract_y
 _atom_site_fract_z
 _atom_site_occupancy
  O  O1  1  0.340886  0.533660  0.520826  1
  O  O2  1  0.244775  0.818953  0.460025  1
  O  O3  1  0.362889  0.807111  0.524045  1
  O  O4  1  0.302872  0.660725  0.475072  1
  O  O5  1  0.840883  0.033662  0.504976  1
  O  O6  1  0.862886  0.307108  0.501759  1
  O  O7  1  0.204645  0.484105  0.460916  1
  O  O8  1  0.341829  0.958989  0.327972  1
  O  O9  1  0.096909  0.819498  0.246562  1
  O  O10  1  0.104284  0.726238  0.411162  1
  O  O11  1  0.246870  0.865045  0.387133  1
  O  O12  1  0.564758  0.526217  0.399149  1
  O  O13  1  0.069062  0.535955  0.414620  1
  O  O14  1  0.104277  0.911336  0.430063  1
  O  O15  1  0.431273  0.842947  0.376708  1
  O  O16  1  0.606821  0.878236  0.413596  1
  O  O17  1  0.228500  0.980400  0.268063  1
  O  O18  1  0.500265  0.692567  0.403071  1
  O  O19  1  0.904138  0.932529  0.313138  1
  O  O20  1  0.285414  0.768522  0.328696  1
  O  O21  1  0.163349  0.675159  0.275590  1
  O  O22  1  0.982382  0.633581  0.246799  1
  O  O23  1  0.402959  0.544964  0.445200  1
  O  O24  1  0.955552  0.912178  0.383901  1
  O  O25  1  0.747732  0.588591  0.366755  1
  O  O26  1  0.768859  0.910398  0.370412  1
  O  O27  1  0.294918  0.589697  0.312378  1
  O  O28  1  0.858827  0.610307  0.304601  1
  O  O29  1  0.434343  0.807673  0.450799  1
  O  O30  1  0.137363  0.629851  0.350230  1
  O  O31  1  0.950692  0.627736  0.371623  1
  O  O32  1  0.852457  0.760990  0.347817  1
  O  O33  1  0.038605  0.980852  0.255233  1
  O  O34  1  0.391867  0.538378  0.369764  1
  O  O35  1  0.658042  0.040923  0.372687  1
  O  O36  1  0.902965  0.180413  0.454090  1
  O  O37  1  0.895594  0.273671  0.289499  1
  O  O38  1  0.753005  0.134865  0.313526  1
  O  O39  1  0.435112  0.473694  0.301504  1
  O  O40  1  0.930816  0.463956  0.286038  1
  O  O41  1  0.895598  0.088572  0.270595  1
  O  O42  1  0.568600  0.156967  0.323949  1
  O  O43  1  0.393056  0.121669  0.287059  1
  O  O44  1  0.771374  0.019505  0.432595  1
  O  O45  1  0.499604  0.307342  0.297582  1
  O  O46  1  0.095743  0.067376  0.387517  1
  O  O47  1  0.714457  0.231389  0.371962  1
  O  O48  1  0.836524  0.324760  0.425068  1
  O  O49  1  0.017501  0.366326  0.453855  1
  O  O50  1  0.596914  0.454947  0.255454  1
  O  O51  1  0.044325  0.087729  0.316756  1
  O  O52  1  0.252139  0.411316  0.333899  1
  O  O53  1  0.231019  0.089520  0.330243  1
  O  O54  1  0.704949  0.410213  0.388278  1
  O  O55  1  0.141062  0.389611  0.396058  1
  O  O56  1  0.565536  0.192237  0.249857  1
  O  O57  1  0.862506  0.370062  0.350429  1
  O  O58  1  0.049179  0.372177  0.329038  1
  O  O59  1  0.147411  0.238919  0.352841  1
  O  O60  1  0.608002  0.461530  0.330890  1
  O  O61  1  0.961274  0.019061  0.445420  1
  O  O62  1  0.159016  0.966254  0.195680  1
  O  O63  1  0.137013  0.692803  0.198898  1
  O  O64  1  0.795233  0.515810  0.239745  1
  O  O65  1  0.659018  0.466253  0.179829  1
  O  O66  1  0.755106  0.180959  0.240636  1
  O  O67  1  0.637016  0.192806  0.176612  1
  O  O68  1  0.697012  0.339188  0.225588  1
  Si  Si69  1  0.336444  0.777580  0.479144  1
  Si  Si70  1  0.312255  0.548899  0.475849  1
  Si  Si71  1  0.867585  0.063689  0.460030  1
  Si  Si72  1  0.892169  0.555005  0.267624  1
  Si  Si73  1  0.346229  0.503168  0.327570  1
  Si  Si74  1  0.062957  0.627420  0.387101  1
  Si  Si75  1  0.700705  0.962120  0.398349  1
  Si  Si76  1  0.332338  0.862821  0.354611  1
  Si  Si77  1  0.496326  0.805124  0.410691  1
  Si  Si78  1  0.031531  0.979814  0.414043  1
  Si  Si79  1  0.219379  0.663869  0.315903  1
  Si  Si80  1  0.865736  0.875907  0.353158  1
  Si  Si81  1  0.853490  0.647642  0.348579  1
  Si  Si82  1  0.172157  0.831176  0.423712  1
  Si  Si83  1  0.467579  0.574776  0.405480  1
  Si  Si84  1  0.093514  0.704674  0.241998  1
  Si  Si85  1  0.936916  0.372492  0.313558  1
  Si  Si86  1  0.107714  0.444909  0.433034  1
  Si  Si87  1  0.653640  0.496742  0.373084  1
  Si  Si88  1  0.299170  0.037790  0.302307  1
  Si  Si89  1  0.667533  0.137091  0.346048  1
  Si  Si90  1  0.503549  0.194785  0.289964  1
  Si  Si91  1  0.968348  0.020093  0.286612  1
  Si  Si92  1  0.780490  0.336043  0.384756  1
  Si  Si93  1  0.134139  0.124004  0.347498  1
  Si  Si94  1  0.146384  0.352269  0.352080  1
  Si  Si95  1  0.827721  0.168732  0.276949  1
  Si  Si96  1  0.532290  0.425133  0.295174  1
  Si  Si97  1  0.906366  0.295237  0.458656  1
  Si  Si98  1  0.132294  0.936222  0.240625  1
  Si  Si99  1  0.663441  0.222333  0.221515  1
  Si  Si100  1  0.687628  0.451014  0.224808  1
  H  H101  1  0.340886  0.533660  0.547767  1
  H  H102  1  0.362889  0.807111  0.550986  1
  H  H103  1  0.840883  0.033662  0.531917  1
  H  H104  1  0.862886  0.307108  0.528700  1
  H  H105  1  0.159016  0.966254  0.168739  1
  H  H106  1  0.137013  0.692803  0.171957  1
  H  H107  1  0.659018  0.466253  0.152888  1
  H  H108  1  0.637016  0.192806  0.149671  1
