# generated using pymatgen
data_Si16H2O33
_symmetry_space_group_name_H-M   'P 1'
_cell_length_a   27.63734077
_cell_length_b   26.13931827
_cell_length_c   67.05241168
_cell_angle_alpha   45.00033254
_cell_angle_beta   90.00000000
_cell_angle_gamma   90.00000000
_symmetry_Int_Tables_number   1
_chemical_formula_structural   Si16H2O33
_chemical_formula_sum   'Si256 H32 O528'
_cell_volume   34252.5126776
_cell_formula_units_Z   16
loop_
 _symmetry_equiv_pos_site_id
 _symmetry_equiv_pos_as_xyz
  1  'x, y, z'
loop_
 _atom_site_type_symbol
 _atom_site_label
 _atom_site_symmetry_multiplicity
 _atom_site_fract_x
 _atom_site_fract_y
 _atom_site_fract_z
 _atom_site_occupancy
  O  O1  1  0.935664  0.632786  0.118895  1
  O  O2  1  0.435667  0.867276  0.118890  1
  O  O3  1  0.251687  0.863204  0.118878  1
  O  O4  1  0.248251  0.636922  0.118879  1
  O  O5  1  0.064279  0.632814  0.118884  1
  O  O6  1  0.564279  0.132782  0.118897  1
  O  O7  1  0.435665  0.132801  0.118885  1
  O  O8  1  0.251689  0.136919  0.118879  1
  O  O9  1  0.248263  0.363206  0.118878  1
  O  O10  1  0.064280  0.367287  0.118888  1
  O  O11  1  0.812361  0.405167  0.209909  1
  O  O12  1  0.812346  0.735308  0.355841  1
  O  O13  1  0.812351  0.594856  0.157621  1
  O  O14  1  0.812361  0.264709  0.209909  1
  O  O15  1  0.687608  0.094858  0.303553  1
  O  O16  1  0.687595  0.764707  0.157621  1
  O  O17  1  0.687599  0.905171  0.355842  1
  O  O18  1  0.687608  0.235308  0.303552  1
  O  O19  1  0.723679  0.404042  0.218750  1
  O  O20  1  0.723664  0.766255  0.347621  1
  O  O21  1  0.723669  0.595972  0.165843  1
  O  O22  1  0.723677  0.233765  0.218750  1
  O  O23  1  0.776290  0.095978  0.294713  1
  O  O24  1  0.776279  0.733765  0.165843  1
  O  O25  1  0.776279  0.904045  0.347620  1
  O  O26  1  0.776292  0.266256  0.294713  1
  O  O27  1  0.757211  0.500007  0.168897  1
  O  O28  1  0.742752  0.000000  0.344566  1
  O  O29  1  0.751703  0.363148  0.194357  1
  O  O30  1  0.751689  0.636867  0.118905  1
  O  O31  1  0.748270  0.136871  0.319106  1
  O  O32  1  0.748257  0.863150  0.118906  1
  O  O33  1  0.904731  0.400316  0.218232  1
  O  O34  1  0.904717  0.760670  0.350187  1
  O  O35  1  0.904721  0.599724  0.163263  1
  O  O36  1  0.904732  0.239361  0.218234  1
  O  O37  1  0.935668  0.367255  0.192091  1
  O  O38  1  0.935664  0.632786  0.394548  1
  O  O39  1  0.939053  0.500022  0.169038  1
  O  O40  1  0.000000  0.723560  0.358574  1
  O  O41  1  0.939060  0.318106  0.169044  1
  O  O42  1  0.851672  0.500015  0.205311  1
  O  O43  1  0.851653  0.813480  0.308148  1
  O  O44  1  0.836395  0.137343  0.254583  1
  O  O45  1  0.836387  0.629559  0.183163  1
  O  O46  1  0.836380  0.862675  0.330298  1
  O  O47  1  0.836398  0.370468  0.254583  1
  O  O48  1  0.805679  0.000000  0.296115  1
  O  O49  1  0.694278  0.500007  0.217348  1
  O  O50  1  0.694261  0.857132  0.296117  1
  O  O51  1  0.749986  0.395799  0.256732  1
  O  O52  1  0.749970  0.895801  0.314183  1
  O  O53  1  0.749976  0.604222  0.199278  1
  O  O54  1  0.749981  0.104223  0.256730  1
  O  O55  1  0.939056  0.681941  0.344404  1
  O  O56  1  0.757195  0.681372  0.344564  1
  O  O57  1  0.851672  0.186544  0.205310  1
  O  O58  1  0.694271  0.142892  0.217346  1
  O  O59  1  0.757211  0.318648  0.168898  1
  O  O60  1  -0.000000  0.593060  0.154860  1
  O  O61  1  0.000000  0.407009  0.206146  1
  O  O62  1  0.000000  0.276510  0.206151  1
  O  O63  1  0.595236  0.099722  0.295225  1
  O  O64  1  0.595224  0.739361  0.163266  1
  O  O65  1  0.595227  0.900316  0.350190  1
  O  O66  1  0.595235  0.260664  0.295221  1
  O  O67  1  0.404738  0.099744  0.295208  1
  O  O68  1  0.404713  0.739397  0.163250  1
  O  O69  1  0.404725  0.900339  0.350175  1
  O  O70  1  0.404728  0.260702  0.295203  1
  O  O71  1  0.564283  0.132781  0.321363  1
  O  O72  1  0.564280  0.867253  0.118902  1
  O  O73  1  0.435668  0.132807  0.321348  1
  O  O74  1  0.435667  0.867276  0.394543  1
  O  O75  1  0.560894  -0.000000  0.344413  1
  O  O76  1  0.439058  -0.000000  0.344401  1
  O  O77  1  0.499983  0.093054  0.307294  1
  O  O78  1  0.499971  0.776504  0.154865  1
  O  O79  1  0.499975  0.907003  0.358579  1
  O  O80  1  0.499978  0.223554  0.307287  1
  O  O81  1  0.648290  0.000000  0.308150  1
  O  O82  1  0.351676  0.000000  0.308128  1
  O  O83  1  0.663574  0.362673  0.258878  1
  O  O84  1  0.663562  0.870466  0.330299  1
  O  O85  1  0.663562  0.637341  0.183165  1
  O  O86  1  0.663571  0.129561  0.258879  1
  O  O87  1  0.336391  0.362727  0.258855  1
  O  O88  1  0.336390  0.870505  0.330276  1
  O  O89  1  0.336372  0.637396  0.183140  1
  O  O90  1  0.336406  0.129601  0.258854  1
  O  O91  1  0.351671  0.313522  0.308127  1
  O  O92  1  0.351647  0.686594  0.205289  1
  O  O93  1  0.439055  0.181958  0.344394  1
  O  O94  1  0.312340  0.764764  0.157596  1
  O  O95  1  0.312368  0.094899  0.303529  1
  O  O96  1  0.312358  0.235361  0.303527  1
  O  O97  1  0.312354  0.905209  0.355818  1
  O  O98  1  0.187593  0.735367  0.355816  1
  O  O99  1  0.187605  0.405211  0.209885  1
  O  O100  1  0.187618  0.264769  0.209883  1
  O  O101  1  0.187591  0.594899  0.157597  1
  O  O102  1  0.223657  0.733818  0.165816  1
  O  O103  1  0.223688  0.096028  0.294686  1
  O  O104  1  0.223673  0.266299  0.294689  1
  O  O105  1  0.223672  0.904100  0.347592  1
  O  O106  1  0.276279  0.766302  0.347596  1
  O  O107  1  0.276286  0.404096  0.218725  1
  O  O108  1  0.276302  0.233820  0.218723  1
  O  O109  1  0.276271  0.596027  0.165818  1
  O  O110  1  0.257216  0.000000  0.344540  1
  O  O111  1  0.242746  0.500061  0.168872  1
  O  O112  1  0.251687  0.863204  0.394531  1
  O  O113  1  0.251705  0.136919  0.319081  1
  O  O114  1  0.248251  0.636922  0.394532  1
  O  O115  1  0.248275  0.363205  0.194330  1
  O  O116  1  0.095232  0.400345  0.218214  1
  O  O117  1  0.095223  0.760710  0.350172  1
  O  O118  1  0.095220  0.599749  0.163250  1
  O  O119  1  0.095244  0.239410  0.218216  1
  O  O120  1  0.064282  0.367288  0.192075  1
  O  O121  1  0.064279  0.632814  0.394537  1
  O  O122  1  0.060889  0.500047  0.169026  1
  O  O123  1  0.060889  0.681967  0.344393  1
  O  O124  1  0.060892  0.318134  0.169031  1
  O  O125  1  0.257189  0.818703  0.168871  1
  O  O126  1  0.148286  0.500051  0.205290  1
  O  O127  1  0.163584  0.137403  0.254557  1
  O  O128  1  0.163554  0.629604  0.183139  1
  O  O129  1  0.163563  0.862734  0.330270  1
  O  O130  1  0.163567  0.370504  0.254560  1
  O  O131  1  0.305671  0.500061  0.217324  1
  O  O132  1  0.194285  0.000000  0.296086  1
  O  O133  1  0.249995  0.104277  0.256703  1
  O  O134  1  0.249962  0.604273  0.199255  1
  O  O135  1  0.249979  0.895846  0.314159  1
  O  O136  1  0.249976  0.395842  0.256709  1
  O  O137  1  0.257208  0.181419  0.344540  1
  O  O138  1  0.194252  0.642945  0.217319  1
  O  O139  1  0.194265  0.357172  0.296093  1
  O  O140  1  0.812351  0.264710  0.157620  1
  O  O141  1  0.812341  0.594859  0.303553  1
  O  O142  1  0.812337  0.735313  0.303550  1
  O  O143  1  0.812349  0.405171  0.355842  1
  O  O144  1  0.687598  0.235307  0.355841  1
  O  O145  1  0.687583  0.905167  0.209909  1
  O  O146  1  0.687586  0.764706  0.209911  1
  O  O147  1  0.687591  0.094857  0.157621  1
  O  O148  1  0.723665  0.233767  0.165842  1
  O  O149  1  0.723659  0.595976  0.294713  1
  O  O150  1  0.723654  0.766258  0.294712  1
  O  O151  1  0.723668  0.404043  0.347621  1
  O  O152  1  0.776281  0.266254  0.347622  1
  O  O153  1  0.776264  0.904046  0.218749  1
  O  O154  1  0.776270  0.733765  0.218750  1
  O  O155  1  0.776274  0.095976  0.165842  1
  O  O156  1  0.757197  0.500012  0.344566  1
  O  O157  1  0.742731  0.000000  0.168897  1
  O  O158  1  0.751690  0.363152  0.118906  1
  O  O159  1  0.751678  0.636873  0.319105  1
  O  O160  1  0.748253  0.136867  0.118906  1
  O  O161  1  0.748242  0.863148  0.194357  1
  O  O162  1  0.904712  0.599726  0.295223  1
  O  O163  1  0.904723  0.239368  0.163264  1
  O  O164  1  0.904721  0.400320  0.350190  1
  O  O165  1  0.904710  0.760673  0.295218  1
  O  O166  1  0.935663  0.632791  0.321359  1
  O  O167  1  0.935668  0.367262  0.118900  1
  O  O168  1  0.939054  0.500027  0.344411  1
  O  O169  1  0.000000  0.407013  0.358577  1
  O  O170  1  0.000000  0.723562  0.307286  1
  O  O171  1  0.851658  0.500016  0.308149  1
  O  O172  1  0.836370  0.862679  0.258876  1
  O  O173  1  0.836385  0.370465  0.330300  1
  O  O174  1  0.836384  0.137347  0.183163  1
  O  O175  1  0.836376  0.629560  0.258878  1
  O  O176  1  0.805685  0.357130  0.296118  1
  O  O177  1  0.805666  0.000000  0.217346  1
  O  O178  1  0.694268  0.500007  0.296117  1
  O  O179  1  0.749967  0.604221  0.256731  1
  O  O180  1  0.749969  0.104227  0.199277  1
  O  O181  1  0.749976  0.395797  0.314184  1
  O  O182  1  0.749958  0.895803  0.256730  1
  O  O183  1  0.000000  0.593064  0.307291  1
  O  O184  1  0.742735  0.818647  0.168898  1
  O  O185  1  0.805675  0.642890  0.217346  1
  O  O186  1  0.742751  0.181370  0.344566  1
  O  O187  1  -0.000000  0.276512  0.154863  1
  O  O188  1  0.595213  0.900314  0.218232  1
  O  O189  1  0.595226  0.260667  0.350189  1
  O  O190  1  0.595221  0.099721  0.163265  1
  O  O191  1  0.595216  0.739357  0.218236  1
  O  O192  1  0.404711  0.900338  0.218216  1
  O  O193  1  0.404719  0.260697  0.350174  1
  O  O194  1  0.404722  0.099743  0.163249  1
  O  O195  1  0.404706  0.739398  0.218218  1
  O  O196  1  0.564277  0.867250  0.192093  1
  O  O197  1  0.564279  0.132782  0.394550  1
  O  O198  1  0.435664  0.867276  0.192079  1
  O  O199  1  0.435665  0.132801  0.394538  1
  O  O200  1  0.560887  0.818100  0.169046  1
  O  O201  1  0.560890  0.000000  0.169040  1
  O  O202  1  0.439055  0.000000  0.169028  1
  O  O203  1  0.499966  0.907002  0.206148  1
  O  O204  1  0.499971  0.223552  0.358576  1
  O  O205  1  0.499972  0.093053  0.154861  1
  O  O206  1  0.499965  0.776503  0.206153  1
  O  O207  1  0.648290  0.313476  0.308149  1
  O  O208  1  0.439056  0.818124  0.169034  1
  O  O209  1  0.648271  0.000000  0.205311  1
  O  O210  1  0.351658  0.000000  0.205289  1
  O  O211  1  0.663554  0.637340  0.254584  1
  O  O212  1  0.663556  0.129560  0.183163  1
  O  O213  1  0.663565  0.362672  0.330299  1
  O  O214  1  0.663547  0.870468  0.254583  1
  O  O215  1  0.336364  0.637395  0.254559  1
  O  O216  1  0.336391  0.129603  0.183138  1
  O  O217  1  0.336382  0.362725  0.330272  1
  O  O218  1  0.336376  0.870505  0.254560  1
  O  O219  1  0.560888  0.181935  0.344406  1
  O  O220  1  0.648277  0.686540  0.205312  1
  O  O221  1  0.312338  0.905209  0.209885  1
  O  O222  1  0.312348  0.235360  0.355817  1
  O  O223  1  0.312351  0.094897  0.157596  1
  O  O224  1  0.312332  0.764763  0.209885  1
  O  O225  1  0.187582  0.594901  0.303529  1
  O  O226  1  0.187609  0.264770  0.157595  1
  O  O227  1  0.187594  0.405211  0.355817  1
  O  O228  1  0.187585  0.735366  0.303527  1
  O  O229  1  0.223657  0.904097  0.218725  1
  O  O230  1  0.223663  0.266301  0.347596  1
  O  O231  1  0.223672  0.096029  0.165818  1
  O  O232  1  0.223649  0.733817  0.218724  1
  O  O233  1  0.276262  0.596026  0.294688  1
  O  O234  1  0.276291  0.233820  0.165815  1
  O  O235  1  0.276276  0.404097  0.347592  1
  O  O236  1  0.276269  0.766302  0.294689  1
  O  O237  1  0.257195  0.000000  0.168872  1
  O  O238  1  0.242734  0.500062  0.344540  1
  O  O239  1  0.251672  0.863201  0.194331  1
  O  O240  1  0.251689  0.136919  0.394532  1
  O  O241  1  0.248241  0.636921  0.319081  1
  O  O242  1  0.248263  0.363206  0.394530  1
  O  O243  1  0.095212  0.599753  0.295207  1
  O  O244  1  0.095235  0.239408  0.163247  1
  O  O245  1  0.095222  0.400346  0.350174  1
  O  O246  1  0.095215  0.760712  0.295202  1
  O  O247  1  0.064278  0.632816  0.321347  1
  O  O248  1  0.064280  0.367287  0.394541  1
  O  O249  1  0.060890  0.500049  0.344399  1
  O  O250  1  0.305678  0.857175  0.296093  1
  O  O251  1  0.242731  0.681422  0.344540  1
  O  O252  1  0.148272  0.500054  0.308127  1
  O  O253  1  0.163553  0.862734  0.258853  1
  O  O254  1  0.163555  0.370509  0.330275  1
  O  O255  1  0.163573  0.137403  0.183139  1
  O  O256  1  0.163543  0.629604  0.258855  1
  O  O257  1  0.305662  0.500060  0.296088  1
  O  O258  1  0.305696  0.142947  0.217318  1
  O  O259  1  0.194273  -0.000000  0.217322  1
  O  O260  1  0.249967  0.895847  0.256708  1
  O  O261  1  0.249967  0.395842  0.314159  1
  O  O262  1  0.249983  0.104276  0.199254  1
  O  O263  1  0.249953  0.604272  0.256706  1
  O  O264  1  0.148299  0.186603  0.205287  1
  O  O265  1  0.242763  0.318706  0.168870  1
  O  O266  1  0.148274  0.813531  0.308126  1
  O  O267  1  0.812361  0.405167  0.485562  1
  O  O268  1  0.812346  0.735308  0.631493  1
  O  O269  1  0.812351  0.594856  0.433273  1
  O  O270  1  0.812361  0.264709  0.485562  1
  O  O271  1  0.687608  0.094858  0.579206  1
  O  O272  1  0.687595  0.764707  0.433274  1
  O  O273  1  0.687599  0.905171  0.631495  1
  O  O274  1  0.687608  0.235308  0.579205  1
  O  O275  1  0.723679  0.404042  0.494403  1
  O  O276  1  0.723664  0.766255  0.623274  1
  O  O277  1  0.723669  0.595972  0.441496  1
  O  O278  1  0.723677  0.233765  0.494403  1
  O  O279  1  0.776290  0.095978  0.570365  1
  O  O280  1  0.776279  0.733765  0.441495  1
  O  O281  1  0.776279  0.904045  0.623273  1
  O  O282  1  0.776292  0.266256  0.570366  1
  O  O283  1  0.757211  0.500007  0.444550  1
  O  O284  1  0.742752  0.000000  0.620219  1
  O  O285  1  0.751703  0.363148  0.470010  1
  O  O286  1  0.751689  0.636867  0.394558  1
  O  O287  1  0.748270  0.136871  0.594759  1
  O  O288  1  0.748257  0.863150  0.394559  1
  O  O289  1  0.904731  0.400316  0.493884  1
  O  O290  1  0.904717  0.760670  0.625840  1
  O  O291  1  0.904721  0.599724  0.438916  1
  O  O292  1  0.904732  0.239361  0.493887  1
  O  O293  1  0.935668  0.367255  0.467744  1
  O  O294  1  0.935664  0.632786  0.670201  1
  O  O295  1  0.939053  0.500022  0.444691  1
  O  O296  1  0.000000  0.723560  0.634227  1
  O  O297  1  0.939060  0.318106  0.444697  1
  O  O298  1  0.851672  0.500015  0.480963  1
  O  O299  1  0.851653  0.813480  0.583800  1
  O  O300  1  0.836395  0.137343  0.530236  1
  O  O301  1  0.836387  0.629559  0.458816  1
  O  O302  1  0.836380  0.862675  0.605950  1
  O  O303  1  0.836398  0.370468  0.530236  1
  O  O304  1  0.805679  0.000000  0.571768  1
  O  O305  1  0.694278  0.500007  0.493000  1
  O  O306  1  0.694261  0.857132  0.571770  1
  O  O307  1  0.749986  0.395799  0.532385  1
  O  O308  1  0.749970  0.895801  0.589836  1
  O  O309  1  0.749976  0.604222  0.474931  1
  O  O310  1  0.749981  0.104223  0.532383  1
  O  O311  1  0.939056  0.681941  0.620057  1
  O  O312  1  0.757195  0.681372  0.620217  1
  O  O313  1  0.851672  0.186544  0.480963  1
  O  O314  1  0.694271  0.142892  0.492998  1
  O  O315  1  0.757211  0.318648  0.444551  1
  O  O316  1  0.000000  0.593060  0.430513  1
  O  O317  1  0.000000  0.407009  0.481799  1
  O  O318  1  0.000000  0.276510  0.481804  1
  O  O319  1  0.595236  0.099722  0.570878  1
  O  O320  1  0.595224  0.739361  0.438919  1
  O  O321  1  0.595227  0.900316  0.625843  1
  O  O322  1  0.595235  0.260664  0.570874  1
  O  O323  1  0.404738  0.099744  0.570860  1
  O  O324  1  0.404713  0.739397  0.438903  1
  O  O325  1  0.404725  0.900339  0.625828  1
  O  O326  1  0.404728  0.260702  0.570856  1
  O  O327  1  0.564283  0.132781  0.597015  1
  O  O328  1  0.564280  0.867253  0.394555  1
  O  O329  1  0.435668  0.132807  0.597001  1
  O  O330  1  0.435667  0.867276  0.670196  1
  O  O331  1  0.560894  0.000000  0.620066  1
  O  O332  1  0.439058  0.000000  0.620054  1
  O  O333  1  0.499983  0.093054  0.582947  1
  O  O334  1  0.499971  0.776504  0.430518  1
  O  O335  1  0.499975  0.907003  0.634232  1
  O  O336  1  0.499978  0.223554  0.582940  1
  O  O337  1  0.648290  0.000000  0.583802  1
  O  O338  1  0.351676  0.000000  0.583780  1
  O  O339  1  0.663574  0.362673  0.534531  1
  O  O340  1  0.663562  0.870466  0.605952  1
  O  O341  1  0.663562  0.637341  0.458818  1
  O  O342  1  0.663571  0.129561  0.534531  1
  O  O343  1  0.336391  0.362727  0.534508  1
  O  O344  1  0.336390  0.870505  0.605928  1
  O  O345  1  0.336372  0.637396  0.458793  1
  O  O346  1  0.336406  0.129601  0.534507  1
  O  O347  1  0.351671  0.313522  0.583780  1
  O  O348  1  0.351647  0.686594  0.480941  1
  O  O349  1  0.439055  0.181958  0.620047  1
  O  O350  1  0.312340  0.764764  0.433249  1
  O  O351  1  0.312368  0.094899  0.579182  1
  O  O352  1  0.312358  0.235361  0.579180  1
  O  O353  1  0.312354  0.905209  0.631470  1
  O  O354  1  0.187593  0.735367  0.631468  1
  O  O355  1  0.187605  0.405211  0.485537  1
  O  O356  1  0.187618  0.264769  0.485536  1
  O  O357  1  0.187591  0.594899  0.433250  1
  O  O358  1  0.223657  0.733818  0.441468  1
  O  O359  1  0.223688  0.096028  0.570339  1
  O  O360  1  0.223673  0.266299  0.570342  1
  O  O361  1  0.223672  0.904100  0.623245  1
  O  O362  1  0.276279  0.766302  0.623248  1
  O  O363  1  0.276286  0.404096  0.494378  1
  O  O364  1  0.276302  0.233820  0.494376  1
  O  O365  1  0.276271  0.596027  0.441471  1
  O  O366  1  0.257216  -0.000000  0.620192  1
  O  O367  1  0.242746  0.500061  0.444524  1
  O  O368  1  0.251687  0.863204  0.670184  1
  O  O369  1  0.251705  0.136919  0.594733  1
  O  O370  1  0.248251  0.636922  0.670185  1
  O  O371  1  0.248275  0.363205  0.469983  1
  O  O372  1  0.095232  0.400345  0.493867  1
  O  O373  1  0.095223  0.760710  0.625824  1
  O  O374  1  0.095220  0.599749  0.438903  1
  O  O375  1  0.095244  0.239410  0.493869  1
  O  O376  1  0.064282  0.367288  0.467728  1
  O  O377  1  0.064279  0.632814  0.670190  1
  O  O378  1  0.060889  0.500047  0.444679  1
  O  O379  1  0.060889  0.681967  0.620046  1
  O  O380  1  0.060892  0.318134  0.444684  1
  O  O381  1  0.257189  0.818703  0.444524  1
  O  O382  1  0.148286  0.500051  0.480942  1
  O  O383  1  0.163584  0.137403  0.530210  1
  O  O384  1  0.163554  0.629604  0.458792  1
  O  O385  1  0.163563  0.862734  0.605923  1
  O  O386  1  0.163567  0.370504  0.530213  1
  O  O387  1  0.305671  0.500061  0.492976  1
  O  O388  1  0.194285  0.000000  0.571739  1
  O  O389  1  0.249995  0.104277  0.532356  1
  O  O390  1  0.249962  0.604273  0.474908  1
  O  O391  1  0.249979  0.895846  0.589812  1
  O  O392  1  0.249976  0.395842  0.532362  1
  O  O393  1  0.257208  0.181419  0.620193  1
  O  O394  1  0.194252  0.642945  0.492972  1
  O  O395  1  0.194265  0.357172  0.571746  1
  O  O396  1  0.812351  0.264710  0.433273  1
  O  O397  1  0.812341  0.594859  0.579206  1
  O  O398  1  0.812337  0.735313  0.579203  1
  O  O399  1  0.812349  0.405171  0.631494  1
  O  O400  1  0.687598  0.235307  0.631494  1
  O  O401  1  0.687583  0.905167  0.485562  1
  O  O402  1  0.687586  0.764706  0.485564  1
  O  O403  1  0.687591  0.094857  0.433274  1
  O  O404  1  0.723665  0.233767  0.441495  1
  O  O405  1  0.723659  0.595976  0.570366  1
  O  O406  1  0.723654  0.766258  0.570365  1
  O  O407  1  0.723668  0.404043  0.623274  1
  O  O408  1  0.776281  0.266254  0.623274  1
  O  O409  1  0.776264  0.904046  0.494402  1
  O  O410  1  0.776270  0.733765  0.494403  1
  O  O411  1  0.776274  0.095976  0.441495  1
  O  O412  1  0.757197  0.500012  0.620219  1
  O  O413  1  0.742731  0.000000  0.444550  1
  O  O414  1  0.751690  0.363152  0.394558  1
  O  O415  1  0.751678  0.636873  0.594758  1
  O  O416  1  0.748253  0.136867  0.394558  1
  O  O417  1  0.748242  0.863148  0.470010  1
  O  O418  1  0.904712  0.599726  0.570875  1
  O  O419  1  0.904723  0.239368  0.438916  1
  O  O420  1  0.904721  0.400320  0.625842  1
  O  O421  1  0.904710  0.760673  0.570871  1
  O  O422  1  0.935663  0.632791  0.597012  1
  O  O423  1  0.935668  0.367262  0.394553  1
  O  O424  1  0.939054  0.500027  0.620063  1
  O  O425  1  0.000000  0.407013  0.634229  1
  O  O426  1  0.000000  0.723562  0.582938  1
  O  O427  1  0.851658  0.500016  0.583802  1
  O  O428  1  0.836370  0.862679  0.534529  1
  O  O429  1  0.836385  0.370465  0.605952  1
  O  O430  1  0.836384  0.137347  0.458816  1
  O  O431  1  0.836376  0.629560  0.534531  1
  O  O432  1  0.805685  0.357130  0.571770  1
  O  O433  1  0.805666  0.000000  0.492999  1
  O  O434  1  0.694268  0.500007  0.571770  1
  O  O435  1  0.749967  0.604221  0.532384  1
  O  O436  1  0.749969  0.104227  0.474930  1
  O  O437  1  0.749976  0.395797  0.589837  1
  O  O438  1  0.749958  0.895803  0.532383  1
  O  O439  1  0.000000  0.593064  0.582944  1
  O  O440  1  0.742735  0.818647  0.444551  1
  O  O441  1  0.805675  0.642890  0.492999  1
  O  O442  1  0.742751  0.181370  0.620219  1
  O  O443  1  0.000000  0.276512  0.430516  1
  O  O444  1  0.595213  0.900314  0.493885  1
  O  O445  1  0.595226  0.260667  0.625841  1
  O  O446  1  0.595221  0.099721  0.438917  1
  O  O447  1  0.595216  0.739357  0.493889  1
  O  O448  1  0.404711  0.900338  0.493868  1
  O  O449  1  0.404719  0.260697  0.625827  1
  O  O450  1  0.404722  0.099743  0.438902  1
  O  O451  1  0.404706  0.739398  0.493871  1
  O  O452  1  0.564277  0.867250  0.467745  1
  O  O453  1  0.564279  0.132782  0.670203  1
  O  O454  1  0.435664  0.867276  0.467732  1
  O  O455  1  0.435665  0.132801  0.670191  1
  O  O456  1  0.560887  0.818100  0.444698  1
  O  O457  1  0.560890  0.000000  0.444692  1
  O  O458  1  0.439055  0.000000  0.444681  1
  O  O459  1  0.499966  0.907002  0.481801  1
  O  O460  1  0.499971  0.223552  0.634229  1
  O  O461  1  0.499972  0.093053  0.430514  1
  O  O462  1  0.499965  0.776503  0.481806  1
  O  O463  1  0.648290  0.313476  0.583802  1
  O  O464  1  0.439056  0.818124  0.444686  1
  O  O465  1  0.648271  0.000000  0.480964  1
  O  O466  1  0.351658  0.000000  0.480942  1
  O  O467  1  0.663554  0.637340  0.530237  1
  O  O468  1  0.663556  0.129560  0.458816  1
  O  O469  1  0.663565  0.362672  0.605951  1
  O  O470  1  0.663547  0.870468  0.530236  1
  O  O471  1  0.336364  0.637395  0.530212  1
  O  O472  1  0.336391  0.129603  0.458791  1
  O  O473  1  0.336382  0.362725  0.605925  1
  O  O474  1  0.336376  0.870505  0.530212  1
  O  O475  1  0.560888  0.181935  0.620059  1
  O  O476  1  0.648277  0.686540  0.480965  1
  O  O477  1  0.312338  0.905209  0.485538  1
  O  O478  1  0.312348  0.235360  0.631469  1
  O  O479  1  0.312351  0.094897  0.433249  1
  O  O480  1  0.312332  0.764763  0.485538  1
  O  O481  1  0.187582  0.594901  0.579182  1
  O  O482  1  0.187609  0.264770  0.433248  1
  O  O483  1  0.187594  0.405211  0.631470  1
  O  O484  1  0.187585  0.735366  0.579179  1
  O  O485  1  0.223657  0.904097  0.494378  1
  O  O486  1  0.223663  0.266301  0.623248  1
  O  O487  1  0.223672  0.096029  0.441470  1
  O  O488  1  0.223649  0.733817  0.494377  1
  O  O489  1  0.276262  0.596026  0.570340  1
  O  O490  1  0.276291  0.233820  0.441467  1
  O  O491  1  0.276276  0.404097  0.623245  1
  O  O492  1  0.276269  0.766302  0.570342  1
  O  O493  1  0.257195  0.000000  0.444524  1
  O  O494  1  0.242734  0.500062  0.620193  1
  O  O495  1  0.251672  0.863201  0.469984  1
  O  O496  1  0.251689  0.136919  0.670185  1
  O  O497  1  0.248241  0.636921  0.594734  1
  O  O498  1  0.248263  0.363206  0.670183  1
  O  O499  1  0.095212  0.599753  0.570860  1
  O  O500  1  0.095235  0.239408  0.438900  1
  O  O501  1  0.095222  0.400346  0.625827  1
  O  O502  1  0.095215  0.760712  0.570855  1
  O  O503  1  0.064278  0.632816  0.597000  1
  O  O504  1  0.064280  0.367287  0.670194  1
  O  O505  1  0.060890  0.500049  0.620052  1
  O  O506  1  0.305678  0.857175  0.571745  1
  O  O507  1  0.242731  0.681422  0.620193  1
  O  O508  1  0.148272  0.500054  0.583780  1
  O  O509  1  0.163553  0.862734  0.534506  1
  O  O510  1  0.163555  0.370509  0.605928  1
  O  O511  1  0.163573  0.137403  0.458792  1
  O  O512  1  0.163543  0.629604  0.534508  1
  O  O513  1  0.305662  0.500060  0.571741  1
  O  O514  1  0.305696  0.142947  0.492971  1
  O  O515  1  0.194273  0.000000  0.492975  1
  O  O516  1  0.249967  0.895847  0.532361  1
  O  O517  1  0.249967  0.395842  0.589812  1
  O  O518  1  0.249983  0.104276  0.474907  1
  O  O519  1  0.249953  0.604272  0.532358  1
  O  O520  1  0.148299  0.186603  0.480939  1
  O  O521  1  0.242763  0.318706  0.444523  1
  O  O522  1  0.148274  0.813531  0.583778  1
  O  O523  1  0.751689  0.636867  0.670211  1
  O  O524  1  0.748257  0.863150  0.670212  1
  O  O525  1  0.564280  0.867253  0.670208  1
  O  O526  1  0.751690  0.363152  0.670211  1
  O  O527  1  0.748253  0.136867  0.670211  1
  O  O528  1  0.935668  0.367262  0.670206  1
  Si  Si529  1  0.794581  0.916747  0.322001  1
  Si  Si530  1  0.794597  0.346492  0.276097  1
  Si  Si531  1  0.705375  0.416743  0.237366  1
  Si  Si532  1  0.705360  0.846491  0.322002  1
  Si  Si533  1  0.794586  0.653530  0.191460  1
  Si  Si534  1  0.705365  0.583274  0.191461  1
  Si  Si535  1  0.705370  0.153531  0.237365  1
  Si  Si536  1  0.794592  0.083278  0.276096  1
  Si  Si537  1  0.760410  0.416876  0.197429  1
  Si  Si538  1  0.760394  0.701740  0.361866  1
  Si  Si539  1  0.760401  0.583140  0.151597  1
  Si  Si540  1  0.760410  0.298277  0.197429  1
  Si  Si541  1  0.739560  0.083145  0.316034  1
  Si  Si542  1  0.739545  0.798276  0.151598  1
  Si  Si543  1  0.739550  0.916879  0.361867  1
  Si  Si544  1  0.739559  0.201743  0.316034  1
  Si  Si545  1  0.944623  0.416851  0.197238  1
  Si  Si546  1  0.944620  0.701066  0.362060  1
  Si  Si547  1  0.944616  0.583195  0.151385  1
  Si  Si548  1  0.944627  0.298980  0.197243  1
  Si  Si549  1  0.853022  0.205524  0.223062  1
  Si  Si550  1  0.853015  0.583391  0.177095  1
  Si  Si551  1  0.853005  0.794496  0.336364  1
  Si  Si552  1  0.853023  0.416637  0.223062  1
  Si  Si553  1  0.353029  0.083426  0.290377  1
  Si  Si554  1  0.353019  0.916672  0.336344  1
  Si  Si555  1  0.352999  0.705576  0.177073  1
  Si  Si556  1  0.555333  0.083191  0.316212  1
  Si  Si557  1  0.555325  0.798974  0.151391  1
  Si  Si558  1  0.555327  0.916848  0.362065  1
  Si  Si559  1  0.555329  0.201063  0.316207  1
  Si  Si560  1  0.444628  0.083210  0.316201  1
  Si  Si561  1  0.444619  0.798997  0.151379  1
  Si  Si562  1  0.444621  0.916867  0.362054  1
  Si  Si563  1  0.444623  0.201084  0.316196  1
  Si  Si564  1  0.646946  0.294492  0.290399  1
  Si  Si565  1  0.646938  0.916639  0.336366  1
  Si  Si566  1  0.646932  0.705523  0.177096  1
  Si  Si567  1  0.646945  0.083393  0.290399  1
  Si  Si568  1  0.353020  0.294543  0.290375  1
  Si  Si569  1  0.294587  0.416793  0.237343  1
  Si  Si570  1  0.205384  0.083330  0.276069  1
  Si  Si571  1  0.205365  0.346533  0.276074  1
  Si  Si572  1  0.205369  0.916799  0.321974  1
  Si  Si573  1  0.205351  0.653583  0.191435  1
  Si  Si574  1  0.294588  0.846536  0.321978  1
  Si  Si575  1  0.260389  0.798332  0.151571  1
  Si  Si576  1  0.260417  0.083193  0.316008  1
  Si  Si577  1  0.260408  0.201790  0.316009  1
  Si  Si578  1  0.260404  0.916928  0.361840  1
  Si  Si579  1  0.239542  0.701795  0.361840  1
  Si  Si580  1  0.239557  0.416928  0.197403  1
  Si  Si581  1  0.239570  0.298333  0.197402  1
  Si  Si582  1  0.239543  0.583193  0.151571  1
  Si  Si583  1  0.055329  0.416875  0.197227  1
  Si  Si584  1  0.055326  0.701094  0.362048  1
  Si  Si585  1  0.055322  0.583218  0.151374  1
  Si  Si586  1  0.055333  0.299005  0.197231  1
  Si  Si587  1  0.146955  0.205586  0.223037  1
  Si  Si588  1  0.146931  0.583428  0.177074  1
  Si  Si589  1  0.146931  0.794550  0.336341  1
  Si  Si590  1  0.146941  0.416674  0.223039  1
  Si  Si591  1  0.294607  0.153584  0.237339  1
  Si  Si592  1  0.294573  0.583324  0.191438  1
  Si  Si593  1  0.705356  0.583274  0.276097  1
  Si  Si594  1  0.705358  0.153533  0.191459  1
  Si  Si595  1  0.760401  0.298277  0.151597  1
  Si  Si596  1  0.760390  0.583145  0.316034  1
  Si  Si597  1  0.760387  0.701745  0.316033  1
  Si  Si598  1  0.760397  0.416880  0.361867  1
  Si  Si599  1  0.739550  0.201740  0.361867  1
  Si  Si600  1  0.739533  0.916877  0.197428  1
  Si  Si601  1  0.739536  0.798276  0.197429  1
  Si  Si602  1  0.739541  0.083142  0.151597  1
  Si  Si603  1  0.944615  0.583199  0.316210  1
  Si  Si604  1  0.944622  0.298981  0.151389  1
  Si  Si605  1  0.944621  0.416856  0.362063  1
  Si  Si606  1  0.944616  0.701071  0.316204  1
  Si  Si607  1  0.852999  0.794498  0.290396  1
  Si  Si608  1  0.853010  0.416639  0.336365  1
  Si  Si609  1  0.853015  0.205529  0.177094  1
  Si  Si610  1  0.853003  0.583393  0.290399  1
  Si  Si611  1  0.794577  0.653530  0.237365  1
  Si  Si612  1  0.794580  0.083280  0.191459  1
  Si  Si613  1  0.794587  0.346489  0.322003  1
  Si  Si614  1  0.794569  0.916749  0.237364  1
  Si  Si615  1  0.705348  0.846493  0.276096  1
  Si  Si616  1  0.705365  0.416743  0.322002  1
  Si  Si617  1  0.353002  0.916672  0.223039  1
  Si  Si618  1  0.353012  0.294540  0.336343  1
  Si  Si619  1  0.555321  0.916846  0.197240  1
  Si  Si620  1  0.555323  0.201061  0.362061  1
  Si  Si621  1  0.555327  0.083190  0.151386  1
  Si  Si622  1  0.555320  0.798974  0.197245  1
  Si  Si623  1  0.444615  0.916865  0.197229  1
  Si  Si624  1  0.444617  0.201083  0.362049  1
  Si  Si625  1  0.444621  0.083208  0.151375  1
  Si  Si626  1  0.444615  0.798995  0.197234  1
  Si  Si627  1  0.646926  0.705520  0.223064  1
  Si  Si628  1  0.646927  0.083392  0.177095  1
  Si  Si629  1  0.646938  0.294493  0.336365  1
  Si  Si630  1  0.646921  0.916638  0.223062  1
  Si  Si631  1  0.352993  0.705577  0.223039  1
  Si  Si632  1  0.353011  0.083426  0.177073  1
  Si  Si633  1  0.205357  0.916799  0.237342  1
  Si  Si634  1  0.205356  0.346535  0.321978  1
  Si  Si635  1  0.205371  0.083330  0.191436  1
  Si  Si636  1  0.260386  0.916927  0.197403  1
  Si  Si637  1  0.260398  0.201791  0.361840  1
  Si  Si638  1  0.260398  0.083192  0.151571  1
  Si  Si639  1  0.260381  0.798330  0.197403  1
  Si  Si640  1  0.239533  0.583194  0.316009  1
  Si  Si641  1  0.239561  0.298335  0.151570  1
  Si  Si642  1  0.239545  0.416929  0.361839  1
  Si  Si643  1  0.239534  0.701793  0.316009  1
  Si  Si644  1  0.055321  0.583220  0.316200  1
  Si  Si645  1  0.055328  0.299007  0.151377  1
  Si  Si646  1  0.055327  0.416877  0.362052  1
  Si  Si647  1  0.055321  0.701092  0.316195  1
  Si  Si648  1  0.146925  0.794551  0.290374  1
  Si  Si649  1  0.146929  0.416677  0.336344  1
  Si  Si650  1  0.146948  0.205585  0.177071  1
  Si  Si651  1  0.146920  0.583431  0.290377  1
  Si  Si652  1  0.294577  0.846536  0.276073  1
  Si  Si653  1  0.294578  0.416793  0.321975  1
  Si  Si654  1  0.294596  0.153584  0.191434  1
  Si  Si655  1  0.294564  0.583324  0.276071  1
  Si  Si656  1  0.205343  0.653582  0.237340  1
  Si  Si657  1  0.794581  0.916747  0.597654  1
  Si  Si658  1  0.794597  0.346492  0.551750  1
  Si  Si659  1  0.705375  0.416743  0.513019  1
  Si  Si660  1  0.705360  0.846491  0.597655  1
  Si  Si661  1  0.794586  0.653530  0.467113  1
  Si  Si662  1  0.705365  0.583274  0.467114  1
  Si  Si663  1  0.705370  0.153531  0.513018  1
  Si  Si664  1  0.794592  0.083278  0.551748  1
  Si  Si665  1  0.760410  0.416876  0.473081  1
  Si  Si666  1  0.760394  0.701740  0.637519  1
  Si  Si667  1  0.760401  0.583140  0.427250  1
  Si  Si668  1  0.760410  0.298277  0.473082  1
  Si  Si669  1  0.739560  0.083145  0.591687  1
  Si  Si670  1  0.739545  0.798276  0.427251  1
  Si  Si671  1  0.739550  0.916879  0.637520  1
  Si  Si672  1  0.739559  0.201743  0.591687  1
  Si  Si673  1  0.944623  0.416851  0.472891  1
  Si  Si674  1  0.944620  0.701066  0.637712  1
  Si  Si675  1  0.944616  0.583195  0.427037  1
  Si  Si676  1  0.944627  0.298980  0.472895  1
  Si  Si677  1  0.853022  0.205524  0.498714  1
  Si  Si678  1  0.853015  0.583391  0.452747  1
  Si  Si679  1  0.853005  0.794496  0.612016  1
  Si  Si680  1  0.853023  0.416637  0.498715  1
  Si  Si681  1  0.353029  0.083426  0.566030  1
  Si  Si682  1  0.353019  0.916672  0.611997  1
  Si  Si683  1  0.352999  0.705576  0.452726  1
  Si  Si684  1  0.555333  0.083191  0.591865  1
  Si  Si685  1  0.555325  0.798974  0.427044  1
  Si  Si686  1  0.555327  0.916848  0.637718  1
  Si  Si687  1  0.555329  0.201063  0.591860  1
  Si  Si688  1  0.444628  0.083210  0.591854  1
  Si  Si689  1  0.444619  0.798997  0.427032  1
  Si  Si690  1  0.444621  0.916867  0.637706  1
  Si  Si691  1  0.444623  0.201084  0.591848  1
  Si  Si692  1  0.646946  0.294492  0.566051  1
  Si  Si693  1  0.646938  0.916639  0.612018  1
  Si  Si694  1  0.646932  0.705523  0.452749  1
  Si  Si695  1  0.646945  0.083393  0.566052  1
  Si  Si696  1  0.353020  0.294543  0.566028  1
  Si  Si697  1  0.294587  0.416793  0.512996  1
  Si  Si698  1  0.205384  0.083330  0.551722  1
  Si  Si699  1  0.205365  0.346533  0.551727  1
  Si  Si700  1  0.205369  0.916799  0.597627  1
  Si  Si701  1  0.205351  0.653583  0.467088  1
  Si  Si702  1  0.294588  0.846536  0.597631  1
  Si  Si703  1  0.260389  0.798332  0.427223  1
  Si  Si704  1  0.260417  0.083193  0.591661  1
  Si  Si705  1  0.260408  0.201790  0.591662  1
  Si  Si706  1  0.260404  0.916928  0.637493  1
  Si  Si707  1  0.239542  0.701795  0.637493  1
  Si  Si708  1  0.239557  0.416928  0.473056  1
  Si  Si709  1  0.239570  0.298333  0.473055  1
  Si  Si710  1  0.239543  0.583193  0.427224  1
  Si  Si711  1  0.055329  0.416875  0.472880  1
  Si  Si712  1  0.055326  0.701094  0.637701  1
  Si  Si713  1  0.055322  0.583218  0.427027  1
  Si  Si714  1  0.055333  0.299005  0.472884  1
  Si  Si715  1  0.146955  0.205586  0.498690  1
  Si  Si716  1  0.146931  0.583428  0.452727  1
  Si  Si717  1  0.146931  0.794550  0.611994  1
  Si  Si718  1  0.146941  0.416674  0.498691  1
  Si  Si719  1  0.294607  0.153584  0.512992  1
  Si  Si720  1  0.294573  0.583324  0.467091  1
  Si  Si721  1  0.705356  0.583274  0.551749  1
  Si  Si722  1  0.705358  0.153533  0.467112  1
  Si  Si723  1  0.760401  0.298277  0.427250  1
  Si  Si724  1  0.760390  0.583145  0.591687  1
  Si  Si725  1  0.760387  0.701745  0.591685  1
  Si  Si726  1  0.760397  0.416880  0.637519  1
  Si  Si727  1  0.739550  0.201740  0.637519  1
  Si  Si728  1  0.739533  0.916877  0.473081  1
  Si  Si729  1  0.739536  0.798276  0.473082  1
  Si  Si730  1  0.739541  0.083142  0.427250  1
  Si  Si731  1  0.944615  0.583199  0.591862  1
  Si  Si732  1  0.944622  0.298981  0.427041  1
  Si  Si733  1  0.944621  0.416856  0.637716  1
  Si  Si734  1  0.944616  0.701071  0.591857  1
  Si  Si735  1  0.852999  0.794498  0.566049  1
  Si  Si736  1  0.853010  0.416639  0.612018  1
  Si  Si737  1  0.853015  0.205529  0.452747  1
  Si  Si738  1  0.853003  0.583393  0.566052  1
  Si  Si739  1  0.794577  0.653530  0.513018  1
  Si  Si740  1  0.794580  0.083280  0.467112  1
  Si  Si741  1  0.794587  0.346489  0.597656  1
  Si  Si742  1  0.794569  0.916749  0.513017  1
  Si  Si743  1  0.705348  0.846493  0.551749  1
  Si  Si744  1  0.705365  0.416743  0.597655  1
  Si  Si745  1  0.353002  0.916672  0.498692  1
  Si  Si746  1  0.353012  0.294540  0.611996  1
  Si  Si747  1  0.555321  0.916846  0.472893  1
  Si  Si748  1  0.555323  0.201061  0.637714  1
  Si  Si749  1  0.555327  0.083190  0.427039  1
  Si  Si750  1  0.555320  0.798974  0.472897  1
  Si  Si751  1  0.444615  0.916865  0.472882  1
  Si  Si752  1  0.444617  0.201083  0.637702  1
  Si  Si753  1  0.444621  0.083208  0.427028  1
  Si  Si754  1  0.444615  0.798995  0.472887  1
  Si  Si755  1  0.646926  0.705520  0.498716  1
  Si  Si756  1  0.646927  0.083392  0.452748  1
  Si  Si757  1  0.646938  0.294493  0.612018  1
  Si  Si758  1  0.646921  0.916638  0.498714  1
  Si  Si759  1  0.352993  0.705577  0.498692  1
  Si  Si760  1  0.353011  0.083426  0.452726  1
  Si  Si761  1  0.205357  0.916799  0.512994  1
  Si  Si762  1  0.205356  0.346535  0.597631  1
  Si  Si763  1  0.205371  0.083330  0.467089  1
  Si  Si764  1  0.260386  0.916927  0.473056  1
  Si  Si765  1  0.260398  0.201791  0.637493  1
  Si  Si766  1  0.260398  0.083192  0.427224  1
  Si  Si767  1  0.260381  0.798330  0.473056  1
  Si  Si768  1  0.239533  0.583194  0.591662  1
  Si  Si769  1  0.239561  0.298335  0.427222  1
  Si  Si770  1  0.239545  0.416929  0.637492  1
  Si  Si771  1  0.239534  0.701793  0.591661  1
  Si  Si772  1  0.055321  0.583220  0.591852  1
  Si  Si773  1  0.055328  0.299007  0.427030  1
  Si  Si774  1  0.055327  0.416877  0.637705  1
  Si  Si775  1  0.055321  0.701092  0.591848  1
  Si  Si776  1  0.146925  0.794551  0.566027  1
  Si  Si777  1  0.146929  0.416677  0.611996  1
  Si  Si778  1  0.146948  0.205585  0.452724  1
  Si  Si779  1  0.146920  0.583431  0.566030  1
  Si  Si780  1  0.294577  0.846536  0.551726  1
  Si  Si781  1  0.294578  0.416793  0.597628  1
  Si  Si782  1  0.294596  0.153584  0.467087  1
  Si  Si783  1  0.294564  0.583324  0.551724  1
  Si  Si784  1  0.205343  0.653582  0.512993  1
  H  H785  1  0.935664  0.632786  0.105473  1
  H  H786  1  0.435667  0.867276  0.105468  1
  H  H787  1  0.251687  0.863204  0.105456  1
  H  H788  1  0.248251  0.636922  0.105457  1
  H  H789  1  0.064279  0.632814  0.105462  1
  H  H790  1  0.564279  0.132782  0.105475  1
  H  H791  1  0.435665  0.132801  0.105463  1
  H  H792  1  0.251689  0.136919  0.105457  1
  H  H793  1  0.248263  0.363206  0.105455  1
  H  H794  1  0.064280  0.367287  0.105466  1
  H  H795  1  0.751689  0.636867  0.105483  1
  H  H796  1  0.748257  0.863150  0.105484  1
  H  H797  1  0.564280  0.867253  0.105480  1
  H  H798  1  0.751690  0.363152  0.105483  1
  H  H799  1  0.748253  0.136867  0.105483  1
  H  H800  1  0.935668  0.367262  0.105478  1
  H  H801  1  0.935664  0.632786  0.683623  1
  H  H802  1  0.435667  0.867276  0.683618  1
  H  H803  1  0.251687  0.863204  0.683606  1
  H  H804  1  0.248251  0.636922  0.683607  1
  H  H805  1  0.064279  0.632814  0.683612  1
  H  H806  1  0.564279  0.132782  0.683625  1
  H  H807  1  0.435665  0.132801  0.683613  1
  H  H808  1  0.251689  0.136919  0.683607  1
  H  H809  1  0.248263  0.363206  0.683605  1
  H  H810  1  0.064280  0.367287  0.683616  1
  H  H811  1  0.751689  0.636867  0.683633  1
  H  H812  1  0.748257  0.863150  0.683634  1
  H  H813  1  0.564280  0.867253  0.683630  1
  H  H814  1  0.751690  0.363152  0.683634  1
  H  H815  1  0.748253  0.136867  0.683634  1
  H  H816  1  0.935668  0.367262  0.683628  1
