# generated using pymatgen
data_Si12H2O25
_symmetry_space_group_name_H-M   'P 1'
_cell_length_a   7.51561045
_cell_length_b   23.17128744
_cell_length_c   58.02530707
_cell_angle_alpha   52.20637989
_cell_angle_beta   90.00000000
_cell_angle_gamma   90.00000000
_symmetry_Int_Tables_number   1
_chemical_formula_structural   Si12H2O25
_chemical_formula_sum   'Si72 H12 O150'
_cell_volume   7985.12427841
_cell_formula_units_Z   6
loop_
 _symmetry_equiv_pos_site_id
 _symmetry_equiv_pos_as_xyz
  1  'x, y, z'
loop_
 _atom_site_type_symbol
 _atom_site_label
 _atom_site_symmetry_multiplicity
 _atom_site_fract_x
 _atom_site_fract_y
 _atom_site_fract_z
 _atom_site_occupancy
  O  O1  1  0.744609  0.998381  0.219069  1
  O  O2  1  0.744607  0.501736  0.218247  1
  O  O3  1  0.255064  0.001793  0.218234  1
  O  O4  1  0.255062  0.498323  0.219083  1
  O  O5  1  0.742203  0.107365  0.219825  1
  O  O6  1  0.731005  0.609925  0.219224  1
  O  O7  1  0.742234  0.107367  0.264876  1
  O  O8  1  0.730978  0.609922  0.264169  1
  O  O9  1  0.268669  0.109925  0.264197  1
  O  O10  1  0.257473  0.607365  0.264850  1
  O  O11  1  0.268698  0.109921  0.219254  1
  O  O12  1  0.257440  0.607367  0.219797  1
  O  O13  1  0.838916  0.220954  0.214550  1
  O  O14  1  0.822686  0.723942  0.213799  1
  O  O15  1  0.176988  0.223942  0.213819  1
  O  O16  1  0.160759  0.720953  0.214530  1
  O  O17  1  0.991949  0.250107  0.146234  1
  O  O18  1  0.007726  0.750009  0.146242  1
  O  O19  1  0.007729  0.750107  0.268577  1
  O  O20  1  0.002892  0.317438  0.167922  1
  O  O21  1  0.996781  0.817406  0.167901  1
  O  O22  1  0.002895  0.317406  0.213972  1
  O  O23  1  0.996784  0.817438  0.213935  1
  O  O24  1  0.996784  0.682678  0.124555  1
  O  O25  1  0.002895  0.182709  0.124576  1
  O  O26  1  0.834516  0.128451  0.172952  1
  O  O27  1  0.824599  0.633569  0.172064  1
  O  O28  1  0.824601  0.866547  0.237409  1
  O  O29  1  0.834515  0.371665  0.235791  1
  O  O30  1  0.165155  0.871757  0.235735  1
  O  O31  1  0.175073  0.366456  0.237466  1
  O  O32  1  0.175075  0.133659  0.172076  1
  O  O33  1  0.165151  0.628359  0.172941  1
  O  O34  1  0.507924  0.175981  0.225562  1
  O  O35  1  0.491750  0.675981  0.225529  1
  O  O36  1  0.504297  0.096575  0.191844  1
  O  O37  1  0.495374  0.596514  0.191837  1
  O  O38  1  0.495376  0.903602  0.239046  1
  O  O39  1  0.504295  0.403541  0.239083  1
  O  O40  1  0.744609  0.998381  0.463786  1
  O  O41  1  0.744607  0.501736  0.462965  1
  O  O42  1  0.744611  0.998323  0.318960  1
  O  O43  1  0.744613  0.501793  0.318111  1
  O  O44  1  0.255066  0.001735  0.318126  1
  O  O45  1  0.255069  0.498380  0.318947  1
  O  O46  1  0.255064  0.001793  0.462951  1
  O  O47  1  0.255062  0.498323  0.463800  1
  O  O48  1  0.742203  0.107365  0.464542  1
  O  O49  1  0.731005  0.609925  0.463942  1
  O  O50  1  0.731006  0.890191  0.272997  1
  O  O51  1  0.742202  0.392751  0.272344  1
  O  O52  1  0.742234  0.107367  0.509594  1
  O  O53  1  0.730978  0.609922  0.508886  1
  O  O54  1  0.730978  0.890194  0.317941  1
  O  O55  1  0.742235  0.392749  0.317397  1
  O  O56  1  0.257473  0.892751  0.317369  1
  O  O57  1  0.268671  0.390191  0.317970  1
  O  O58  1  0.268669  0.109925  0.508914  1
  O  O59  1  0.257473  0.607365  0.509567  1
  O  O60  1  0.257442  0.892749  0.272317  1
  O  O61  1  0.268697  0.390194  0.273025  1
  O  O62  1  0.268698  0.109921  0.463971  1
  O  O63  1  0.257440  0.607367  0.464514  1
  O  O64  1  0.838916  0.220954  0.459267  1
  O  O65  1  0.822686  0.723942  0.458516  1
  O  O66  1  0.822687  0.776174  0.323375  1
  O  O67  1  0.838917  0.279162  0.322664  1
  O  O68  1  0.160761  0.779163  0.322644  1
  O  O69  1  0.176989  0.276174  0.323395  1
  O  O70  1  0.176988  0.223942  0.458536  1
  O  O71  1  0.160759  0.720953  0.459248  1
  O  O72  1  0.991949  0.250107  0.390952  1
  O  O73  1  0.007726  0.750009  0.390960  1
  O  O74  1  0.007729  0.750107  0.513294  1
  O  O75  1  0.991947  0.250009  0.268617  1
  O  O76  1  0.002892  0.317438  0.412639  1
  O  O77  1  0.996781  0.817406  0.412619  1
  O  O78  1  0.996781  0.682709  0.323223  1
  O  O79  1  0.002892  0.182678  0.323259  1
  O  O80  1  0.002895  0.317406  0.458689  1
  O  O81  1  0.996784  0.817438  0.458653  1
  O  O82  1  0.996784  0.682678  0.369272  1
  O  O83  1  0.002895  0.182709  0.369293  1
  O  O84  1  0.834516  0.128451  0.417669  1
  O  O85  1  0.824599  0.633569  0.416781  1
  O  O86  1  0.824601  0.866547  0.482127  1
  O  O87  1  0.834515  0.371665  0.480509  1
  O  O88  1  0.834522  0.128359  0.301459  1
  O  O89  1  0.824602  0.633660  0.299728  1
  O  O90  1  0.824601  0.866456  0.365118  1
  O  O91  1  0.834525  0.371756  0.364254  1
  O  O92  1  0.165159  0.871665  0.364243  1
  O  O93  1  0.175076  0.366547  0.365130  1
  O  O94  1  0.175074  0.133569  0.299785  1
  O  O95  1  0.165161  0.628450  0.301403  1
  O  O96  1  0.165155  0.871757  0.480453  1
  O  O97  1  0.175073  0.366456  0.482183  1
  O  O98  1  0.175075  0.133659  0.416794  1
  O  O99  1  0.165151  0.628359  0.417658  1
  O  O100  1  0.507924  0.175981  0.470279  1
  O  O101  1  0.491750  0.675981  0.470247  1
  O  O102  1  0.491751  0.824135  0.311632  1
  O  O103  1  0.507925  0.324135  0.311664  1
  O  O104  1  0.504297  0.096575  0.436562  1
  O  O105  1  0.495374  0.596514  0.436555  1
  O  O106  1  0.495376  0.903602  0.483764  1
  O  O107  1  0.504295  0.403541  0.483801  1
  O  O108  1  0.504299  0.096514  0.298148  1
  O  O109  1  0.495380  0.596575  0.298111  1
  O  O110  1  0.495378  0.903541  0.345349  1
  O  O111  1  0.504302  0.403602  0.345357  1
  O  O112  1  0.744611  0.998323  0.563678  1
  O  O113  1  0.744613  0.501793  0.562829  1
  O  O114  1  0.255066  0.001735  0.562843  1
  O  O115  1  0.255069  0.498380  0.563664  1
  O  O116  1  0.731006  0.890191  0.517715  1
  O  O117  1  0.742202  0.392751  0.517062  1
  O  O118  1  0.730978  0.890194  0.562658  1
  O  O119  1  0.742235  0.392749  0.562115  1
  O  O120  1  0.257473  0.892751  0.562087  1
  O  O121  1  0.268671  0.390191  0.562687  1
  O  O122  1  0.257442  0.892749  0.517035  1
  O  O123  1  0.268697  0.390194  0.517742  1
  O  O124  1  0.822687  0.776174  0.568093  1
  O  O125  1  0.838917  0.279162  0.567381  1
  O  O126  1  0.160761  0.779163  0.567362  1
  O  O127  1  0.176989  0.276174  0.568113  1
  O  O128  1  0.991949  0.250107  0.635669  1
  O  O129  1  0.007726  0.750009  0.635677  1
  O  O130  1  0.991947  0.250009  0.513335  1
  O  O131  1  0.002892  0.317438  0.657357  1
  O  O132  1  0.996781  0.817406  0.657336  1
  O  O133  1  0.996781  0.682709  0.567940  1
  O  O134  1  0.002892  0.182678  0.567976  1
  O  O135  1  0.996784  0.682678  0.613990  1
  O  O136  1  0.002895  0.182709  0.614010  1
  O  O137  1  0.834522  0.128359  0.546176  1
  O  O138  1  0.824602  0.633660  0.544446  1
  O  O139  1  0.824601  0.866456  0.609835  1
  O  O140  1  0.834525  0.371756  0.608971  1
  O  O141  1  0.165159  0.871665  0.608960  1
  O  O142  1  0.175076  0.366547  0.609848  1
  O  O143  1  0.175074  0.133569  0.544502  1
  O  O144  1  0.165161  0.628450  0.546120  1
  O  O145  1  0.491751  0.824135  0.556350  1
  O  O146  1  0.507925  0.324135  0.556382  1
  O  O147  1  0.504299  0.096514  0.542865  1
  O  O148  1  0.495380  0.596575  0.542828  1
  O  O149  1  0.495378  0.903541  0.590067  1
  O  O150  1  0.504302  0.403602  0.590074  1
  Si  Si151  1  0.708338  0.082839  0.200145  1
  Si  Si152  1  0.700406  0.585568  0.199438  1
  Si  Si153  1  0.700409  0.914548  0.241290  1
  Si  Si154  1  0.708336  0.417277  0.240661  1
  Si  Si155  1  0.291333  0.917328  0.240627  1
  Si  Si156  1  0.299266  0.414496  0.241325  1
  Si  Si157  1  0.299267  0.085620  0.199447  1
  Si  Si158  1  0.291331  0.582787  0.200136  1
  Si  Si159  1  0.001528  0.172764  0.153949  1
  Si  Si160  1  0.998145  0.672686  0.153938  1
  Si  Si161  1  0.998147  0.827429  0.238428  1
  Si  Si162  1  0.001527  0.327351  0.238478  1
  Si  Si163  1  0.711251  0.153570  0.231044  1
  Si  Si164  1  0.696538  0.655925  0.230439  1
  Si  Si165  1  0.303137  0.155924  0.230468  1
  Si  Si166  1  0.288423  0.653570  0.231016  1
  Si  Si167  1  0.005167  0.272318  0.201981  1
  Si  Si168  1  0.994508  0.772318  0.201959  1
  Si  Si169  1  0.708338  0.082839  0.444862  1
  Si  Si170  1  0.700406  0.585568  0.444155  1
  Si  Si171  1  0.700409  0.914548  0.486007  1
  Si  Si172  1  0.708336  0.417277  0.485378  1
  Si  Si173  1  0.708342  0.082787  0.296567  1
  Si  Si174  1  0.700410  0.585620  0.295869  1
  Si  Si175  1  0.700408  0.914496  0.337746  1
  Si  Si176  1  0.708344  0.417329  0.337058  1
  Si  Si177  1  0.291337  0.917277  0.337049  1
  Si  Si178  1  0.299270  0.414548  0.337756  1
  Si  Si179  1  0.299268  0.085568  0.295904  1
  Si  Si180  1  0.291339  0.582839  0.296533  1
  Si  Si181  1  0.291333  0.917328  0.485344  1
  Si  Si182  1  0.299266  0.414496  0.486042  1
  Si  Si183  1  0.299267  0.085620  0.444165  1
  Si  Si184  1  0.291331  0.582787  0.444854  1
  Si  Si185  1  0.001528  0.172764  0.398666  1
  Si  Si186  1  0.998145  0.672686  0.398655  1
  Si  Si187  1  0.998147  0.827429  0.483146  1
  Si  Si188  1  0.001527  0.327351  0.483195  1
  Si  Si189  1  0.001528  0.172686  0.298766  1
  Si  Si190  1  0.998149  0.672764  0.298716  1
  Si  Si191  1  0.998147  0.827352  0.383245  1
  Si  Si192  1  0.001530  0.327430  0.383256  1
  Si  Si193  1  0.711251  0.153570  0.475762  1
  Si  Si194  1  0.696538  0.655925  0.475157  1
  Si  Si195  1  0.696539  0.844191  0.306726  1
  Si  Si196  1  0.711252  0.346546  0.306178  1
  Si  Si197  1  0.288423  0.846546  0.306150  1
  Si  Si198  1  0.303137  0.344191  0.306755  1
  Si  Si199  1  0.303137  0.155924  0.475186  1
  Si  Si200  1  0.288423  0.653570  0.475733  1
  Si  Si201  1  0.005167  0.272318  0.446699  1
  Si  Si202  1  0.994508  0.772318  0.446677  1
  Si  Si203  1  0.994508  0.727797  0.335213  1
  Si  Si204  1  0.005167  0.227798  0.335235  1
  Si  Si205  1  0.708342  0.082787  0.541285  1
  Si  Si206  1  0.700410  0.585620  0.540587  1
  Si  Si207  1  0.700408  0.914496  0.582464  1
  Si  Si208  1  0.708344  0.417329  0.581775  1
  Si  Si209  1  0.291337  0.917277  0.581766  1
  Si  Si210  1  0.299270  0.414548  0.582473  1
  Si  Si211  1  0.299268  0.085568  0.540622  1
  Si  Si212  1  0.291339  0.582839  0.541251  1
  Si  Si213  1  0.001528  0.172686  0.543483  1
  Si  Si214  1  0.998149  0.672764  0.543434  1
  Si  Si215  1  0.998147  0.827352  0.627962  1
  Si  Si216  1  0.001530  0.327430  0.627973  1
  Si  Si217  1  0.696539  0.844191  0.551444  1
  Si  Si218  1  0.711252  0.346546  0.550896  1
  Si  Si219  1  0.288423  0.846546  0.550867  1
  Si  Si220  1  0.303137  0.344191  0.551472  1
  Si  Si221  1  0.994508  0.727797  0.579930  1
  Si  Si222  1  0.005167  0.227798  0.579952  1
  H  H223  1  0.991949  0.250107  0.130724  1
  H  H224  1  0.007726  0.750009  0.130732  1
  H  H225  1  0.002892  0.317438  0.152411  1
  H  H226  1  0.996781  0.817406  0.152391  1
  H  H227  1  0.996784  0.682678  0.109044  1
  H  H228  1  0.002895  0.182709  0.109065  1
  H  H229  1  0.991949  0.250107  0.651180  1
  H  H230  1  0.007726  0.750009  0.651187  1
  H  H231  1  0.002892  0.317438  0.672867  1
  H  H232  1  0.996781  0.817406  0.672847  1
  H  H233  1  0.996784  0.682678  0.629500  1
  H  H234  1  0.002895  0.182709  0.629521  1
