# generated using pymatgen
data_Si20H6O43
_symmetry_space_group_name_H-M   'P 1'
_cell_length_a   7.51561045
_cell_length_b   23.17128744
_cell_length_c   44.40919760
_cell_angle_alpha   52.20637989
_cell_angle_beta   90.00000000
_cell_angle_gamma   90.00000000
_symmetry_Int_Tables_number   1
_chemical_formula_structural   Si20H6O43
_chemical_formula_sum   'Si40 H12 O86'
_cell_volume   6111.3500267
_cell_formula_units_Z   2
loop_
 _symmetry_equiv_pos_site_id
 _symmetry_equiv_pos_as_xyz
  1  'x, y, z'
loop_
 _atom_site_type_symbol
 _atom_site_label
 _atom_site_symmetry_multiplicity
 _atom_site_fract_x
 _atom_site_fract_y
 _atom_site_fract_z
 _atom_site_occupancy
  O  O1  1  0.744609  0.998381  0.292808  1
  O  O2  1  0.744607  0.501736  0.291735  1
  O  O3  1  0.255064  0.001793  0.291717  1
  O  O4  1  0.255062  0.498323  0.292827  1
  O  O5  1  0.742203  0.107365  0.293796  1
  O  O6  1  0.731005  0.609925  0.293012  1
  O  O7  1  0.742234  0.107367  0.352661  1
  O  O8  1  0.730978  0.609922  0.351736  1
  O  O9  1  0.268669  0.109925  0.351773  1
  O  O10  1  0.257473  0.607365  0.352626  1
  O  O11  1  0.268698  0.109921  0.293050  1
  O  O12  1  0.257440  0.607367  0.293759  1
  O  O13  1  0.838916  0.220954  0.286903  1
  O  O14  1  0.822686  0.723942  0.285922  1
  O  O15  1  0.176988  0.223942  0.285948  1
  O  O16  1  0.160759  0.720953  0.286879  1
  O  O17  1  0.991949  0.250107  0.197643  1
  O  O18  1  0.007726  0.750009  0.197653  1
  O  O19  1  0.007729  0.750107  0.357496  1
  O  O20  1  0.002892  0.317438  0.225979  1
  O  O21  1  0.996781  0.817406  0.225953  1
  O  O22  1  0.002895  0.317406  0.286148  1
  O  O23  1  0.996784  0.817438  0.286101  1
  O  O24  1  0.996784  0.682678  0.169316  1
  O  O25  1  0.002895  0.182709  0.169343  1
  O  O26  1  0.834516  0.128451  0.232551  1
  O  O27  1  0.824599  0.633569  0.231391  1
  O  O28  1  0.824601  0.866547  0.316772  1
  O  O29  1  0.834515  0.371665  0.314658  1
  O  O30  1  0.824601  0.866456  0.163888  1
  O  O31  1  0.834525  0.371756  0.162758  1
  O  O32  1  0.165159  0.871665  0.162744  1
  O  O33  1  0.175076  0.366547  0.163904  1
  O  O34  1  0.165155  0.871757  0.314585  1
  O  O35  1  0.175073  0.366456  0.316846  1
  O  O36  1  0.175075  0.133659  0.231408  1
  O  O37  1  0.165151  0.628359  0.232537  1
  O  O38  1  0.507924  0.175981  0.301292  1
  O  O39  1  0.491750  0.675981  0.301250  1
  O  O40  1  0.504297  0.096575  0.257237  1
  O  O41  1  0.495374  0.596514  0.257228  1
  O  O42  1  0.495376  0.903602  0.318911  1
  O  O43  1  0.504295  0.403541  0.318959  1
  O  O44  1  0.744611  0.998323  0.423327  1
  O  O45  1  0.744613  0.501793  0.422218  1
  O  O46  1  0.255066  0.001735  0.422236  1
  O  O47  1  0.255069  0.498380  0.423309  1
  O  O48  1  0.731006  0.890191  0.363272  1
  O  O49  1  0.742202  0.392751  0.362418  1
  O  O50  1  0.730978  0.890194  0.421995  1
  O  O51  1  0.742235  0.392749  0.421285  1
  O  O52  1  0.257473  0.892751  0.421248  1
  O  O53  1  0.268671  0.390191  0.422033  1
  O  O54  1  0.257442  0.892749  0.362383  1
  O  O55  1  0.268697  0.390194  0.363308  1
  O  O56  1  0.822687  0.776174  0.429096  1
  O  O57  1  0.838917  0.279162  0.428166  1
  O  O58  1  0.160761  0.779163  0.428141  1
  O  O59  1  0.176989  0.276174  0.429122  1
  O  O60  1  0.991949  0.250107  0.517392  1
  O  O61  1  0.007726  0.750009  0.517402  1
  O  O62  1  0.991947  0.250009  0.357549  1
  O  O63  1  0.002892  0.317438  0.545729  1
  O  O64  1  0.996781  0.817406  0.545702  1
  O  O65  1  0.996781  0.682709  0.428896  1
  O  O66  1  0.002892  0.182678  0.428943  1
  O  O67  1  0.996784  0.682678  0.489065  1
  O  O68  1  0.002895  0.182709  0.489092  1
  O  O69  1  0.834516  0.128451  0.552300  1
  O  O70  1  0.824599  0.633569  0.551141  1
  O  O71  1  0.834522  0.128359  0.400459  1
  O  O72  1  0.824602  0.633660  0.398198  1
  O  O73  1  0.824601  0.866456  0.483637  1
  O  O74  1  0.834525  0.371756  0.482508  1
  O  O75  1  0.165159  0.871665  0.482493  1
  O  O76  1  0.175076  0.366547  0.483653  1
  O  O77  1  0.175074  0.133569  0.398272  1
  O  O78  1  0.165161  0.628450  0.400386  1
  O  O79  1  0.175075  0.133659  0.551157  1
  O  O80  1  0.165151  0.628359  0.552286  1
  O  O81  1  0.491751  0.824135  0.413752  1
  O  O82  1  0.507925  0.324135  0.413794  1
  O  O83  1  0.504299  0.096514  0.396133  1
  O  O84  1  0.495380  0.596575  0.396085  1
  O  O85  1  0.495378  0.903541  0.457807  1
  O  O86  1  0.504302  0.403602  0.457817  1
  Si  Si87  1  0.708338  0.082839  0.268082  1
  Si  Si88  1  0.700406  0.585568  0.267159  1
  Si  Si89  1  0.700409  0.914548  0.321842  1
  Si  Si90  1  0.708336  0.417277  0.321021  1
  Si  Si91  1  0.291333  0.917328  0.320976  1
  Si  Si92  1  0.299266  0.414496  0.321888  1
  Si  Si93  1  0.299267  0.085620  0.267171  1
  Si  Si94  1  0.291331  0.582787  0.268071  1
  Si  Si95  1  0.001528  0.172764  0.207722  1
  Si  Si96  1  0.998145  0.672686  0.207708  1
  Si  Si97  1  0.998147  0.827429  0.318104  1
  Si  Si98  1  0.001527  0.327351  0.318168  1
  Si  Si99  1  0.998147  0.827352  0.187572  1
  Si  Si100  1  0.001530  0.327430  0.187587  1
  Si  Si101  1  0.711251  0.153570  0.308456  1
  Si  Si102  1  0.696538  0.655925  0.307665  1
  Si  Si103  1  0.303137  0.155924  0.307703  1
  Si  Si104  1  0.288423  0.653570  0.308418  1
  Si  Si105  1  0.005167  0.272318  0.270482  1
  Si  Si106  1  0.994508  0.772318  0.270453  1
  Si  Si107  1  0.708342  0.082787  0.394068  1
  Si  Si108  1  0.700410  0.585620  0.393156  1
  Si  Si109  1  0.700408  0.914496  0.447873  1
  Si  Si110  1  0.708344  0.417329  0.446973  1
  Si  Si111  1  0.291337  0.917277  0.446962  1
  Si  Si112  1  0.299270  0.414548  0.447885  1
  Si  Si113  1  0.299268  0.085568  0.393202  1
  Si  Si114  1  0.291339  0.582839  0.394024  1
  Si  Si115  1  0.001528  0.172764  0.527472  1
  Si  Si116  1  0.998145  0.672686  0.527457  1
  Si  Si117  1  0.001528  0.172686  0.396941  1
  Si  Si118  1  0.998149  0.672764  0.396876  1
  Si  Si119  1  0.998147  0.827352  0.507322  1
  Si  Si120  1  0.001530  0.327430  0.507336  1
  Si  Si121  1  0.696539  0.844191  0.407342  1
  Si  Si122  1  0.711252  0.346546  0.406626  1
  Si  Si123  1  0.288423  0.846546  0.406589  1
  Si  Si124  1  0.303137  0.344191  0.407379  1
  Si  Si125  1  0.994508  0.727797  0.444563  1
  Si  Si126  1  0.005167  0.227798  0.444591  1
  H  H127  1  0.996784  0.682678  0.149050  1
  H  H128  1  0.002895  0.182709  0.149077  1
  H  H129  1  0.824601  0.866456  0.143622  1
  H  H130  1  0.834525  0.371756  0.142492  1
  H  H131  1  0.165159  0.871665  0.142478  1
  H  H132  1  0.175076  0.366547  0.143638  1
  H  H133  1  0.002892  0.317438  0.565995  1
  H  H134  1  0.996781  0.817406  0.565968  1
  H  H135  1  0.834516  0.128451  0.572567  1
  H  H136  1  0.824599  0.633569  0.571407  1
  H  H137  1  0.175075  0.133659  0.571423  1
  H  H138  1  0.165151  0.628359  0.572552  1
