# generated using pymatgen
data_Si14H6O31
_symmetry_space_group_name_H-M   'P 1'
_cell_length_a   10.13810602
_cell_length_b   35.95875048
_cell_length_c   33.64414558
_cell_angle_alpha   106.37546612
_cell_angle_beta   90.00000000
_cell_angle_gamma   90.00000000
_symmetry_Int_Tables_number   1
_chemical_formula_structural   Si14H6O31
_chemical_formula_sum   'Si56 H24 O124'
_cell_volume   11767.5589896
_cell_formula_units_Z   4
loop_
 _symmetry_equiv_pos_site_id
 _symmetry_equiv_pos_as_xyz
  1  'x, y, z'
loop_
 _atom_site_type_symbol
 _atom_site_label
 _atom_site_symmetry_multiplicity
 _atom_site_fract_x
 _atom_site_fract_y
 _atom_site_fract_z
 _atom_site_occupancy
  O  O1  1  0.249929  0.457630  0.181648  1
  O  O2  1  0.749734  0.957637  0.181655  1
  O  O3  1  0.249892  0.152047  0.296326  1
  O  O4  1  0.249718  0.152040  0.485472  1
  O  O5  1  0.563593  0.098010  0.374656  1
  O  O6  1  0.935889  0.097985  0.374581  1
  O  O7  1  0.127455  0.125078  0.345930  1
  O  O8  1  0.372089  0.125079  0.419637  1
  O  O9  1  0.127471  0.124910  0.419599  1
  O  O10  1  0.372090  0.125020  0.345911  1
  O  O11  1  0.249601  0.076038  0.285501  1
  O  O12  1  0.250209  0.076022  0.450554  1
  O  O13  1  0.749681  0.046788  0.359214  1
  O  O14  1  0.540031  0.033499  0.317126  1
  O  O15  1  0.959373  0.033481  0.393258  1
  O  O16  1  0.540026  0.033476  0.393288  1
  O  O17  1  0.959252  0.033447  0.317081  1
  O  O18  1  0.122910  0.013425  0.441023  1
  O  O19  1  0.376508  0.013384  0.257279  1
  O  O20  1  0.122827  0.013365  0.257248  1
  O  O21  1  0.376602  0.013305  0.441018  1
  O  O22  1  0.249763  0.042402  0.207230  1
  O  O23  1  0.976135  0.326033  0.292666  1
  O  O24  1  0.523881  0.326012  0.292649  1
  O  O25  1  0.523734  0.174026  0.397499  1
  O  O26  1  0.975962  0.173996  0.397650  1
  O  O27  1  0.249838  0.203258  0.255660  1
  O  O28  1  0.250104  0.296786  0.434534  1
  O  O29  1  0.123614  0.216570  0.322864  1
  O  O30  1  0.376379  0.216562  0.322823  1
  O  O31  1  0.376284  0.283475  0.367315  1
  O  O32  1  0.123511  0.283467  0.367390  1
  O  O33  1  0.945029  0.236611  0.378166  1
  O  O34  1  0.554816  0.236670  0.454631  1
  O  O35  1  0.944934  0.236718  0.454636  1
  O  O36  1  0.554829  0.236690  0.378195  1
  O  O37  1  0.554944  0.263375  0.312020  1
  O  O38  1  0.945074  0.263373  0.235582  1
  O  O39  1  0.554922  0.263338  0.235570  1
  O  O40  1  0.945080  0.263377  0.312031  1
  O  O41  1  0.750019  0.292402  0.282541  1
  O  O42  1  0.749887  0.207639  0.407665  1
  O  O43  1  0.936103  0.402046  0.315585  1
  O  O44  1  0.563830  0.402024  0.315572  1
  O  O45  1  0.249919  0.347994  0.393870  1
  O  O46  1  0.249997  0.348006  0.204723  1
  O  O47  1  0.127680  0.375018  0.344284  1
  O  O48  1  0.372281  0.375013  0.270584  1
  O  O49  1  0.127652  0.375045  0.270579  1
  O  O50  1  0.372310  0.374993  0.344291  1
  O  O51  1  0.249983  0.424008  0.404708  1
  O  O52  1  0.250050  0.424016  0.239663  1
  O  O53  1  0.749921  0.453250  0.331008  1
  O  O54  1  0.959574  0.466572  0.373099  1
  O  O55  1  0.540268  0.466535  0.296907  1
  O  O56  1  0.959526  0.466565  0.296929  1
  O  O57  1  0.540241  0.466549  0.373081  1
  O  O58  1  0.376701  0.486687  0.249189  1
  O  O59  1  0.123125  0.486673  0.432942  1
  O  O60  1  0.376796  0.486671  0.432952  1
  O  O61  1  0.122997  0.486644  0.249165  1
  O  O62  1  0.249929  0.457630  0.482975  1
  O  O63  1  0.749928  0.652041  0.296286  1
  O  O64  1  0.749805  0.652027  0.485426  1
  O  O65  1  0.063804  0.597991  0.374579  1
  O  O66  1  0.436080  0.597989  0.374579  1
  O  O67  1  0.627521  0.625098  0.345893  1
  O  O68  1  0.872209  0.624972  0.419575  1
  O  O69  1  0.627588  0.624994  0.419569  1
  O  O70  1  0.872165  0.624983  0.345860  1
  O  O71  1  0.749607  0.576030  0.285463  1
  O  O72  1  0.749806  0.576013  0.450513  1
  O  O73  1  0.249997  0.546775  0.359175  1
  O  O74  1  0.040367  0.533465  0.317075  1
  O  O75  1  0.459648  0.533475  0.393256  1
  O  O76  1  0.040333  0.533481  0.393246  1
  O  O77  1  0.459657  0.533459  0.317084  1
  O  O78  1  0.623153  0.513331  0.440983  1
  O  O79  1  0.876748  0.513397  0.257257  1
  O  O80  1  0.623079  0.513330  0.257203  1
  O  O81  1  0.876840  0.513386  0.441002  1
  O  O82  1  0.749925  0.542397  0.207198  1
  O  O83  1  0.475824  0.826007  0.292696  1
  O  O84  1  0.023600  0.826044  0.292534  1
  O  O85  1  0.023630  0.673998  0.397482  1
  O  O86  1  0.475863  0.674009  0.397583  1
  O  O87  1  0.749747  0.703244  0.255613  1
  O  O88  1  0.749683  0.796780  0.434516  1
  O  O89  1  0.623412  0.716545  0.322805  1
  O  O90  1  0.876176  0.716580  0.322792  1
  O  O91  1  0.876087  0.783470  0.367337  1
  O  O92  1  0.623323  0.783450  0.367319  1
  O  O93  1  0.444860  0.736620  0.378137  1
  O  O94  1  0.054659  0.736664  0.454575  1
  O  O95  1  0.444789  0.736710  0.454606  1
  O  O96  1  0.054677  0.736658  0.378130  1
  O  O97  1  0.054595  0.763432  0.312001  1
  O  O98  1  0.444824  0.763363  0.235550  1
  O  O99  1  0.054678  0.763329  0.235528  1
  O  O100  1  0.444775  0.763333  0.311981  1
  O  O101  1  0.249712  0.792396  0.282503  1
  O  O102  1  0.249737  0.707630  0.407624  1
  O  O103  1  0.435953  0.902029  0.315552  1
  O  O104  1  0.063655  0.902051  0.315615  1
  O  O105  1  0.749702  0.847981  0.393852  1
  O  O106  1  0.749859  0.848000  0.204713  1
  O  O107  1  0.627460  0.875014  0.344283  1
  O  O108  1  0.872065  0.875130  0.270594  1
  O  O109  1  0.627439  0.874948  0.270554  1
  O  O110  1  0.872089  0.874970  0.344263  1
  O  O111  1  0.749886  0.923995  0.404706  1
  O  O112  1  0.749262  0.924014  0.239650  1
  O  O113  1  0.249853  0.953250  0.331006  1
  O  O114  1  0.459494  0.966542  0.373093  1
  O  O115  1  0.040164  0.966555  0.296953  1
  O  O116  1  0.459494  0.966567  0.296933  1
  O  O117  1  0.040257  0.966585  0.373128  1
  O  O118  1  0.876595  0.986605  0.249189  1
  O  O119  1  0.622999  0.986657  0.432939  1
  O  O120  1  0.876673  0.986667  0.432959  1
  O  O121  1  0.622902  0.986739  0.249198  1
  O  O122  1  0.749734  0.957637  0.482981  1
  O  O123  1  0.249763  0.042402  0.508556  1
  O  O124  1  0.749925  0.542397  0.508524  1
  Si  Si125  1  0.249752  0.117559  0.316467  1
  Si  Si126  1  0.249854  0.117527  0.444571  1
  Si  Si127  1  0.462367  0.132521  0.385021  1
  Si  Si128  1  0.037206  0.132475  0.385036  1
  Si  Si129  1  0.598062  0.053485  0.361239  1
  Si  Si130  1  0.901310  0.053466  0.361195  1
  Si  Si131  1  0.499732  -0.000000  0.277961  1
  Si  Si132  1  0.249667  0.036270  0.251373  1
  Si  Si133  1  0.249850  0.036255  0.460715  1
  Si  Si134  1  0.000000  -0.000000  0.412265  1
  Si  Si135  1  0.249953  0.196568  0.299333  1
  Si  Si136  1  0.249948  0.303472  0.390860  1
  Si  Si137  1  0.027096  0.250007  0.345114  1
  Si  Si138  1  0.472806  0.250025  0.345090  1
  Si  Si139  1  0.902642  0.286267  0.280703  1
  Si  Si140  1  0.597402  0.286251  0.280682  1
  Si  Si141  1  0.597269  0.213786  0.409509  1
  Si  Si142  1  0.902513  0.213769  0.409528  1
  Si  Si143  1  0.037399  0.367552  0.305179  1
  Si  Si144  1  0.462561  0.367522  0.305177  1
  Si  Si145  1  0.249981  0.382489  0.373740  1
  Si  Si146  1  0.249996  0.382507  0.245635  1
  Si  Si147  1  0.901548  0.446566  0.328992  1
  Si  Si148  1  0.598304  0.446549  0.328976  1
  Si  Si149  1  0.249952  0.463775  0.438837  1
  Si  Si150  1  0.249900  0.463777  0.229490  1
  Si  Si151  1  0.499919  0.499998  0.277922  1
  Si  Si152  1  0.749809  0.617553  0.316425  1
  Si  Si153  1  0.749871  0.617516  0.444525  1
  Si  Si154  1  0.962438  0.632471  0.384971  1
  Si  Si155  1  0.537268  0.632509  0.384999  1
  Si  Si156  1  0.098376  0.553471  0.361183  1
  Si  Si157  1  0.401621  0.553465  0.361189  1
  Si  Si158  1  0.000000  0.500030  0.412244  1
  Si  Si159  1  0.000000  0.500016  0.277933  1
  Si  Si160  1  0.749869  0.536260  0.251338  1
  Si  Si161  1  0.749940  0.536250  0.460683  1
  Si  Si162  1  0.499961  0.500009  0.412241  1
  Si  Si163  1  0.749813  0.696562  0.299289  1
  Si  Si164  1  0.749682  0.803459  0.390838  1
  Si  Si165  1  0.526899  0.749986  0.345059  1
  Si  Si166  1  0.972595  0.750037  0.345066  1
  Si  Si167  1  0.402329  0.786242  0.280670  1
  Si  Si168  1  0.097081  0.786275  0.280639  1
  Si  Si169  1  0.097113  0.713767  0.409457  1
  Si  Si170  1  0.402359  0.713773  0.409495  1
  Si  Si171  1  0.537169  0.867515  0.305177  1
  Si  Si172  1  0.962333  0.867563  0.305155  1
  Si  Si173  1  0.749795  0.882479  0.373727  1
  Si  Si174  1  0.749671  0.882505  0.245621  1
  Si  Si175  1  0.401473  0.946554  0.328979  1
  Si  Si176  1  0.098225  0.946571  0.329017  1
  Si  Si177  1  -0.000000  -0.000000  0.277945  1
  Si  Si178  1  0.749642  0.963784  0.229497  1
  Si  Si179  1  0.749833  0.963763  0.438835  1
  Si  Si180  1  0.499777  0.000000  0.412258  1
  H  H181  1  0.249929  0.457630  0.154898  1
  H  H182  1  0.749734  0.957637  0.154904  1
  H  H183  1  0.249718  0.152040  0.512223  1
  H  H184  1  0.249763  0.042402  0.180479  1
  H  H185  1  0.249838  0.203258  0.228909  1
  H  H186  1  0.250104  0.296786  0.461285  1
  H  H187  1  0.554816  0.236670  0.481381  1
  H  H188  1  0.944934  0.236718  0.481387  1
  H  H189  1  0.945074  0.263373  0.208832  1
  H  H190  1  0.554922  0.263338  0.208819  1
  H  H191  1  0.249997  0.348006  0.177973  1
  H  H192  1  0.249929  0.457630  0.509725  1
  H  H193  1  0.749805  0.652027  0.512176  1
  H  H194  1  0.749925  0.542397  0.180447  1
  H  H195  1  0.749747  0.703244  0.228863  1
  H  H196  1  0.749683  0.796780  0.461266  1
  H  H197  1  0.054659  0.736664  0.481326  1
  H  H198  1  0.444789  0.736710  0.481357  1
  H  H199  1  0.444824  0.763363  0.208800  1
  H  H200  1  0.054678  0.763329  0.208777  1
  H  H201  1  0.749859  0.848000  0.177963  1
  H  H202  1  0.749734  0.957637  0.509732  1
  H  H203  1  0.249763  0.042402  0.535307  1
  H  H204  1  0.749925  0.542397  0.535275  1
