# generated using pymatgen
data_Si20H2O41
_symmetry_space_group_name_H-M   'P 1'
_cell_length_a   17.04919116
_cell_length_b   17.04860003
_cell_length_c   52.03716029
_cell_angle_alpha   90.00000000
_cell_angle_beta   90.00000000
_cell_angle_gamma   120.00000000
_symmetry_Int_Tables_number   1
_chemical_formula_structural   Si20H2O41
_chemical_formula_sum   'Si120 H12 O246'
_cell_volume   13098.9571874
_cell_formula_units_Z   6
loop_
 _symmetry_equiv_pos_site_id
 _symmetry_equiv_pos_as_xyz
  1  'x, y, z'
loop_
 _atom_site_type_symbol
 _atom_site_label
 _atom_site_symmetry_multiplicity
 _atom_site_fract_x
 _atom_site_fract_y
 _atom_site_fract_z
 _atom_site_occupancy
  O  O1  1  0.084211  0.395051  0.239554  1
  O  O2  1  0.310023  0.395109  0.239536  1
  O  O3  1  0.252654  0.253133  0.113400  1
  O  O4  1  0.252695  0.253135  0.210092  1
  O  O5  1  0.235367  0.235992  0.258603  1
  O  O6  1  0.085855  0.172685  0.127247  1
  O  O7  1  0.172328  0.086347  0.127231  1
  O  O8  1  0.172436  0.086346  0.196254  1
  O  O9  1  0.085895  0.172630  0.196262  1
  O  O10  1  0.202203  0.202624  0.161747  1
  O  O11  1  0.174396  0.087353  0.282774  1
  O  O12  1  0.252204  0.747144  0.249166  1
  O  O13  1  0.252302  0.505499  0.249171  1
  O  O14  1  0.310076  0.915276  0.239531  1
  O  O15  1  0.084103  0.689461  0.239564  1
  O  O16  1  0.143482  0.571926  0.246533  1
  O  O17  1  0.252679  0.000000  0.113381  1
  O  O18  1  0.252826  0.000000  0.210069  1
  O  O19  1  0.235585  0.000000  0.258579  1
  O  O20  1  0.085911  0.913519  0.127232  1
  O  O21  1  0.086025  0.913513  0.196255  1
  O  O22  1  0.202257  0.000000  0.161730  1
  O  O23  1  0.086983  0.912517  0.282779  1
  O  O24  1  0.504988  0.252700  0.249170  1
  O  O25  1  0.394560  0.310372  0.239567  1
  O  O26  1  0.394736  0.084570  0.239534  1
  O  O27  1  0.571472  0.427917  0.246536  1
  O  O28  1  0.571617  0.144069  0.246531  1
  O  O29  1  0.494086  0.747160  0.249179  1
  O  O30  1  0.604491  0.689472  0.239569  1
  O  O31  1  0.604372  0.915295  0.239572  1
  O  O32  1  0.427568  0.571957  0.246533  1
  O  O33  1  0.427465  0.855787  0.246528  1
  O  O34  1  0.746864  0.252713  0.249182  1
  O  O35  1  0.746721  0.494355  0.249174  1
  O  O36  1  0.689030  0.084580  0.239574  1
  O  O37  1  0.914955  0.310403  0.239570  1
  O  O38  1  0.855545  0.427916  0.246536  1
  O  O39  1  0.000000  0.253146  0.113424  1
  O  O40  1  0.913009  0.086339  0.127251  1
  O  O41  1  0.913057  0.086322  0.196276  1
  O  O42  1  -0.000000  0.202594  0.161766  1
  O  O43  1  0.000000  0.253095  0.210113  1
  O  O44  1  -0.000000  0.235912  0.258626  1
  O  O45  1  0.914830  0.604762  0.239540  1
  O  O46  1  0.689068  0.604792  0.239555  1
  O  O47  1  0.746315  0.746712  0.113424  1
  O  O48  1  0.746216  0.000000  0.113421  1
  O  O49  1  0.746417  0.746751  0.210112  1
  O  O50  1  0.763640  0.763934  0.258626  1
  O  O51  1  0.826606  0.913518  0.127251  1
  O  O52  1  0.913099  0.827165  0.127246  1
  O  O53  1  0.913201  0.827235  0.196261  1
  O  O54  1  0.826652  0.913524  0.196277  1
  O  O55  1  0.796834  0.797260  0.161765  1
  O  O56  1  0.746277  0.000000  0.210117  1
  O  O57  1  0.000000  0.797237  0.161747  1
  O  O58  1  0.000000  0.746723  0.210092  1
  O  O59  1  0.763512  0.000000  0.258630  1
  O  O60  1  0.796732  0.000000  0.161767  1
  O  O61  1  -0.000000  0.746734  0.113401  1
  O  O62  1  0.000000  0.763884  0.258603  1
  O  O63  1  0.084187  0.395057  0.326121  1
  O  O64  1  0.309959  0.395012  0.326098  1
  O  O65  1  0.084211  0.395051  0.481720  1
  O  O66  1  0.310023  0.395109  0.481702  1
  O  O67  1  0.134068  0.470111  0.282833  1
  O  O68  1  0.252654  0.253133  0.355566  1
  O  O69  1  0.252695  0.253135  0.452258  1
  O  O70  1  0.235531  0.235821  0.307055  1
  O  O71  1  0.235367  0.235992  0.500769  1
  O  O72  1  0.085855  0.172685  0.369413  1
  O  O73  1  0.172328  0.086347  0.369397  1
  O  O74  1  0.172436  0.086346  0.438420  1
  O  O75  1  0.085895  0.172630  0.438428  1
  O  O76  1  0.202203  0.202624  0.403913  1
  O  O77  1  0.086889  0.174671  0.282880  1
  O  O78  1  0.174396  0.087353  0.524940  1
  O  O79  1  0.252239  0.747177  0.316494  1
  O  O80  1  0.252284  0.505430  0.316490  1
  O  O81  1  0.252204  0.747144  0.491332  1
  O  O82  1  0.252302  0.505499  0.491337  1
  O  O83  1  0.309963  0.915288  0.326095  1
  O  O84  1  0.084134  0.689414  0.326126  1
  O  O85  1  0.310076  0.915276  0.481697  1
  O  O86  1  0.084103  0.689461  0.481730  1
  O  O87  1  0.134023  0.664279  0.282839  1
  O  O88  1  0.143550  0.571935  0.319138  1
  O  O89  1  0.143482  0.571926  0.488699  1
  O  O90  1  0.252679  -0.000000  0.355547  1
  O  O91  1  0.252826  0.000000  0.452235  1
  O  O92  1  0.235474  0.000000  0.307033  1
  O  O93  1  0.235585  0.000000  0.500745  1
  O  O94  1  0.085911  0.913519  0.369398  1
  O  O95  1  0.086025  0.913513  0.438421  1
  O  O96  1  0.202257  0.000000  0.403896  1
  O  O97  1  0.086983  0.912517  0.524945  1
  O  O98  1  0.504989  0.252668  0.316498  1
  O  O99  1  0.504988  0.252700  0.491336  1
  O  O100  1  0.394639  0.310425  0.326128  1
  O  O101  1  0.394616  0.084555  0.326100  1
  O  O102  1  0.394560  0.310372  0.481733  1
  O  O103  1  0.394736  0.084570  0.481700  1
  O  O104  1  0.469666  0.335560  0.282842  1
  O  O105  1  0.663907  0.134543  0.282846  1
  O  O106  1  0.335165  0.470121  0.282825  1
  O  O107  1  0.469726  0.134492  0.282826  1
  O  O108  1  0.571531  0.427909  0.319141  1
  O  O109  1  0.571534  0.143992  0.319142  1
  O  O110  1  0.571472  0.427917  0.488702  1
  O  O111  1  0.571617  0.144069  0.488697  1
  O  O112  1  0.494011  0.747147  0.316509  1
  O  O113  1  0.494086  0.747160  0.491345  1
  O  O114  1  0.604402  0.689433  0.326132  1
  O  O115  1  0.604336  0.915284  0.326120  1
  O  O116  1  0.604491  0.689472  0.481735  1
  O  O117  1  0.604372  0.915295  0.481738  1
  O  O118  1  0.529387  0.664287  0.282847  1
  O  O119  1  0.335144  0.865354  0.282823  1
  O  O120  1  0.529285  0.865325  0.282844  1
  O  O121  1  0.663867  0.529738  0.282835  1
  O  O122  1  0.427517  0.571909  0.319139  1
  O  O123  1  0.427458  0.855867  0.319139  1
  O  O124  1  0.427568  0.571957  0.488699  1
  O  O125  1  0.427465  0.855787  0.488694  1
  O  O126  1  0.746805  0.252720  0.316512  1
  O  O127  1  0.746772  0.494430  0.316493  1
  O  O128  1  0.746864  0.252713  0.491348  1
  O  O129  1  0.746721  0.494355  0.491340  1
  O  O130  1  0.689001  0.084582  0.326122  1
  O  O131  1  0.914913  0.310450  0.326136  1
  O  O132  1  0.689030  0.084580  0.481740  1
  O  O133  1  0.914955  0.310403  0.481736  1
  O  O134  1  0.865039  0.335588  0.282850  1
  O  O135  1  0.855534  0.427960  0.319142  1
  O  O136  1  0.855545  0.427916  0.488702  1
  O  O137  1  0.000000  0.235888  0.307081  1
  O  O138  1  0.000000  0.253146  0.355590  1
  O  O139  1  0.913009  0.086339  0.369417  1
  O  O140  1  0.913057  0.086322  0.438442  1
  O  O141  1  -0.000000  0.202594  0.403932  1
  O  O142  1  0.912067  0.087345  0.282849  1
  O  O143  1  0.000000  0.253095  0.452279  1
  O  O144  1  0.000000  0.235912  0.500792  1
  O  O145  1  0.914868  0.604856  0.326100  1
  O  O146  1  0.689035  0.604791  0.326123  1
  O  O147  1  0.914830  0.604762  0.481706  1
  O  O148  1  0.689068  0.604792  0.481721  1
  O  O149  1  0.864962  0.529744  0.282828  1
  O  O150  1  0.746315  0.746712  0.355590  1
  O  O151  1  0.746216  0.000000  0.355587  1
  O  O152  1  0.746417  0.746751  0.452278  1
  O  O153  1  0.763555  0.763956  0.307080  1
  O  O154  1  0.763640  0.763934  0.500792  1
  O  O155  1  0.826606  0.913518  0.369417  1
  O  O156  1  0.913099  0.827165  0.369412  1
  O  O157  1  0.913201  0.827235  0.438427  1
  O  O158  1  0.826652  0.913524  0.438443  1
  O  O159  1  0.796834  0.797260  0.403931  1
  O  O160  1  0.000000  0.764041  0.307055  1
  O  O161  1  0.824649  0.912500  0.282849  1
  O  O162  1  0.912158  0.825186  0.282877  1
  O  O163  1  0.746277  0.000000  0.452283  1
  O  O164  1  0.000000  0.797237  0.403913  1
  O  O165  1  -0.000000  0.746723  0.452258  1
  O  O166  1  0.763513  0.000000  0.307081  1
  O  O167  1  0.763512  0.000000  0.500796  1
  O  O168  1  0.796732  0.000000  0.403933  1
  O  O169  1  -0.000000  0.746734  0.355567  1
  O  O170  1  0.000000  0.763884  0.500769  1
  O  O171  1  0.084187  0.395057  0.568287  1
  O  O172  1  0.309959  0.395012  0.568264  1
  O  O173  1  0.134068  0.470111  0.524999  1
  O  O174  1  0.252654  0.253133  0.597732  1
  O  O175  1  0.252695  0.253135  0.694424  1
  O  O176  1  0.235531  0.235821  0.549221  1
  O  O177  1  0.085855  0.172685  0.611579  1
  O  O178  1  0.172328  0.086347  0.611563  1
  O  O179  1  0.172436  0.086346  0.680586  1
  O  O180  1  0.085895  0.172630  0.680594  1
  O  O181  1  0.202203  0.202624  0.646079  1
  O  O182  1  0.086889  0.174671  0.525046  1
  O  O183  1  0.252239  0.747177  0.558660  1
  O  O184  1  0.252284  0.505430  0.558656  1
  O  O185  1  0.309963  0.915288  0.568262  1
  O  O186  1  0.084134  0.689414  0.568292  1
  O  O187  1  0.134023  0.664279  0.525005  1
  O  O188  1  0.143550  0.571935  0.561304  1
  O  O189  1  0.252679  0.000000  0.597713  1
  O  O190  1  0.252826  0.000000  0.694401  1
  O  O191  1  0.235474  0.000000  0.549199  1
  O  O192  1  0.085911  0.913519  0.611564  1
  O  O193  1  0.086025  0.913513  0.680587  1
  O  O194  1  0.202257  -0.000000  0.646062  1
  O  O195  1  0.504989  0.252668  0.558664  1
  O  O196  1  0.394639  0.310425  0.568294  1
  O  O197  1  0.394616  0.084555  0.568266  1
  O  O198  1  0.469666  0.335560  0.525008  1
  O  O199  1  0.663907  0.134543  0.525012  1
  O  O200  1  0.335165  0.470121  0.524991  1
  O  O201  1  0.469726  0.134492  0.524992  1
  O  O202  1  0.571531  0.427909  0.561307  1
  O  O203  1  0.571534  0.143992  0.561308  1
  O  O204  1  0.494011  0.747147  0.558675  1
  O  O205  1  0.604402  0.689433  0.568298  1
  O  O206  1  0.604336  0.915284  0.568286  1
  O  O207  1  0.529387  0.664287  0.525013  1
  O  O208  1  0.335144  0.865354  0.524989  1
  O  O209  1  0.529285  0.865325  0.525010  1
  O  O210  1  0.663867  0.529738  0.525001  1
  O  O211  1  0.427517  0.571909  0.561305  1
  O  O212  1  0.427458  0.855867  0.561305  1
  O  O213  1  0.746805  0.252720  0.558678  1
  O  O214  1  0.746772  0.494430  0.558659  1
  O  O215  1  0.689001  0.084582  0.568288  1
  O  O216  1  0.914913  0.310450  0.568302  1
  O  O217  1  0.865039  0.335588  0.525016  1
  O  O218  1  0.855534  0.427960  0.561308  1
  O  O219  1  0.000000  0.235888  0.549247  1
  O  O220  1  0.000000  0.253146  0.597756  1
  O  O221  1  0.913009  0.086339  0.611583  1
  O  O222  1  0.913057  0.086322  0.680608  1
  O  O223  1  -0.000000  0.202594  0.646098  1
  O  O224  1  0.912067  0.087345  0.525015  1
  O  O225  1  0.000000  0.253095  0.694445  1
  O  O226  1  0.914868  0.604856  0.568266  1
  O  O227  1  0.689035  0.604791  0.568289  1
  O  O228  1  0.864962  0.529744  0.524994  1
  O  O229  1  0.746315  0.746712  0.597756  1
  O  O230  1  0.746216  0.000000  0.597753  1
  O  O231  1  0.746417  0.746751  0.694444  1
  O  O232  1  0.763555  0.763956  0.549246  1
  O  O233  1  0.826606  0.913518  0.611583  1
  O  O234  1  0.913099  0.827165  0.611578  1
  O  O235  1  0.913201  0.827235  0.680593  1
  O  O236  1  0.826652  0.913524  0.680609  1
  O  O237  1  0.796834  0.797260  0.646097  1
  O  O238  1  0.000000  0.764041  0.549221  1
  O  O239  1  0.824649  0.912500  0.525015  1
  O  O240  1  0.912158  0.825186  0.525043  1
  O  O241  1  0.746277  0.000000  0.694449  1
  O  O242  1  -0.000000  0.797237  0.646079  1
  O  O243  1  -0.000000  0.746723  0.694424  1
  O  O244  1  0.763513  0.000000  0.549247  1
  O  O245  1  0.796732  0.000000  0.646099  1
  O  O246  1  0.000000  0.746734  0.597733  1
  Si  Si247  1  0.180647  0.181024  0.191268  1
  Si  Si248  1  0.297407  0.297886  0.236514  1
  Si  Si249  1  0.332759  0.486283  0.253138  1
  Si  Si250  1  0.152624  0.486256  0.253145  1
  Si  Si251  1  0.180597  0.181044  0.132227  1
  Si  Si252  1  0.297553  0.000000  0.236492  1
  Si  Si253  1  0.152541  0.666700  0.253150  1
  Si  Si254  1  0.182101  -0.000000  0.282792  1
  Si  Si255  1  0.332717  0.846780  0.253137  1
  Si  Si256  1  0.180723  -0.000000  0.191254  1
  Si  Si257  1  0.180629  0.000000  0.132213  1
  Si  Si258  1  0.485869  0.153064  0.253140  1
  Si  Si259  1  0.485762  0.333142  0.253152  1
  Si  Si260  1  0.666354  0.153081  0.253158  1
  Si  Si261  1  0.513295  0.666708  0.253157  1
  Si  Si262  1  0.513198  0.846790  0.253155  1
  Si  Si263  1  0.666278  0.513589  0.253148  1
  Si  Si264  1  0.846522  0.333164  0.253160  1
  Si  Si265  1  0.000000  0.181019  0.132243  1
  Si  Si266  1  -0.000000  0.180997  0.191284  1
  Si  Si267  1  -0.000000  0.297845  0.236531  1
  Si  Si268  1  0.818446  0.818853  0.191284  1
  Si  Si269  1  0.846398  0.513586  0.253141  1
  Si  Si270  1  0.701559  0.000000  0.236540  1
  Si  Si271  1  0.701670  0.702008  0.236531  1
  Si  Si272  1  0.818377  0.818833  0.132243  1
  Si  Si273  1  0.000000  0.818839  0.191268  1
  Si  Si274  1  -0.000000  0.818819  0.132227  1
  Si  Si275  1  0.000000  0.701972  0.236514  1
  Si  Si276  1  0.818334  0.000000  0.191286  1
  Si  Si277  1  0.818299  0.000000  0.132245  1
  Si  Si278  1  0.182042  0.182451  0.282828  1
  Si  Si279  1  0.180647  0.181024  0.433434  1
  Si  Si280  1  0.297407  0.297886  0.478680  1
  Si  Si281  1  0.332759  0.486283  0.495304  1
  Si  Si282  1  0.152622  0.486232  0.312521  1
  Si  Si283  1  0.152624  0.486256  0.495311  1
  Si  Si284  1  0.180597  0.181044  0.374393  1
  Si  Si285  1  0.297430  0.297836  0.329147  1
  Si  Si286  1  0.332738  0.486222  0.312514  1
  Si  Si287  1  0.297553  0.000000  0.478658  1
  Si  Si288  1  0.152586  0.666700  0.312525  1
  Si  Si289  1  0.152541  0.666700  0.495316  1
  Si  Si290  1  0.182101  0.000000  0.524958  1
  Si  Si291  1  0.332717  0.846780  0.495303  1
  Si  Si292  1  0.180723  0.000000  0.433420  1
  Si  Si293  1  0.297416  0.000000  0.329127  1
  Si  Si294  1  0.180629  0.000000  0.374379  1
  Si  Si295  1  0.332707  0.846830  0.312513  1
  Si  Si296  1  0.485808  0.333144  0.312529  1
  Si  Si297  1  0.485869  0.153064  0.495306  1
  Si  Si298  1  0.485812  0.153016  0.312516  1
  Si  Si299  1  0.485762  0.333142  0.495318  1
  Si  Si300  1  0.666316  0.153073  0.312534  1
  Si  Si301  1  0.666354  0.153081  0.495324  1
  Si  Si302  1  0.513228  0.666694  0.312533  1
  Si  Si303  1  0.513165  0.846796  0.312531  1
  Si  Si304  1  0.513295  0.666708  0.495323  1
  Si  Si305  1  0.513198  0.846790  0.495321  1
  Si  Si306  1  0.666300  0.513616  0.312523  1
  Si  Si307  1  0.666278  0.513589  0.495314  1
  Si  Si308  1  0.846522  0.333164  0.495326  1
  Si  Si309  1  0.000000  0.181019  0.374409  1
  Si  Si310  1  -0.000000  0.180997  0.433450  1
  Si  Si311  1  0.846470  0.333177  0.312536  1
  Si  Si312  1  0.000000  0.182446  0.282858  1
  Si  Si313  1  -0.000000  0.297845  0.478697  1
  Si  Si314  1  -0.000000  0.297880  0.329168  1
  Si  Si315  1  0.817001  0.817400  0.282857  1
  Si  Si316  1  0.000000  0.817417  0.282829  1
  Si  Si317  1  0.818446  0.818853  0.433450  1
  Si  Si318  1  -0.000000  0.702022  0.329147  1
  Si  Si319  1  0.846436  0.513646  0.312517  1
  Si  Si320  1  0.846398  0.513586  0.495307  1
  Si  Si321  1  0.701587  0.701980  0.329167  1
  Si  Si322  1  0.701517  0.000000  0.329160  1
  Si  Si323  1  0.701559  0.000000  0.478706  1
  Si  Si324  1  0.701670  0.702008  0.478697  1
  Si  Si325  1  0.818377  0.818833  0.374409  1
  Si  Si326  1  0.000000  0.818839  0.433434  1
  Si  Si327  1  0.000000  0.818819  0.374393  1
  Si  Si328  1  0.816949  0.000000  0.282855  1
  Si  Si329  1  0.000000  0.701972  0.478680  1
  Si  Si330  1  0.818334  0.000000  0.433452  1
  Si  Si331  1  0.818299  -0.000000  0.374411  1
  Si  Si332  1  0.182042  0.182451  0.524994  1
  Si  Si333  1  0.180647  0.181024  0.675600  1
  Si  Si334  1  0.152622  0.486232  0.554687  1
  Si  Si335  1  0.180597  0.181044  0.616559  1
  Si  Si336  1  0.297430  0.297836  0.571313  1
  Si  Si337  1  0.332738  0.486222  0.554680  1
  Si  Si338  1  0.152586  0.666700  0.554691  1
  Si  Si339  1  0.180723  0.000000  0.675586  1
  Si  Si340  1  0.297416  0.000000  0.571293  1
  Si  Si341  1  0.180629  0.000000  0.616545  1
  Si  Si342  1  0.332707  0.846830  0.554679  1
  Si  Si343  1  0.485808  0.333144  0.554695  1
  Si  Si344  1  0.485812  0.153016  0.554682  1
  Si  Si345  1  0.666316  0.153073  0.554700  1
  Si  Si346  1  0.513228  0.666694  0.554699  1
  Si  Si347  1  0.513165  0.846796  0.554697  1
  Si  Si348  1  0.666300  0.513616  0.554689  1
  Si  Si349  1  0.000000  0.181019  0.616575  1
  Si  Si350  1  0.000000  0.180997  0.675616  1
  Si  Si351  1  0.846470  0.333177  0.554702  1
  Si  Si352  1  0.000000  0.182446  0.525024  1
  Si  Si353  1  0.000000  0.297880  0.571334  1
  Si  Si354  1  0.817001  0.817400  0.525023  1
  Si  Si355  1  0.000000  0.817417  0.524995  1
  Si  Si356  1  0.818446  0.818853  0.675616  1
  Si  Si357  1  -0.000000  0.702022  0.571313  1
  Si  Si358  1  0.846436  0.513646  0.554683  1
  Si  Si359  1  0.701587  0.701980  0.571333  1
  Si  Si360  1  0.701517  -0.000000  0.571326  1
  Si  Si361  1  0.818377  0.818833  0.616575  1
  Si  Si362  1  0.000000  0.818839  0.675600  1
  Si  Si363  1  0.000000  0.818819  0.616559  1
  Si  Si364  1  0.816949  0.000000  0.525021  1
  Si  Si365  1  0.818334  0.000000  0.675618  1
  Si  Si366  1  0.818299  0.000000  0.616577  1
  H  H367  1  0.252654  0.253133  0.096105  1
  H  H368  1  0.252679  0.000000  0.096085  1
  H  H369  1  0.000000  0.253146  0.096129  1
  H  H370  1  0.746315  0.746712  0.096128  1
  H  H371  1  0.746216  0.000000  0.096126  1
  H  H372  1  -0.000000  0.746734  0.096105  1
  H  H373  1  0.252695  0.253135  0.711720  1
  H  H374  1  0.252826  -0.000000  0.711697  1
  H  H375  1  0.000000  0.253095  0.711740  1
  H  H376  1  0.746417  0.746751  0.711740  1
  H  H377  1  0.746277  -0.000000  0.711744  1
  H  H378  1  0.000000  0.746723  0.711720  1
