# generated using pymatgen
data_Si40H2O81
_symmetry_space_group_name_H-M   'P 1'
_cell_length_a   13.15239484
_cell_length_b   13.70814893
_cell_length_c   76.85454116
_cell_angle_alpha   90.00000000
_cell_angle_beta   90.00000000
_cell_angle_gamma   102.90500000
_symmetry_Int_Tables_number   1
_chemical_formula_structural   Si40H2O81
_chemical_formula_sum   'Si160 H8 O324'
_cell_volume   13506.4972892
_cell_formula_units_Z   4
loop_
 _symmetry_equiv_pos_site_id
 _symmetry_equiv_pos_as_xyz
  1  'x, y, z'
loop_
 _atom_site_type_symbol
 _atom_site_label
 _atom_site_symmetry_multiplicity
 _atom_site_fract_x
 _atom_site_fract_y
 _atom_site_fract_z
 _atom_site_occupancy
  O  O1  1  0.158072  0.540926  0.283892  1
  O  O2  1  0.402993  0.680417  0.248506  1
  O  O3  1  0.340886  0.533660  0.226388  1
  O  O4  1  0.244775  0.818953  0.199960  1
  O  O5  1  0.362889  0.807111  0.227787  1
  O  O6  1  0.271402  0.519515  0.257851  1
  O  O7  1  0.595764  0.567386  0.277444  1
  O  O8  1  0.214488  0.731393  0.284207  1
  O  O9  1  0.336553  0.824756  0.261123  1
  O  O10  1  0.517520  0.866334  0.248608  1
  O  O11  1  0.204984  0.910217  0.277114  1
  O  O12  1  0.641075  0.889608  0.273733  1
  O  O13  1  0.302872  0.660725  0.206501  1
  O  O14  1  0.647444  0.738925  0.292518  1
  O  O15  1  0.704669  0.984105  0.245542  1
  O  O16  1  0.362539  0.870064  0.293567  1
  O  O17  1  0.461296  0.519062  0.252275  1
  O  O18  1  0.604308  0.226244  0.267169  1
  O  O19  1  0.840883  0.033662  0.219499  1
  O  O20  1  0.744795  0.318956  0.245930  1
  O  O21  1  0.746897  0.365050  0.277613  1
  O  O22  1  0.862886  0.307108  0.218100  1
  O  O23  1  0.064790  0.026221  0.272387  1
  O  O24  1  0.569086  0.035959  0.265665  1
  O  O25  1  0.604303  0.411343  0.258952  1
  O  O26  1  0.931301  0.342948  0.282143  1
  O  O27  1  0.106845  0.378246  0.266108  1
  O  O28  1  0.000000  0.192573  0.270683  1
  O  O29  1  0.902988  0.044968  0.252371  1
  O  O30  1  0.455577  0.412185  0.279017  1
  O  O31  1  0.247763  0.088598  0.286468  1
  O  O32  1  0.268883  0.410394  0.284879  1
  O  O33  1  0.802890  0.160727  0.239389  1
  O  O34  1  0.934366  0.307678  0.249938  1
  O  O35  1  0.450723  0.127738  0.284356  1
  O  O36  1  0.204645  0.484105  0.200347  1
  O  O37  1  0.891900  0.038385  0.285161  1
  O  O38  1  0.341829  0.958989  0.142560  1
  O  O39  1  0.096909  0.819498  0.107173  1
  O  O40  1  0.104284  0.726238  0.178721  1
  O  O41  1  0.246870  0.865045  0.168276  1
  O  O42  1  0.564758  0.526217  0.173499  1
  O  O43  1  0.069062  0.535955  0.180224  1
  O  O44  1  0.104277  0.911336  0.186936  1
  O  O45  1  0.431273  0.842947  0.163744  1
  O  O46  1  0.606821  0.878236  0.179778  1
  O  O47  1  0.228500  0.980400  0.116519  1
  O  O48  1  0.500265  0.692567  0.175204  1
  O  O49  1  0.904138  0.932529  0.136112  1
  O  O50  1  0.285414  0.768522  0.142875  1
  O  O51  1  0.163349  0.675159  0.119791  1
  O  O52  1  0.982382  0.633581  0.107276  1
  O  O53  1  0.402959  0.544964  0.193516  1
  O  O54  1  0.955552  0.912178  0.166871  1
  O  O55  1  0.747732  0.588591  0.159418  1
  O  O56  1  0.768859  0.910398  0.161007  1
  O  O57  1  0.294918  0.589697  0.135782  1
  O  O58  1  0.858827  0.610307  0.132401  1
  O  O59  1  0.434343  0.807673  0.195949  1
  O  O60  1  0.137363  0.629851  0.152235  1
  O  O61  1  0.950692  0.627736  0.161534  1
  O  O62  1  0.852457  0.760990  0.151186  1
  O  O63  1  0.038605  0.980852  0.110943  1
  O  O64  1  0.391867  0.538378  0.160726  1
  O  O65  1  0.658042  0.040923  0.161996  1
  O  O66  1  0.902965  0.180413  0.197380  1
  O  O67  1  0.895594  0.273671  0.125837  1
  O  O68  1  0.753005  0.134865  0.136281  1
  O  O69  1  0.435112  0.473694  0.131055  1
  O  O70  1  0.930816  0.463956  0.124333  1
  O  O71  1  0.895598  0.088572  0.117620  1
  O  O72  1  0.568600  0.156967  0.140811  1
  O  O73  1  0.393056  0.121669  0.124776  1
  O  O74  1  0.771374  0.019505  0.188037  1
  O  O75  1  0.499604  0.307342  0.129350  1
  O  O76  1  0.095743  0.067376  0.168443  1
  O  O77  1  0.714457  0.231389  0.161682  1
  O  O78  1  0.836524  0.324760  0.184765  1
  O  O79  1  0.017501  0.366326  0.197278  1
  O  O80  1  0.596914  0.454947  0.111039  1
  O  O81  1  0.044325  0.087729  0.137685  1
  O  O82  1  0.252139  0.411316  0.145136  1
  O  O83  1  0.231019  0.089520  0.143547  1
  O  O84  1  0.704949  0.410213  0.168773  1
  O  O85  1  0.141062  0.389611  0.172155  1
  O  O86  1  0.565536  0.192237  0.108606  1
  O  O87  1  0.862506  0.370062  0.152321  1
  O  O88  1  0.049179  0.372177  0.143023  1
  O  O89  1  0.147411  0.238919  0.153370  1
  O  O90  1  0.608002  0.461530  0.143828  1
  O  O91  1  0.961274  0.019061  0.193611  1
  O  O92  1  0.159016  0.966254  0.085056  1
  O  O93  1  0.137013  0.692803  0.086455  1
  O  O94  1  0.795233  0.515810  0.104210  1
  O  O95  1  0.659018  0.466253  0.078167  1
  O  O96  1  0.755106  0.180959  0.104598  1
  O  O97  1  0.637016  0.192806  0.076768  1
  O  O98  1  0.697012  0.339188  0.098057  1
  O  O99  1  0.158072  0.540926  0.566556  1
  O  O100  1  0.402993  0.680417  0.531170  1
  O  O101  1  0.340886  0.533660  0.509053  1
  O  O102  1  0.244775  0.818953  0.482624  1
  O  O103  1  0.362889  0.807111  0.510452  1
  O  O104  1  0.271402  0.519515  0.540515  1
  O  O105  1  0.595764  0.567386  0.560108  1
  O  O106  1  0.214488  0.731393  0.566871  1
  O  O107  1  0.336553  0.824756  0.543788  1
  O  O108  1  0.517520  0.866334  0.531273  1
  O  O109  1  0.204984  0.910217  0.559778  1
  O  O110  1  0.641075  0.889608  0.556397  1
  O  O111  1  0.302872  0.660725  0.489165  1
  O  O112  1  0.647444  0.738925  0.575182  1
  O  O113  1  0.704669  0.984105  0.528207  1
  O  O114  1  0.362539  0.870064  0.576231  1
  O  O115  1  0.461296  0.519062  0.534939  1
  O  O116  1  0.604308  0.226244  0.549833  1
  O  O117  1  0.840883  0.033662  0.502163  1
  O  O118  1  0.744795  0.318956  0.528594  1
  O  O119  1  0.746897  0.365050  0.560277  1
  O  O120  1  0.862886  0.307108  0.500765  1
  O  O121  1  0.064790  0.026221  0.555051  1
  O  O122  1  0.569086  0.035959  0.548329  1
  O  O123  1  0.604303  0.411343  0.541616  1
  O  O124  1  0.931301  0.342948  0.564808  1
  O  O125  1  0.106845  0.378246  0.548773  1
  O  O126  1  -0.000000  0.192573  0.553347  1
  O  O127  1  0.902988  0.044968  0.535035  1
  O  O128  1  0.455577  0.412185  0.561681  1
  O  O129  1  0.247763  0.088598  0.569133  1
  O  O130  1  0.268883  0.410394  0.567543  1
  O  O131  1  0.802890  0.160727  0.522053  1
  O  O132  1  0.934366  0.307678  0.532602  1
  O  O133  1  0.450723  0.127738  0.567020  1
  O  O134  1  0.204645  0.484105  0.483011  1
  O  O135  1  0.891900  0.038385  0.567825  1
  O  O136  1  0.341829  0.958989  0.425224  1
  O  O137  1  0.096909  0.819498  0.389838  1
  O  O138  1  0.104284  0.726238  0.461385  1
  O  O139  1  0.246870  0.865045  0.450940  1
  O  O140  1  0.564758  0.526217  0.456163  1
  O  O141  1  0.069062  0.535955  0.462888  1
  O  O142  1  0.104277  0.911336  0.469600  1
  O  O143  1  0.431273  0.842947  0.446408  1
  O  O144  1  0.606821  0.878236  0.462442  1
  O  O145  1  0.228500  0.980400  0.399184  1
  O  O146  1  0.500265  0.692567  0.457868  1
  O  O147  1  0.904138  0.932529  0.418776  1
  O  O148  1  0.285414  0.768522  0.425539  1
  O  O149  1  0.163349  0.675159  0.402455  1
  O  O150  1  0.982382  0.633581  0.389940  1
  O  O151  1  0.402959  0.544964  0.476180  1
  O  O152  1  0.955552  0.912178  0.449535  1
  O  O153  1  0.747732  0.588591  0.442082  1
  O  O154  1  0.768859  0.910398  0.443672  1
  O  O155  1  0.294918  0.589697  0.418446  1
  O  O156  1  0.858827  0.610307  0.415065  1
  O  O157  1  0.434343  0.807673  0.478614  1
  O  O158  1  0.137363  0.629851  0.434899  1
  O  O159  1  0.950692  0.627736  0.444198  1
  O  O160  1  0.852457  0.760990  0.433850  1
  O  O161  1  0.038605  0.980852  0.393607  1
  O  O162  1  0.391867  0.538378  0.443390  1
  O  O163  1  0.658042  0.040923  0.444661  1
  O  O164  1  0.902965  0.180413  0.480044  1
  O  O165  1  0.895594  0.273671  0.408501  1
  O  O166  1  0.753005  0.134865  0.418945  1
  O  O167  1  0.435112  0.473694  0.413720  1
  O  O168  1  0.930816  0.463956  0.406997  1
  O  O169  1  0.895598  0.088572  0.400284  1
  O  O170  1  0.568600  0.156967  0.423475  1
  O  O171  1  0.393056  0.121669  0.407441  1
  O  O172  1  0.771374  0.019505  0.470701  1
  O  O173  1  0.499604  0.307342  0.412015  1
  O  O174  1  0.095743  0.067376  0.451107  1
  O  O175  1  0.714457  0.231389  0.444346  1
  O  O176  1  0.836524  0.324760  0.467429  1
  O  O177  1  0.017501  0.366326  0.479942  1
  O  O178  1  0.596914  0.454947  0.393703  1
  O  O179  1  0.044325  0.087729  0.420349  1
  O  O180  1  0.252139  0.411316  0.427801  1
  O  O181  1  0.231019  0.089520  0.426211  1
  O  O182  1  0.704949  0.410213  0.451437  1
  O  O183  1  0.141062  0.389611  0.454819  1
  O  O184  1  0.565536  0.192237  0.391270  1
  O  O185  1  0.862506  0.370062  0.434986  1
  O  O186  1  0.049179  0.372177  0.425688  1
  O  O187  1  0.147411  0.238919  0.436034  1
  O  O188  1  0.608002  0.461530  0.426493  1
  O  O189  1  0.961274  0.019061  0.476275  1
  O  O190  1  0.395617  0.773677  0.320053  1
  O  O191  1  0.159016  0.966254  0.367721  1
  O  O192  1  0.255127  0.680962  0.341292  1
  O  O193  1  0.253032  0.634870  0.309608  1
  O  O194  1  0.137013  0.692803  0.369119  1
  O  O195  1  0.935144  0.973698  0.314831  1
  O  O196  1  0.430840  0.963960  0.321556  1
  O  O197  1  0.395625  0.588579  0.328268  1
  O  O198  1  0.068629  0.656968  0.305076  1
  O  O199  1  0.893081  0.621678  0.321110  1
  O  O200  1  -0.000000  0.807348  0.316536  1
  O  O201  1  0.096943  0.954951  0.334848  1
  O  O202  1  0.544350  0.587737  0.308203  1
  O  O203  1  0.752170  0.911323  0.300750  1
  O  O204  1  0.731042  0.589517  0.302339  1
  O  O205  1  0.197030  0.839189  0.347833  1
  O  O206  1  0.065558  0.692242  0.337282  1
  O  O207  1  0.549210  0.872179  0.302866  1
  O  O208  1  0.795233  0.515810  0.386874  1
  O  O209  1  0.108035  0.961537  0.302058  1
  O  O210  1  0.841860  0.458992  0.303329  1
  O  O211  1  0.596937  0.319501  0.338712  1
  O  O212  1  0.659018  0.466253  0.360831  1
  O  O213  1  0.755106  0.180959  0.387262  1
  O  O214  1  0.637016  0.192806  0.359433  1
  O  O215  1  0.728528  0.480410  0.329369  1
  O  O216  1  0.404158  0.432539  0.309775  1
  O  O217  1  0.785445  0.268526  0.303014  1
  O  O218  1  0.663378  0.175155  0.326097  1
  O  O219  1  0.482401  0.133589  0.338610  1
  O  O220  1  0.794953  0.089702  0.310105  1
  O  O221  1  0.358839  0.110304  0.313487  1
  O  O222  1  0.697012  0.339188  0.380721  1
  O  O223  1  0.352491  0.260996  0.294702  1
  O  O224  1  0.295256  0.015809  0.341679  1
  O  O225  1  0.637396  0.129853  0.293653  1
  O  O226  1  0.538628  0.480854  0.334943  1
  O  O227  1  0.340886  0.533660  0.791717  1
  O  O228  1  0.244775  0.818953  0.765288  1
  O  O229  1  0.362889  0.807111  0.793116  1
  O  O230  1  0.302872  0.660725  0.771829  1
  O  O231  1  0.840883  0.033662  0.784827  1
  O  O232  1  0.862886  0.307108  0.783429  1
  O  O233  1  0.204645  0.484105  0.765675  1
  O  O234  1  0.341829  0.958989  0.707888  1
  O  O235  1  0.096909  0.819498  0.672502  1
  O  O236  1  0.104284  0.726238  0.744049  1
  O  O237  1  0.246870  0.865045  0.733604  1
  O  O238  1  0.564758  0.526217  0.738827  1
  O  O239  1  0.069062  0.535955  0.745552  1
  O  O240  1  0.104277  0.911336  0.752264  1
  O  O241  1  0.431273  0.842947  0.729072  1
  O  O242  1  0.606821  0.878236  0.745107  1
  O  O243  1  0.228500  0.980400  0.681848  1
  O  O244  1  0.500265  0.692567  0.740532  1
  O  O245  1  0.904138  0.932529  0.701441  1
  O  O246  1  0.285414  0.768522  0.708203  1
  O  O247  1  0.163349  0.675159  0.685120  1
  O  O248  1  0.982382  0.633581  0.672605  1
  O  O249  1  0.402959  0.544964  0.758844  1
  O  O250  1  0.955552  0.912178  0.732199  1
  O  O251  1  0.747732  0.588591  0.724746  1
  O  O252  1  0.768859  0.910398  0.726336  1
  O  O253  1  0.294918  0.589697  0.701110  1
  O  O254  1  0.858827  0.610307  0.697730  1
  O  O255  1  0.434343  0.807673  0.761278  1
  O  O256  1  0.137363  0.629851  0.717563  1
  O  O257  1  0.950692  0.627736  0.726862  1
  O  O258  1  0.852457  0.760990  0.716515  1
  O  O259  1  0.038605  0.980852  0.676271  1
  O  O260  1  0.391867  0.538378  0.726054  1
  O  O261  1  0.658042  0.040923  0.727325  1
  O  O262  1  0.902965  0.180413  0.762708  1
  O  O263  1  0.895594  0.273671  0.691165  1
  O  O264  1  0.753005  0.134865  0.701609  1
  O  O265  1  0.435112  0.473694  0.696384  1
  O  O266  1  0.930816  0.463956  0.689661  1
  O  O267  1  0.895598  0.088572  0.682948  1
  O  O268  1  0.568600  0.156967  0.706140  1
  O  O269  1  0.393056  0.121669  0.690105  1
  O  O270  1  0.771374  0.019505  0.753365  1
  O  O271  1  0.499604  0.307342  0.694679  1
  O  O272  1  0.095743  0.067376  0.733771  1
  O  O273  1  0.714457  0.231389  0.727010  1
  O  O274  1  0.836524  0.324760  0.750093  1
  O  O275  1  0.017501  0.366326  0.762606  1
  O  O276  1  0.596914  0.454947  0.676367  1
  O  O277  1  0.044325  0.087729  0.703013  1
  O  O278  1  0.252139  0.411316  0.710465  1
  O  O279  1  0.231019  0.089520  0.708876  1
  O  O280  1  0.704949  0.410213  0.734102  1
  O  O281  1  0.141062  0.389611  0.737483  1
  O  O282  1  0.565536  0.192237  0.673934  1
  O  O283  1  0.862506  0.370062  0.717650  1
  O  O284  1  0.049179  0.372177  0.708352  1
  O  O285  1  0.147411  0.238919  0.718698  1
  O  O286  1  0.608002  0.461530  0.709157  1
  O  O287  1  0.961274  0.019061  0.758940  1
  O  O288  1  0.395617  0.773677  0.602717  1
  O  O289  1  0.159016  0.966254  0.650385  1
  O  O290  1  0.255127  0.680962  0.623956  1
  O  O291  1  0.253032  0.634870  0.592272  1
  O  O292  1  0.137013  0.692803  0.651784  1
  O  O293  1  0.935144  0.973698  0.597495  1
  O  O294  1  0.430840  0.963960  0.604220  1
  O  O295  1  0.395625  0.588579  0.610932  1
  O  O296  1  0.068629  0.656968  0.587740  1
  O  O297  1  0.893081  0.621678  0.603775  1
  O  O298  1  -0.000000  0.807348  0.599200  1
  O  O299  1  0.096943  0.954951  0.617512  1
  O  O300  1  0.544350  0.587737  0.590867  1
  O  O301  1  0.752170  0.911323  0.583414  1
  O  O302  1  0.731042  0.589517  0.585004  1
  O  O303  1  0.197030  0.839189  0.630497  1
  O  O304  1  0.065558  0.692242  0.619946  1
  O  O305  1  0.549210  0.872179  0.585530  1
  O  O306  1  0.795233  0.515810  0.669539  1
  O  O307  1  0.108035  0.961537  0.584722  1
  O  O308  1  0.841860  0.458992  0.585993  1
  O  O309  1  0.596937  0.319501  0.621376  1
  O  O310  1  0.659018  0.466253  0.643495  1
  O  O311  1  0.755106  0.180959  0.669926  1
  O  O312  1  0.637016  0.192806  0.642097  1
  O  O313  1  0.728528  0.480410  0.612033  1
  O  O314  1  0.404158  0.432539  0.592439  1
  O  O315  1  0.785445  0.268526  0.585678  1
  O  O316  1  0.663378  0.175155  0.608761  1
  O  O317  1  0.482401  0.133589  0.621274  1
  O  O318  1  0.794953  0.089702  0.592770  1
  O  O319  1  0.358839  0.110304  0.596151  1
  O  O320  1  0.697012  0.339188  0.663385  1
  O  O321  1  0.352491  0.260996  0.577366  1
  O  O322  1  0.295256  0.015809  0.624343  1
  O  O323  1  0.637396  0.129853  0.576318  1
  O  O324  1  0.538628  0.480854  0.617608  1
  Si  Si325  1  0.607732  0.944910  0.257660  1
  Si  Si326  1  0.406388  0.795241  0.246522  1
  Si  Si327  1  0.367607  0.563692  0.245925  1
  Si  Si328  1  0.336444  0.777580  0.208270  1
  Si  Si329  1  0.312255  0.548899  0.206838  1
  Si  Si330  1  0.280523  0.836046  0.278646  1
  Si  Si331  1  0.153672  0.996747  0.283718  1
  Si  Si332  1  0.646412  0.852273  0.292849  1
  Si  Si333  1  0.365762  0.375911  0.292380  1
  Si  Si334  1  0.967612  0.074782  0.269636  1
  Si  Si335  1  0.200732  0.462125  0.272736  1
  Si  Si336  1  0.832369  0.362824  0.291749  1
  Si  Si337  1  0.836461  0.277582  0.237618  1
  Si  Si338  1  0.812274  0.048901  0.239050  1
  Si  Si339  1  0.996352  0.305130  0.267371  1
  Si  Si340  1  0.531554  0.479822  0.265914  1
  Si  Si341  1  0.562986  0.127423  0.277627  1
  Si  Si342  1  0.672181  0.331183  0.261714  1
  Si  Si343  1  0.867585  0.063689  0.199962  1
  Si  Si344  1  0.892169  0.555005  0.116328  1
  Si  Si345  1  0.346229  0.503168  0.142385  1
  Si  Si346  1  0.062957  0.627420  0.168262  1
  Si  Si347  1  0.700705  0.962120  0.173151  1
  Si  Si348  1  0.332338  0.862821  0.154139  1
  Si  Si349  1  0.496326  0.805124  0.178516  1
  Si  Si350  1  0.031531  0.979814  0.179973  1
  Si  Si351  1  0.219379  0.663869  0.137314  1
  Si  Si352  1  0.865736  0.875907  0.153508  1
  Si  Si353  1  0.853490  0.647642  0.151517  1
  Si  Si354  1  0.172157  0.831176  0.184176  1
  Si  Si355  1  0.467579  0.574776  0.176251  1
  Si  Si356  1  0.093514  0.704674  0.105190  1
  Si  Si357  1  0.936916  0.372492  0.136295  1
  Si  Si358  1  0.107714  0.444909  0.188228  1
  Si  Si359  1  0.653640  0.496742  0.162169  1
  Si  Si360  1  0.299170  0.037790  0.131404  1
  Si  Si361  1  0.667533  0.137091  0.150417  1
  Si  Si362  1  0.503549  0.194785  0.126039  1
  Si  Si363  1  0.968348  0.020093  0.124582  1
  Si  Si364  1  0.780490  0.336043  0.167242  1
  Si  Si365  1  0.134139  0.124004  0.151047  1
  Si  Si366  1  0.146384  0.352269  0.153039  1
  Si  Si367  1  0.827721  0.168732  0.120382  1
  Si  Si368  1  0.532290  0.425133  0.128304  1
  Si  Si369  1  0.906366  0.295237  0.199365  1
  Si  Si370  1  0.132294  0.936222  0.104593  1
  Si  Si371  1  0.663441  0.222333  0.096286  1
  Si  Si372  1  0.687628  0.451014  0.097718  1
  Si  Si373  1  0.607732  0.944910  0.540325  1
  Si  Si374  1  0.406388  0.795241  0.529186  1
  Si  Si375  1  0.367607  0.563692  0.528589  1
  Si  Si376  1  0.336444  0.777580  0.490934  1
  Si  Si377  1  0.312255  0.548899  0.489502  1
  Si  Si378  1  0.280523  0.836046  0.561310  1
  Si  Si379  1  0.153672  0.996747  0.566382  1
  Si  Si380  1  0.646412  0.852273  0.575513  1
  Si  Si381  1  0.365762  0.375911  0.575044  1
  Si  Si382  1  0.967612  0.074782  0.552300  1
  Si  Si383  1  0.200732  0.462125  0.555400  1
  Si  Si384  1  0.832369  0.362824  0.574413  1
  Si  Si385  1  0.836461  0.277582  0.520283  1
  Si  Si386  1  0.812274  0.048901  0.521714  1
  Si  Si387  1  0.996352  0.305130  0.550036  1
  Si  Si388  1  0.531554  0.479822  0.548578  1
  Si  Si389  1  0.562986  0.127423  0.560291  1
  Si  Si390  1  0.672181  0.331183  0.544378  1
  Si  Si391  1  0.867585  0.063689  0.482626  1
  Si  Si392  1  0.892169  0.555005  0.398993  1
  Si  Si393  1  0.346229  0.503168  0.425050  1
  Si  Si394  1  0.062957  0.627420  0.450926  1
  Si  Si395  1  0.700705  0.962120  0.455815  1
  Si  Si396  1  0.332338  0.862821  0.436803  1
  Si  Si397  1  0.496326  0.805124  0.461180  1
  Si  Si398  1  0.031531  0.979814  0.462637  1
  Si  Si399  1  0.219379  0.663869  0.419978  1
  Si  Si400  1  0.865736  0.875907  0.436172  1
  Si  Si401  1  0.853490  0.647642  0.434181  1
  Si  Si402  1  0.172157  0.831176  0.466840  1
  Si  Si403  1  0.467579  0.574776  0.458915  1
  Si  Si404  1  0.093514  0.704674  0.387854  1
  Si  Si405  1  0.936916  0.372492  0.418959  1
  Si  Si406  1  0.107714  0.444909  0.470892  1
  Si  Si407  1  0.653640  0.496742  0.444833  1
  Si  Si408  1  0.299170  0.037790  0.414068  1
  Si  Si409  1  0.667533  0.137091  0.433081  1
  Si  Si410  1  0.503549  0.194785  0.408703  1
  Si  Si411  1  0.968348  0.020093  0.407246  1
  Si  Si412  1  0.780490  0.336043  0.449907  1
  Si  Si413  1  0.134139  0.124004  0.433712  1
  Si  Si414  1  0.146384  0.352269  0.435703  1
  Si  Si415  1  0.827721  0.168732  0.403046  1
  Si  Si416  1  0.532290  0.425133  0.410968  1
  Si  Si417  1  0.906366  0.295237  0.482029  1
  Si  Si418  1  0.634166  0.624008  0.294840  1
  Si  Si419  1  0.799196  0.537794  0.314483  1
  Si  Si420  1  0.167564  0.637094  0.295471  1
  Si  Si421  1  0.163458  0.722335  0.349602  1
  Si  Si422  1  0.187647  0.951016  0.348170  1
  Si  Si423  1  0.003576  0.694790  0.319848  1
  Si  Si424  1  0.468371  0.520101  0.321305  1
  Si  Si425  1  0.436945  0.872495  0.309594  1
  Si  Si426  1  0.327745  0.668738  0.325508  1
  Si  Si427  1  0.032323  0.925138  0.317583  1
  Si  Si428  1  0.132294  0.936222  0.387257  1
  Si  Si429  1  0.846262  0.003173  0.303501  1
  Si  Si430  1  0.593535  0.204677  0.340697  1
  Si  Si431  1  0.632317  0.436226  0.341294  1
  Si  Si432  1  0.663441  0.222333  0.378951  1
  Si  Si433  1  0.687628  0.451014  0.380382  1
  Si  Si434  1  0.719412  0.163872  0.308574  1
  Si  Si435  1  0.392188  0.055006  0.329560  1
  Si  Si436  1  0.353518  0.147646  0.294371  1
  Si  Si437  1  0.336444  0.777580  0.773599  1
  Si  Si438  1  0.312255  0.548899  0.772167  1
  Si  Si439  1  0.867585  0.063689  0.765290  1
  Si  Si440  1  0.892169  0.555005  0.681657  1
  Si  Si441  1  0.346229  0.503168  0.707714  1
  Si  Si442  1  0.062957  0.627420  0.733590  1
  Si  Si443  1  0.700705  0.962120  0.738480  1
  Si  Si444  1  0.332338  0.862821  0.719468  1
  Si  Si445  1  0.496326  0.805124  0.743844  1
  Si  Si446  1  0.031531  0.979814  0.745301  1
  Si  Si447  1  0.219379  0.663869  0.702642  1
  Si  Si448  1  0.865736  0.875907  0.718836  1
  Si  Si449  1  0.853490  0.647642  0.716846  1
  Si  Si450  1  0.172157  0.831176  0.749504  1
  Si  Si451  1  0.467579  0.574776  0.741579  1
  Si  Si452  1  0.093514  0.704674  0.670518  1
  Si  Si453  1  0.936916  0.372492  0.701623  1
  Si  Si454  1  0.107714  0.444909  0.753556  1
  Si  Si455  1  0.653640  0.496742  0.727497  1
  Si  Si456  1  0.299170  0.037790  0.696733  1
  Si  Si457  1  0.667533  0.137091  0.715745  1
  Si  Si458  1  0.503549  0.194785  0.691368  1
  Si  Si459  1  0.968348  0.020093  0.689910  1
  Si  Si460  1  0.780490  0.336043  0.732571  1
  Si  Si461  1  0.134139  0.124004  0.716376  1
  Si  Si462  1  0.146384  0.352269  0.718367  1
  Si  Si463  1  0.827721  0.168732  0.685710  1
  Si  Si464  1  0.532290  0.425133  0.693632  1
  Si  Si465  1  0.906366  0.295237  0.764693  1
  Si  Si466  1  0.634166  0.624008  0.577504  1
  Si  Si467  1  0.799196  0.537794  0.597147  1
  Si  Si468  1  0.167564  0.637094  0.578135  1
  Si  Si469  1  0.163458  0.722335  0.632266  1
  Si  Si470  1  0.187647  0.951016  0.630835  1
  Si  Si471  1  0.003576  0.694790  0.602512  1
  Si  Si472  1  0.468371  0.520101  0.603969  1
  Si  Si473  1  0.436945  0.872495  0.592258  1
  Si  Si474  1  0.327745  0.668738  0.608172  1
  Si  Si475  1  0.032323  0.925138  0.600247  1
  Si  Si476  1  0.132294  0.936222  0.669921  1
  Si  Si477  1  0.846262  0.003173  0.586165  1
  Si  Si478  1  0.593535  0.204677  0.623361  1
  Si  Si479  1  0.632317  0.436226  0.623958  1
  Si  Si480  1  0.663441  0.222333  0.661615  1
  Si  Si481  1  0.687628  0.451014  0.663046  1
  Si  Si482  1  0.719412  0.163872  0.591239  1
  Si  Si483  1  0.392188  0.055006  0.612224  1
  Si  Si484  1  0.353518  0.147646  0.577035  1
  H  H485  1  0.159016  0.966254  0.073346  1
  H  H486  1  0.137013  0.692803  0.074745  1
  H  H487  1  0.659018  0.466253  0.066456  1
  H  H488  1  0.637016  0.192806  0.065058  1
  H  H489  1  0.340886  0.533660  0.803427  1
  H  H490  1  0.362889  0.807111  0.804826  1
  H  H491  1  0.840883  0.033662  0.796538  1
  H  H492  1  0.862886  0.307108  0.795139  1
