# generated using pymatgen
data_Si8H2O17
_symmetry_space_group_name_H-M   'P 1'
_cell_length_a   5.06483519
_cell_length_b   14.10770455
_cell_length_c   35.45327160
_cell_angle_alpha   90.00000000
_cell_angle_beta   90.00000000
_cell_angle_gamma   90.00000000
_symmetry_Int_Tables_number   1
_chemical_formula_structural   Si8H2O17
_chemical_formula_sum   'Si16 H4 O34'
_cell_volume   2533.24965151
_cell_formula_units_Z   2
loop_
 _symmetry_equiv_pos_site_id
 _symmetry_equiv_pos_as_xyz
  1  'x, y, z'
loop_
 _atom_site_type_symbol
 _atom_site_label
 _atom_site_symmetry_multiplicity
 _atom_site_fract_x
 _atom_site_fract_y
 _atom_site_fract_z
 _atom_site_occupancy
  O  O1  1  0.239765  0.802925  0.166557  1
  O  O2  1  0.241022  0.803011  0.240545  1
  O  O3  1  0.742972  0.197522  0.551414  1
  O  O4  1  0.742913  0.197565  0.477537  1
  O  O5  1  0.026110  0.936984  0.203563  1
  O  O6  1  0.525128  0.918812  0.203486  1
  O  O7  1  0.955105  0.063176  0.514440  1
  O  O8  1  0.456198  0.081978  0.514497  1
  O  O9  1  0.740659  0.050982  0.240688  1
  O  O10  1  0.740736  0.051064  0.166416  1
  O  O11  1  0.242615  0.949333  0.477413  1
  O  O12  1  0.241604  0.949292  0.551522  1
  O  O13  1  0.246763  0.674449  0.295635  1
  O  O14  1  0.751212  0.325368  0.422251  1
  O  O15  1  0.034790  0.837134  0.304332  1
  O  O16  1  0.533025  0.823222  0.298274  1
  O  O17  1  0.037832  0.177036  0.420073  1
  O  O18  1  0.539522  0.162360  0.413695  1
  O  O19  1  0.244191  0.485758  0.321009  1
  O  O20  1  0.744820  0.513887  0.397045  1
  O  O21  1  0.000000  0.619753  0.353178  1
  O  O22  1  0.499483  0.618784  0.352153  1
  O  O23  1  0.965854  0.379811  0.362121  1
  O  O24  1  0.467203  0.381915  0.368631  1
  O  O25  1  0.248129  0.016432  0.411318  1
  O  O26  1  0.747599  0.983471  0.306786  1
  O  O27  1  0.500033  0.864617  0.424302  1
  O  O28  1  -0.000000  0.863049  0.423064  1
  O  O29  1  0.506714  0.138035  0.295543  1
  O  O30  1  0.006487  0.134195  0.293503  1
  O  O31  1  0.744117  0.712731  0.401244  1
  O  O32  1  0.248658  0.287033  0.317005  1
  O  O33  1  0.741255  0.863422  0.361737  1
  O  O34  1  0.243171  0.136580  0.356471  1
  Si  Si35  1  0.257402  0.863935  0.203537  1
  Si  Si36  1  0.724361  0.136531  0.514472  1
  Si  Si37  1  0.757697  0.991105  0.203542  1
  Si  Si38  1  0.224207  0.009418  0.514472  1
  Si  Si39  1  0.263336  0.783060  0.283959  1
  Si  Si40  1  0.767302  0.216959  0.434124  1
  Si  Si41  1  0.247387  0.597406  0.328229  1
  Si  Si42  1  0.732909  0.402267  0.389725  1
  Si  Si43  1  0.247200  0.922182  0.434548  1
  Si  Si44  1  0.750658  0.077798  0.283592  1
  Si  Si45  1  0.747579  0.616734  0.378282  1
  Si  Si46  1  0.232720  0.383002  0.339884  1
  Si  Si47  1  0.746733  0.824986  0.403184  1
  Si  Si48  1  0.250594  0.174863  0.315006  1
  Si  Si49  1  0.763787  0.876655  0.318103  1
  Si  Si50  1  0.267339  0.123249  0.400088  1
  H  H51  1  0.239765  0.802925  0.141171  1
  H  H52  1  0.742972  0.197522  0.576800  1
  H  H53  1  0.740736  0.051064  0.141031  1
  H  H54  1  0.241604  0.949292  0.576908  1
