# generated using pymatgen
data_Si22H2O45
_symmetry_space_group_name_H-M   'P 1'
_cell_length_a   17.25043091
_cell_length_b   17.25135508
_cell_length_c   58.14811820
_cell_angle_alpha   90.00000000
_cell_angle_beta   90.00000000
_cell_angle_gamma   120.00000000
_symmetry_Int_Tables_number   1
_chemical_formula_structural   Si22H2O45
_chemical_formula_sum   'Si132 H12 O270'
_cell_volume   14986.1287209
_cell_formula_units_Z   6
loop_
 _symmetry_equiv_pos_site_id
 _symmetry_equiv_pos_as_xyz
  1  'x, y, z'
loop_
 _atom_site_type_symbol
 _atom_site_label
 _atom_site_symmetry_multiplicity
 _atom_site_fract_x
 _atom_site_fract_y
 _atom_site_fract_z
 _atom_site_occupancy
  O  O1  1  0.997290  0.289562  0.216769  1
  O  O2  1  0.292369  0.289550  0.216765  1
  O  O3  1  0.289642  0.292293  0.134213  1
  O  O4  1  0.002754  0.292292  0.134217  1
  O  O5  1  -0.000000  0.250792  0.175492  1
  O  O6  1  0.250869  0.250784  0.175487  1
  O  O7  1  0.144394  0.288691  0.199597  1
  O  O8  1  0.288779  0.144324  0.151384  1
  O  O9  1  0.855642  0.144328  0.151387  1
  O  O10  1  0.104884  0.408205  0.187642  1
  O  O11  1  0.303428  0.408200  0.187638  1
  O  O12  1  0.408280  0.303329  0.163339  1
  O  O13  1  0.696607  0.104788  0.163343  1
  O  O14  1  0.408280  0.104790  0.163341  1
  O  O15  1  0.895150  0.303335  0.163342  1
  O  O16  1  0.686814  0.100520  0.249513  1
  O  O17  1  0.413793  0.313132  0.249516  1
  O  O18  1  0.899426  0.313145  0.249521  1
  O  O19  1  0.413780  0.100522  0.249513  1
  O  O20  1  0.100605  0.413729  0.101467  1
  O  O21  1  0.313223  0.413736  0.101465  1
  O  O22  1  0.676343  0.123665  0.205766  1
  O  O23  1  0.447438  0.323600  0.205760  1
  O  O24  1  0.876260  0.323605  0.205762  1
  O  O25  1  0.447424  0.123671  0.205765  1
  O  O26  1  0.123769  0.447365  0.145227  1
  O  O27  1  0.323708  0.447366  0.145225  1
  O  O28  1  0.826554  0.173342  0.223975  1
  O  O29  1  0.346876  0.173346  0.223971  1
  O  O30  1  0.173459  0.346808  0.127013  1
  O  O31  1  0.570669  0.429289  0.176815  1
  O  O32  1  0.570661  0.141213  0.176817  1
  O  O33  1  0.858712  0.429281  0.176818  1
  O  O34  1  0.742656  0.485227  0.179654  1
  O  O35  1  0.514727  0.257283  0.179651  1
  O  O36  1  0.742651  0.257274  0.179653  1
  O  O37  1  0.292379  0.002683  0.216767  1
  O  O38  1  0.710407  0.002694  0.216769  1
  O  O39  1  0.997235  0.289555  0.372736  1
  O  O40  1  0.292335  0.289549  0.372736  1
  O  O41  1  0.144362  0.288685  0.389906  1
  O  O42  1  0.104844  0.408199  0.401864  1
  O  O43  1  0.303392  0.408191  0.401860  1
  O  O44  1  0.686781  0.100514  0.339985  1
  O  O45  1  0.413774  0.313134  0.339982  1
  O  O46  1  0.899396  0.313136  0.339988  1
  O  O47  1  0.413763  0.100510  0.339985  1
  O  O48  1  0.676286  0.123663  0.383743  1
  O  O49  1  0.447402  0.323597  0.383741  1
  O  O50  1  0.876224  0.323590  0.383742  1
  O  O51  1  0.447396  0.123670  0.383741  1
  O  O52  1  0.826561  0.173376  0.365529  1
  O  O53  1  0.346836  0.173360  0.365526  1
  O  O54  1  0.742625  0.485226  0.409851  1
  O  O55  1  0.514683  0.257276  0.409848  1
  O  O56  1  0.742619  0.257270  0.409850  1
  O  O57  1  0.848216  0.424037  0.263498  1
  O  O58  1  0.575898  0.424042  0.263496  1
  O  O59  1  0.575896  0.151715  0.263499  1
  O  O60  1  0.848198  0.424029  0.326006  1
  O  O61  1  0.575877  0.424031  0.326004  1
  O  O62  1  0.575875  0.151710  0.326007  1
  O  O63  1  0.870872  0.332502  0.294754  1
  O  O64  1  0.461685  0.129052  0.294750  1
  O  O65  1  0.667420  0.129052  0.294750  1
  O  O66  1  0.461682  0.332499  0.294753  1
  O  O67  1  0.745221  0.254699  0.266234  1
  O  O68  1  0.745226  0.490381  0.266235  1
  O  O69  1  0.509554  0.254703  0.266236  1
  O  O70  1  0.745210  0.254706  0.323268  1
  O  O71  1  0.745213  0.490377  0.323268  1
  O  O72  1  0.509535  0.254707  0.323268  1
  O  O73  1  0.292327  0.002661  0.372735  1
  O  O74  1  0.710368  0.002666  0.372731  1
  O  O75  1  0.570634  0.429281  0.412688  1
  O  O76  1  0.570621  0.141218  0.412691  1
  O  O77  1  0.858673  0.429275  0.412688  1
  O  O78  1  0.710402  0.707572  0.216768  1
  O  O79  1  0.997272  0.707561  0.216769  1
  O  O80  1  0.002749  0.710293  0.134218  1
  O  O81  1  0.707653  0.710303  0.134215  1
  O  O82  1  0.749168  0.749073  0.175491  1
  O  O83  1  0.250857  -0.000000  0.175491  1
  O  O84  1  0.000000  0.749057  0.175492  1
  O  O85  1  0.711273  0.855568  0.199595  1
  O  O86  1  0.144396  0.855553  0.199594  1
  O  O87  1  0.855627  0.711151  0.151385  1
  O  O88  1  0.591754  0.696535  0.187640  1
  O  O89  1  0.303411  0.895073  0.187641  1
  O  O90  1  0.591768  0.895074  0.187642  1
  O  O91  1  0.104881  0.696524  0.187642  1
  O  O92  1  0.895149  0.591653  0.163344  1
  O  O93  1  0.696602  0.591657  0.163342  1
  O  O94  1  0.899420  0.586133  0.249519  1
  O  O95  1  0.686799  0.586137  0.249516  1
  O  O96  1  0.313206  0.899334  0.101465  1
  O  O97  1  0.586216  0.686734  0.101466  1
  O  O98  1  0.100606  0.686725  0.101468  1
  O  O99  1  0.586232  0.899347  0.101468  1
  O  O100  1  0.876269  0.552501  0.205762  1
  O  O101  1  0.676329  0.552508  0.205761  1
  O  O102  1  0.323702  0.876188  0.145226  1
  O  O103  1  0.552591  0.676274  0.145225  1
  O  O104  1  0.123779  0.676265  0.145227  1
  O  O105  1  0.552592  0.876189  0.145227  1
  O  O106  1  0.826575  0.653056  0.223973  1
  O  O107  1  0.173441  0.826488  0.127015  1
  O  O108  1  0.653157  0.826500  0.127012  1
  O  O109  1  0.429377  0.570585  0.174170  1
  O  O110  1  0.429383  0.858642  0.174175  1
  O  O111  1  0.141320  0.570578  0.174172  1
  O  O112  1  0.257371  0.514627  0.171336  1
  O  O113  1  0.485316  0.742588  0.171336  1
  O  O114  1  0.257376  0.742586  0.171336  1
  O  O115  1  0.707665  0.997194  0.134216  1
  O  O116  1  0.289630  0.997190  0.134214  1
  O  O117  1  0.749171  -0.000000  0.175493  1
  O  O118  1  0.710369  0.707577  0.372731  1
  O  O119  1  0.997242  0.707565  0.372735  1
  O  O120  1  0.711233  0.855545  0.389905  1
  O  O121  1  0.144356  0.855554  0.389908  1
  O  O122  1  0.591728  0.696536  0.401857  1
  O  O123  1  0.303382  0.895076  0.401861  1
  O  O124  1  0.591728  0.895074  0.401858  1
  O  O125  1  0.104850  0.696525  0.401863  1
  O  O126  1  0.899408  0.586133  0.339988  1
  O  O127  1  0.686779  0.586136  0.339983  1
  O  O128  1  0.876235  0.552500  0.383745  1
  O  O129  1  0.676286  0.552493  0.383742  1
  O  O130  1  0.826555  0.653058  0.365530  1
  O  O131  1  0.667416  0.538230  0.294752  1
  O  O132  1  0.870877  0.538226  0.294753  1
  O  O133  1  0.289609  0.292295  0.455288  1
  O  O134  1  0.002730  0.292302  0.455290  1
  O  O135  1  0.250839  0.250784  0.414012  1
  O  O136  1  0.000000  0.250785  0.414013  1
  O  O137  1  0.288746  0.144311  0.438119  1
  O  O138  1  0.855589  0.144308  0.438117  1
  O  O139  1  0.408248  0.303327  0.426161  1
  O  O140  1  0.696581  0.104785  0.426161  1
  O  O141  1  0.408240  0.104789  0.426161  1
  O  O142  1  0.895112  0.303335  0.426163  1
  O  O143  1  0.100579  0.413729  0.488036  1
  O  O144  1  0.313200  0.413733  0.488035  1
  O  O145  1  0.123733  0.447365  0.444276  1
  O  O146  1  0.323675  0.447363  0.444276  1
  O  O147  1  0.173426  0.346809  0.462489  1
  O  O148  1  0.332582  0.461629  0.533270  1
  O  O149  1  0.129117  0.461625  0.533272  1
  O  O150  1  0.997290  0.289562  0.693808  1
  O  O151  1  0.292369  0.289550  0.693804  1
  O  O152  1  0.289642  0.292293  0.611252  1
  O  O153  1  0.002754  0.292292  0.611256  1
  O  O154  1  0.000000  0.250792  0.652532  1
  O  O155  1  0.250869  0.250784  0.652526  1
  O  O156  1  0.144394  0.288691  0.676636  1
  O  O157  1  0.288779  0.144324  0.628423  1
  O  O158  1  0.855642  0.144328  0.628426  1
  O  O159  1  0.104884  0.408205  0.664681  1
  O  O160  1  0.303428  0.408200  0.664677  1
  O  O161  1  0.408280  0.303329  0.640378  1
  O  O162  1  0.696607  0.104788  0.640382  1
  O  O163  1  0.408280  0.104790  0.640380  1
  O  O164  1  0.895150  0.303335  0.640381  1
  O  O165  1  0.686814  0.100520  0.726552  1
  O  O166  1  0.413793  0.313132  0.726555  1
  O  O167  1  0.899426  0.313145  0.726560  1
  O  O168  1  0.413780  0.100522  0.726552  1
  O  O169  1  0.100605  0.413729  0.578506  1
  O  O170  1  0.313223  0.413736  0.578504  1
  O  O171  1  0.676343  0.123665  0.682805  1
  O  O172  1  0.447438  0.323600  0.682799  1
  O  O173  1  0.876260  0.323605  0.682801  1
  O  O174  1  0.447424  0.123671  0.682804  1
  O  O175  1  0.123769  0.447365  0.622266  1
  O  O176  1  0.323708  0.447366  0.622264  1
  O  O177  1  0.826554  0.173342  0.701014  1
  O  O178  1  0.346876  0.173346  0.701010  1
  O  O179  1  0.173459  0.346808  0.604052  1
  O  O180  1  0.570669  0.429289  0.653854  1
  O  O181  1  0.570661  0.141213  0.653856  1
  O  O182  1  0.858712  0.429281  0.653857  1
  O  O183  1  0.742656  0.485227  0.656693  1
  O  O184  1  0.514727  0.257283  0.656690  1
  O  O185  1  0.742651  0.257274  0.656692  1
  O  O186  1  0.292379  0.002683  0.693806  1
  O  O187  1  0.710407  0.002694  0.693808  1
  O  O188  1  0.002719  0.710291  0.455290  1
  O  O189  1  0.707610  0.710302  0.455283  1
  O  O190  1  0.749144  -0.000000  0.414011  1
  O  O191  1  0.855583  0.711150  0.438120  1
  O  O192  1  0.895115  0.591646  0.426162  1
  O  O193  1  0.696573  0.591659  0.426159  1
  O  O194  1  0.313189  0.899339  0.488036  1
  O  O195  1  0.586193  0.686741  0.488033  1
  O  O196  1  0.100581  0.686723  0.488037  1
  O  O197  1  0.586203  0.899335  0.488031  1
  O  O198  1  0.323678  0.876195  0.444275  1
  O  O199  1  0.552557  0.676258  0.444278  1
  O  O200  1  0.123747  0.676258  0.444277  1
  O  O201  1  0.552563  0.876182  0.444280  1
  O  O202  1  0.173418  0.826490  0.462491  1
  O  O203  1  0.653101  0.826494  0.462481  1
  O  O204  1  0.257336  0.514633  0.418165  1
  O  O205  1  0.485268  0.742575  0.418160  1
  O  O206  1  0.257336  0.742585  0.418167  1
  O  O207  1  0.151784  0.575823  0.502018  1
  O  O208  1  0.424108  0.575841  0.502017  1
  O  O209  1  0.424114  0.848156  0.502017  1
  O  O210  1  0.151798  0.575826  0.564525  1
  O  O211  1  0.424116  0.575837  0.564524  1
  O  O212  1  0.424122  0.848160  0.564526  1
  O  O213  1  0.129123  0.667361  0.533273  1
  O  O214  1  0.538321  0.870826  0.533269  1
  O  O215  1  0.332569  0.870819  0.533272  1
  O  O216  1  0.538313  0.667369  0.533268  1
  O  O217  1  0.254772  0.745161  0.504753  1
  O  O218  1  0.254768  0.509477  0.504754  1
  O  O219  1  0.490436  0.745157  0.504756  1
  O  O220  1  0.254785  0.745157  0.561787  1
  O  O221  1  0.254783  0.509480  0.561787  1
  O  O222  1  0.490461  0.745165  0.561789  1
  O  O223  1  0.707606  0.997172  0.455283  1
  O  O224  1  0.289602  0.997188  0.455287  1
  O  O225  1  0.000000  0.749068  0.414013  1
  O  O226  1  0.250832  0.000000  0.414013  1
  O  O227  1  0.749142  0.749069  0.414011  1
  O  O228  1  0.429331  0.570569  0.415329  1
  O  O229  1  0.429332  0.858646  0.415327  1
  O  O230  1  0.141284  0.570584  0.415332  1
  O  O231  1  0.710402  0.707572  0.693807  1
  O  O232  1  0.997272  0.707561  0.693808  1
  O  O233  1  0.002749  0.710293  0.611257  1
  O  O234  1  0.707653  0.710303  0.611254  1
  O  O235  1  0.749168  0.749073  0.652530  1
  O  O236  1  0.250857  0.000000  0.652530  1
  O  O237  1  -0.000000  0.749057  0.652532  1
  O  O238  1  0.711273  0.855568  0.676634  1
  O  O239  1  0.144396  0.855553  0.676633  1
  O  O240  1  0.855627  0.711151  0.628424  1
  O  O241  1  0.591754  0.696535  0.664679  1
  O  O242  1  0.303411  0.895073  0.664680  1
  O  O243  1  0.591768  0.895074  0.664681  1
  O  O244  1  0.104881  0.696524  0.664681  1
  O  O245  1  0.895149  0.591653  0.640383  1
  O  O246  1  0.696602  0.591657  0.640381  1
  O  O247  1  0.899420  0.586133  0.726558  1
  O  O248  1  0.686799  0.586137  0.726556  1
  O  O249  1  0.313206  0.899334  0.578505  1
  O  O250  1  0.586216  0.686734  0.578506  1
  O  O251  1  0.100606  0.686725  0.578507  1
  O  O252  1  0.586232  0.899347  0.578507  1
  O  O253  1  0.876269  0.552501  0.682802  1
  O  O254  1  0.676329  0.552508  0.682800  1
  O  O255  1  0.323702  0.876188  0.622265  1
  O  O256  1  0.552591  0.676274  0.622264  1
  O  O257  1  0.123779  0.676265  0.622266  1
  O  O258  1  0.552592  0.876189  0.622266  1
  O  O259  1  0.826575  0.653056  0.701013  1
  O  O260  1  0.173441  0.826488  0.604054  1
  O  O261  1  0.653157  0.826500  0.604051  1
  O  O262  1  0.429377  0.570585  0.651209  1
  O  O263  1  0.429383  0.858642  0.651214  1
  O  O264  1  0.141320  0.570578  0.651211  1
  O  O265  1  0.257371  0.514627  0.648375  1
  O  O266  1  0.485316  0.742588  0.648375  1
  O  O267  1  0.257376  0.742586  0.648375  1
  O  O268  1  0.707665  0.997194  0.611255  1
  O  O269  1  0.289630  0.997190  0.611253  1
  O  O270  1  0.749171  0.000000  0.652532  1
  Si  Si271  1  0.667261  0.155207  0.180894  1
  Si  Si272  1  0.488057  0.332683  0.180887  1
  Si  Si273  1  0.844721  0.332683  0.180892  1
  Si  Si274  1  0.064415  0.307725  0.195972  1
  Si  Si275  1  0.243405  0.307718  0.195968  1
  Si  Si276  1  0.307807  0.243327  0.155005  1
  Si  Si277  1  0.756625  0.064333  0.155010  1
  Si  Si278  1  0.307799  0.064329  0.155007  1
  Si  Si279  1  0.935624  0.243328  0.155009  1
  Si  Si280  1  0.724452  0.097062  0.224862  1
  Si  Si281  1  0.372715  0.275469  0.224853  1
  Si  Si282  1  0.902847  0.275476  0.224857  1
  Si  Si283  1  0.372701  0.097064  0.224859  1
  Si  Si284  1  0.097171  0.372645  0.126129  1
  Si  Si285  1  0.275583  0.372647  0.126127  1
  Si  Si286  1  0.332780  0.487985  0.170096  1
  Si  Si287  1  0.155318  0.487984  0.170098  1
  Si  Si288  1  0.488049  0.155211  0.180895  1
  Si  Si289  1  0.064381  0.307727  0.393531  1
  Si  Si290  1  0.243377  0.307721  0.393530  1
  Si  Si291  1  0.724426  0.097084  0.364647  1
  Si  Si292  1  0.372682  0.275484  0.364642  1
  Si  Si293  1  0.902835  0.275489  0.364645  1
  Si  Si294  1  0.372675  0.097074  0.364645  1
  Si  Si295  1  0.845510  0.333026  0.268455  1
  Si  Si296  1  0.487579  0.154409  0.268450  1
  Si  Si297  1  0.666905  0.154405  0.268449  1
  Si  Si298  1  0.487585  0.333026  0.268453  1
  Si  Si299  1  0.845502  0.333024  0.321053  1
  Si  Si300  1  0.487572  0.154425  0.321051  1
  Si  Si301  1  0.666892  0.154420  0.321049  1
  Si  Si302  1  0.487573  0.333026  0.321051  1
  Si  Si303  1  0.488014  0.155213  0.408611  1
  Si  Si304  1  0.844680  0.332676  0.408613  1
  Si  Si305  1  0.488026  0.332679  0.408611  1
  Si  Si306  1  0.667219  0.155202  0.408611  1
  Si  Si307  1  0.844717  0.511879  0.180892  1
  Si  Si308  1  0.667258  0.511890  0.180891  1
  Si  Si309  1  0.692232  0.756547  0.195973  1
  Si  Si310  1  0.243404  0.935535  0.195975  1
  Si  Si311  1  0.692231  0.935543  0.195977  1
  Si  Si312  1  0.064413  0.756535  0.195974  1
  Si  Si313  1  0.935611  0.692123  0.155009  1
  Si  Si314  1  0.756614  0.692126  0.155007  1
  Si  Si315  1  0.902859  0.627215  0.224859  1
  Si  Si316  1  0.724449  0.627217  0.224857  1
  Si  Si317  1  0.275566  0.902776  0.126128  1
  Si  Si318  1  0.627313  0.724381  0.126127  1
  Si  Si319  1  0.097165  0.724373  0.126129  1
  Si  Si320  1  0.627315  0.902784  0.126129  1
  Si  Si321  1  0.511985  0.844648  0.170097  1
  Si  Si322  1  0.155317  0.667178  0.170097  1
  Si  Si323  1  0.511969  0.667187  0.170096  1
  Si  Si324  1  0.332776  0.844649  0.170096  1
  Si  Si325  1  0.844683  0.511875  0.408613  1
  Si  Si326  1  0.667224  0.511885  0.408613  1
  Si  Si327  1  0.845506  0.512342  0.321052  1
  Si  Si328  1  0.666885  0.512341  0.321050  1
  Si  Si329  1  0.845511  0.512342  0.268454  1
  Si  Si330  1  0.666910  0.512352  0.268453  1
  Si  Si331  1  0.724423  0.627216  0.364644  1
  Si  Si332  1  0.902832  0.627206  0.364647  1
  Si  Si333  1  0.692212  0.756544  0.393528  1
  Si  Si334  1  0.243365  0.935533  0.393531  1
  Si  Si335  1  0.692212  0.935535  0.393529  1
  Si  Si336  1  0.064384  0.756532  0.393530  1
  Si  Si337  1  0.155279  0.487985  0.419406  1
  Si  Si338  1  0.332735  0.487971  0.419404  1
  Si  Si339  1  0.154495  0.487522  0.559570  1
  Si  Si340  1  0.333114  0.487529  0.559569  1
  Si  Si341  1  0.154485  0.487520  0.506973  1
  Si  Si342  1  0.307763  0.243314  0.434495  1
  Si  Si343  1  0.756585  0.064320  0.434496  1
  Si  Si344  1  0.307760  0.064322  0.434496  1
  Si  Si345  1  0.935578  0.243324  0.434498  1
  Si  Si346  1  0.097144  0.372650  0.463374  1
  Si  Si347  1  0.275547  0.372643  0.463374  1
  Si  Si348  1  0.333100  0.487532  0.506971  1
  Si  Si349  1  0.667261  0.155207  0.657933  1
  Si  Si350  1  0.488057  0.332683  0.657926  1
  Si  Si351  1  0.844721  0.332683  0.657931  1
  Si  Si352  1  0.064415  0.307725  0.673011  1
  Si  Si353  1  0.243405  0.307718  0.673007  1
  Si  Si354  1  0.307807  0.243327  0.632044  1
  Si  Si355  1  0.756625  0.064333  0.632049  1
  Si  Si356  1  0.307799  0.064329  0.632047  1
  Si  Si357  1  0.935624  0.243328  0.632048  1
  Si  Si358  1  0.724452  0.097062  0.701901  1
  Si  Si359  1  0.372715  0.275469  0.701892  1
  Si  Si360  1  0.902847  0.275476  0.701896  1
  Si  Si361  1  0.372701  0.097064  0.701898  1
  Si  Si362  1  0.097171  0.372645  0.603168  1
  Si  Si363  1  0.275583  0.372647  0.603166  1
  Si  Si364  1  0.332780  0.487985  0.647135  1
  Si  Si365  1  0.155318  0.487984  0.647137  1
  Si  Si366  1  0.488049  0.155211  0.657934  1
  Si  Si367  1  0.935575  0.692120  0.434497  1
  Si  Si368  1  0.756578  0.692130  0.434494  1
  Si  Si369  1  0.275543  0.902779  0.463374  1
  Si  Si370  1  0.627280  0.724384  0.463372  1
  Si  Si371  1  0.097143  0.724368  0.463375  1
  Si  Si372  1  0.627291  0.902783  0.463374  1
  Si  Si373  1  0.154485  0.666831  0.506974  1
  Si  Si374  1  0.512420  0.845450  0.506971  1
  Si  Si375  1  0.333097  0.845447  0.506973  1
  Si  Si376  1  0.512414  0.666844  0.506972  1
  Si  Si377  1  0.154504  0.666832  0.559570  1
  Si  Si378  1  0.512425  0.845446  0.559569  1
  Si  Si379  1  0.333103  0.845439  0.559569  1
  Si  Si380  1  0.512420  0.666844  0.559569  1
  Si  Si381  1  0.511944  0.844650  0.419405  1
  Si  Si382  1  0.155285  0.667177  0.419407  1
  Si  Si383  1  0.511943  0.667174  0.419405  1
  Si  Si384  1  0.332732  0.844642  0.419405  1
  Si  Si385  1  0.844717  0.511879  0.657931  1
  Si  Si386  1  0.667258  0.511890  0.657930  1
  Si  Si387  1  0.692232  0.756547  0.673012  1
  Si  Si388  1  0.243404  0.935535  0.673014  1
  Si  Si389  1  0.692231  0.935543  0.673017  1
  Si  Si390  1  0.064413  0.756535  0.673013  1
  Si  Si391  1  0.935611  0.692123  0.632048  1
  Si  Si392  1  0.756614  0.692126  0.632046  1
  Si  Si393  1  0.902859  0.627215  0.701898  1
  Si  Si394  1  0.724449  0.627217  0.701896  1
  Si  Si395  1  0.275566  0.902776  0.603168  1
  Si  Si396  1  0.627313  0.724381  0.603166  1
  Si  Si397  1  0.097165  0.724373  0.603168  1
  Si  Si398  1  0.627315  0.902784  0.603168  1
  Si  Si399  1  0.511985  0.844648  0.647136  1
  Si  Si400  1  0.155317  0.667178  0.647136  1
  Si  Si401  1  0.511969  0.667187  0.647135  1
  Si  Si402  1  0.332776  0.844649  0.647135  1
  H  H403  1  0.100605  0.413729  0.085989  1
  H  H404  1  0.313223  0.413736  0.085987  1
  H  H405  1  0.313206  0.899334  0.085988  1
  H  H406  1  0.586216  0.686734  0.085989  1
  H  H407  1  0.100606  0.686725  0.085991  1
  H  H408  1  0.586232  0.899347  0.085990  1
  H  H409  1  0.686814  0.100520  0.742030  1
  H  H410  1  0.413793  0.313132  0.742033  1
  H  H411  1  0.899426  0.313145  0.742038  1
  H  H412  1  0.413780  0.100522  0.742030  1
  H  H413  1  0.899420  0.586133  0.742036  1
  H  H414  1  0.686799  0.586137  0.742033  1
