# generated using pymatgen
data_Si143(H5O74)4
_symmetry_space_group_name_H-M   'P 1'
_cell_length_a   25.24803673
_cell_length_b   12.87887348
_cell_length_c   49.48561738
_cell_angle_alpha   90.00000000
_cell_angle_beta   90.00000000
_cell_angle_gamma   90.00000000
_symmetry_Int_Tables_number   1
_chemical_formula_structural   Si143(H5O74)4
_chemical_formula_sum   'Si143 H20 O296'
_cell_volume   16091.0536534
_cell_formula_units_Z   1
loop_
 _symmetry_equiv_pos_site_id
 _symmetry_equiv_pos_as_xyz
  1  'x, y, z'
loop_
 _atom_site_type_symbol
 _atom_site_label
 _atom_site_symmetry_multiplicity
 _atom_site_fract_x
 _atom_site_fract_y
 _atom_site_fract_z
 _atom_site_occupancy
  O  O1  1  0.836090  0.593037  0.220721  1
  O  O2  1  0.926214  0.632451  0.202157  1
  O  O3  1  0.844437  0.612967  0.170198  1
  O  O4  1  0.854193  0.771281  0.202666  1
  O  O5  1  0.800128  0.942378  0.202426  1
  O  O6  1  0.699821  0.942348  0.202434  1
  O  O7  1  0.899666  0.946731  0.210712  1
  O  O8  1  0.000000  0.000000  0.208421  1
  O  O9  1  0.925662  0.139798  0.201105  1
  O  O10  1  0.974330  0.312862  0.202788  1
  O  O11  1  0.881370  0.299053  0.220812  1
  O  O12  1  0.892907  0.289484  0.170148  1
  O  O13  1  0.749963  0.069621  0.170206  1
  O  O14  1  0.749971  0.094964  0.220757  1
  O  O15  1  0.000000  0.499967  0.211722  1
  O  O16  1  0.663863  0.593058  0.220721  1
  O  O17  1  0.573731  0.632400  0.202156  1
  O  O18  1  0.655514  0.612971  0.170198  1
  O  O19  1  0.645733  0.771279  0.202667  1
  O  O20  1  0.600282  0.946744  0.210709  1
  O  O21  1  0.425663  0.860101  0.201108  1
  O  O22  1  0.474346  0.687056  0.202786  1
  O  O23  1  0.381392  0.700824  0.220817  1
  O  O24  1  0.392916  0.710412  0.170149  1
  O  O25  1  0.359548  0.693771  0.119228  1
  O  O26  1  0.499975  0.000000  0.208421  1
  O  O27  1  0.336080  0.406864  0.220720  1
  O  O28  1  0.426203  0.367477  0.202154  1
  O  O29  1  0.344424  0.386932  0.170198  1
  O  O30  1  0.354195  0.228622  0.202669  1
  O  O31  1  0.399666  0.053166  0.210710  1
  O  O32  1  0.574288  0.139807  0.201108  1
  O  O33  1  0.525588  0.312837  0.202781  1
  O  O34  1  0.618539  0.299106  0.220815  1
  O  O35  1  0.607026  0.289497  0.170146  1
  O  O36  1  0.499965  0.499942  0.211720  1
  O  O37  1  0.074289  0.860114  0.201109  1
  O  O38  1  0.025602  0.687070  0.202786  1
  O  O39  1  0.118554  0.700837  0.220819  1
  O  O40  1  0.107033  0.710429  0.170150  1
  O  O41  1  0.140400  0.693784  0.119229  1
  O  O42  1  0.175152  0.573307  0.155394  1
  O  O43  1  0.324788  0.573304  0.155394  1
  O  O44  1  0.200367  0.764659  0.155715  1
  O  O45  1  0.299588  0.764666  0.155715  1
  O  O46  1  0.249970  0.930293  0.170210  1
  O  O47  1  0.249961  0.904956  0.220761  1
  O  O48  1  0.249975  0.862541  0.119228  1
  O  O49  1  0.163841  0.406888  0.220721  1
  O  O50  1  0.073718  0.367488  0.202155  1
  O  O51  1  0.155502  0.386949  0.170199  1
  O  O52  1  0.145738  0.228648  0.202671  1
  O  O53  1  0.199821  0.057570  0.202433  1
  O  O54  1  0.300128  0.057534  0.202435  1
  O  O55  1  0.100282  0.053182  0.210710  1
  O  O56  1  0.249967  0.443451  0.155749  1
  O  O57  1  0.179886  0.434989  0.119227  1
  O  O58  1  0.320049  0.434989  0.119227  1
  O  O59  1  0.836090  0.593037  0.474963  1
  O  O60  1  0.836100  0.593038  0.271975  1
  O  O61  1  0.926214  0.632451  0.456399  1
  O  O62  1  0.926214  0.632475  0.290542  1
  O  O63  1  0.844437  0.612967  0.424440  1
  O  O64  1  0.844434  0.612987  0.322497  1
  O  O65  1  0.854193  0.771281  0.456908  1
  O  O66  1  0.854182  0.771297  0.290023  1
  O  O67  1  0.800128  0.942378  0.456668  1
  O  O68  1  0.699821  0.942348  0.456676  1
  O  O69  1  0.800128  0.942412  0.290255  1
  O  O70  1  0.699822  0.942333  0.290263  1
  O  O71  1  0.839201  0.872344  0.246344  1
  O  O72  1  0.899666  0.946731  0.464954  1
  O  O73  1  0.899664  0.946738  0.281987  1
  O  O74  1  0.749976  0.562682  0.246352  1
  O  O75  1  0.978180  0.636242  0.246350  1
  O  O76  1  0.749976  0.556462  0.409990  1
  O  O77  1  0.749974  0.556469  0.336947  1
  O  O78  1  0.820057  0.564927  0.373468  1
  O  O79  1  0.679893  0.564929  0.373469  1
  O  O80  1  0.000000  0.000000  0.462663  1
  O  O81  1  0.000000  -0.000000  0.284274  1
  O  O82  1  0.925662  0.139798  0.455347  1
  O  O83  1  0.925659  0.139807  0.291586  1
  O  O84  1  0.974330  0.312862  0.457030  1
  O  O85  1  0.974336  0.312860  0.289910  1
  O  O86  1  0.881370  0.299053  0.475054  1
  O  O87  1  0.881382  0.299070  0.271878  1
  O  O88  1  0.892907  0.289484  0.424390  1
  O  O89  1  0.892905  0.289490  0.322545  1
  O  O90  1  0.859539  0.306133  0.373467  1
  O  O91  1  0.824791  0.426605  0.409634  1
  O  O92  1  0.675156  0.426608  0.409635  1
  O  O93  1  0.824792  0.426616  0.337301  1
  O  O94  1  0.675154  0.426617  0.337303  1
  O  O95  1  0.799576  0.235251  0.409953  1
  O  O96  1  0.700355  0.235249  0.409953  1
  O  O97  1  0.799574  0.235262  0.336980  1
  O  O98  1  0.700355  0.235260  0.336982  1
  O  O99  1  0.822777  0.425461  0.246347  1
  O  O100  1  0.677161  0.425479  0.246347  1
  O  O101  1  0.800849  0.232349  0.246352  1
  O  O102  1  0.699076  0.232367  0.246332  1
  O  O103  1  0.749963  0.069621  0.424448  1
  O  O104  1  0.749962  0.069634  0.322482  1
  O  O105  1  0.749971  0.094964  0.475000  1
  O  O106  1  0.749935  0.094970  0.271931  1
  O  O107  1  0.941064  0.057288  0.246347  1
  O  O108  1  0.749967  0.137373  0.373465  1
  O  O109  1  0.000000  0.499968  0.280978  1
  O  O110  1  0.000000  0.499967  0.465964  1
  O  O111  1  0.663863  0.593058  0.474963  1
  O  O112  1  0.663853  0.593046  0.271977  1
  O  O113  1  0.573731  0.632400  0.456398  1
  O  O114  1  0.573724  0.632396  0.290543  1
  O  O115  1  0.655514  0.612971  0.424440  1
  O  O116  1  0.655509  0.612975  0.322499  1
  O  O117  1  0.645733  0.771279  0.456909  1
  O  O118  1  0.645725  0.771275  0.290027  1
  O  O119  1  0.600282  0.946744  0.464952  1
  O  O120  1  0.600282  0.946740  0.281987  1
  O  O121  1  0.425664  0.860104  0.291589  1
  O  O122  1  0.425663  0.860101  0.455350  1
  O  O123  1  0.474339  0.687050  0.289907  1
  O  O124  1  0.474346  0.687056  0.457028  1
  O  O125  1  0.381377  0.700842  0.271882  1
  O  O126  1  0.381392  0.700824  0.475060  1
  O  O127  1  0.392913  0.710415  0.322547  1
  O  O128  1  0.392916  0.710412  0.424391  1
  O  O129  1  0.359548  0.693771  0.373470  1
  O  O130  1  0.660730  0.872322  0.246348  1
  O  O131  1  0.521766  0.636203  0.246348  1
  O  O132  1  0.499975  -0.000000  0.284276  1
  O  O133  1  0.441070  0.942617  0.246349  1
  O  O134  1  0.499975  -0.000000  0.462663  1
  O  O135  1  0.336084  0.406860  0.271975  1
  O  O136  1  0.336080  0.406864  0.474962  1
  O  O137  1  0.426207  0.367455  0.290540  1
  O  O138  1  0.426203  0.367477  0.456396  1
  O  O139  1  0.344428  0.386935  0.322498  1
  O  O140  1  0.344424  0.386932  0.424440  1
  O  O141  1  0.354191  0.228619  0.290028  1
  O  O142  1  0.354195  0.228622  0.456911  1
  O  O143  1  0.399663  0.053165  0.281987  1
  O  O144  1  0.399666  0.053166  0.464952  1
  O  O145  1  0.574288  0.139807  0.455350  1
  O  O146  1  0.574288  0.139804  0.291588  1
  O  O147  1  0.525588  0.312837  0.457023  1
  O  O148  1  0.525599  0.312843  0.289907  1
  O  O149  1  0.618539  0.299106  0.475057  1
  O  O150  1  0.618561  0.299074  0.271880  1
  O  O151  1  0.607026  0.289497  0.424388  1
  O  O152  1  0.607029  0.289507  0.322545  1
  O  O153  1  0.640394  0.306148  0.373468  1
  O  O154  1  0.478169  0.363667  0.246346  1
  O  O155  1  0.558878  0.057300  0.246348  1
  O  O156  1  0.339212  0.127565  0.246348  1
  O  O157  1  0.499958  0.499939  0.280974  1
  O  O158  1  0.499965  0.499942  0.465962  1
  O  O159  1  0.074284  0.860123  0.291591  1
  O  O160  1  0.074289  0.860114  0.455351  1
  O  O161  1  0.025603  0.687069  0.289912  1
  O  O162  1  0.025602  0.687070  0.457028  1
  O  O163  1  0.118559  0.700854  0.271884  1
  O  O164  1  0.118554  0.700837  0.475061  1
  O  O165  1  0.107033  0.710435  0.322549  1
  O  O166  1  0.107033  0.710429  0.424392  1
  O  O167  1  0.140400  0.693784  0.373471  1
  O  O168  1  0.175148  0.573307  0.337304  1
  O  O169  1  0.324792  0.573303  0.337303  1
  O  O170  1  0.175152  0.573307  0.409636  1
  O  O171  1  0.324788  0.573304  0.409636  1
  O  O172  1  0.200366  0.764655  0.336984  1
  O  O173  1  0.299586  0.764660  0.336984  1
  O  O174  1  0.200367  0.764659  0.409957  1
  O  O175  1  0.299588  0.764666  0.409957  1
  O  O176  1  0.177161  0.574449  0.246353  1
  O  O177  1  0.322777  0.574439  0.246349  1
  O  O178  1  0.199085  0.767555  0.246347  1
  O  O179  1  0.300858  0.767556  0.246341  1
  O  O180  1  0.249971  0.930282  0.322486  1
  O  O181  1  0.249970  0.930293  0.424452  1
  O  O182  1  0.249973  0.904935  0.271935  1
  O  O183  1  0.249961  0.904956  0.475003  1
  O  O184  1  0.058879  0.942624  0.246348  1
  O  O185  1  0.249975  0.862541  0.373470  1
  O  O186  1  0.163846  0.406872  0.271977  1
  O  O187  1  0.163841  0.406888  0.474963  1
  O  O188  1  0.073723  0.367484  0.290542  1
  O  O189  1  0.073718  0.367488  0.456397  1
  O  O190  1  0.155504  0.386947  0.322499  1
  O  O191  1  0.155502  0.386949  0.424441  1
  O  O192  1  0.145744  0.228636  0.290029  1
  O  O193  1  0.145738  0.228648  0.456913  1
  O  O194  1  0.199818  0.057541  0.290262  1
  O  O195  1  0.300125  0.057530  0.290261  1
  O  O196  1  0.199821  0.057570  0.456675  1
  O  O197  1  0.300128  0.057534  0.456677  1
  O  O198  1  0.160735  0.127590  0.246348  1
  O  O199  1  0.100280  0.053188  0.281986  1
  O  O200  1  0.100282  0.053182  0.464952  1
  O  O201  1  0.249965  0.437233  0.246349  1
  O  O202  1  0.021757  0.363701  0.246349  1
  O  O203  1  0.249968  0.443459  0.336947  1
  O  O204  1  0.249967  0.443451  0.409991  1
  O  O205  1  0.179886  0.434989  0.373469  1
  O  O206  1  0.320049  0.434989  0.373469  1
  O  O207  1  0.836100  0.593038  0.526218  1
  O  O208  1  0.926214  0.632475  0.544784  1
  O  O209  1  0.844434  0.612987  0.576739  1
  O  O210  1  0.854182  0.771297  0.544266  1
  O  O211  1  0.800128  0.942412  0.544497  1
  O  O212  1  0.699822  0.942333  0.544505  1
  O  O213  1  0.839201  0.872344  0.500586  1
  O  O214  1  0.899664  0.946738  0.536229  1
  O  O215  1  0.749976  0.562682  0.500594  1
  O  O216  1  0.978180  0.636242  0.500592  1
  O  O217  1  0.000000  -0.000000  0.538516  1
  O  O218  1  0.925659  0.139807  0.545828  1
  O  O219  1  0.974336  0.312860  0.544152  1
  O  O220  1  0.881382  0.299070  0.526121  1
  O  O221  1  0.892905  0.289490  0.576787  1
  O  O222  1  0.822777  0.425461  0.500590  1
  O  O223  1  0.677161  0.425479  0.500589  1
  O  O224  1  0.800849  0.232349  0.500595  1
  O  O225  1  0.699076  0.232367  0.500575  1
  O  O226  1  0.749962  0.069634  0.576724  1
  O  O227  1  0.749935  0.094970  0.526173  1
  O  O228  1  0.941064  0.057288  0.500589  1
  O  O229  1  0.000000  0.499968  0.535220  1
  O  O230  1  0.663853  0.593046  0.526219  1
  O  O231  1  0.573724  0.632396  0.544785  1
  O  O232  1  0.655509  0.612975  0.576741  1
  O  O233  1  0.645725  0.771275  0.544269  1
  O  O234  1  0.600282  0.946740  0.536229  1
  O  O235  1  0.425664  0.860104  0.545831  1
  O  O236  1  0.474339  0.687050  0.544150  1
  O  O237  1  0.381377  0.700842  0.526125  1
  O  O238  1  0.392913  0.710415  0.576789  1
  O  O239  1  0.392916  0.710412  0.678633  1
  O  O240  1  0.359548  0.693771  0.627712  1
  O  O241  1  0.660730  0.872322  0.500590  1
  O  O242  1  0.521766  0.636203  0.500590  1
  O  O243  1  0.499975  -0.000000  0.538518  1
  O  O244  1  0.441070  0.942617  0.500591  1
  O  O245  1  0.336084  0.406860  0.526218  1
  O  O246  1  0.426207  0.367455  0.544782  1
  O  O247  1  0.344428  0.386935  0.576740  1
  O  O248  1  0.344424  0.386932  0.678682  1
  O  O249  1  0.354191  0.228619  0.544270  1
  O  O250  1  0.399663  0.053165  0.536229  1
  O  O251  1  0.574288  0.139804  0.545831  1
  O  O252  1  0.525599  0.312843  0.544149  1
  O  O253  1  0.618561  0.299074  0.526122  1
  O  O254  1  0.607029  0.289507  0.576787  1
  O  O255  1  0.478169  0.363667  0.500588  1
  O  O256  1  0.558878  0.057300  0.500590  1
  O  O257  1  0.339212  0.127565  0.500591  1
  O  O258  1  0.499958  0.499939  0.535216  1
  O  O259  1  0.074284  0.860123  0.545833  1
  O  O260  1  0.025603  0.687069  0.544154  1
  O  O261  1  0.118559  0.700854  0.526126  1
  O  O262  1  0.107033  0.710435  0.576791  1
  O  O263  1  0.107033  0.710429  0.678635  1
  O  O264  1  0.140400  0.693784  0.627713  1
  O  O265  1  0.175148  0.573307  0.591546  1
  O  O266  1  0.324792  0.573303  0.591545  1
  O  O267  1  0.175152  0.573307  0.663879  1
  O  O268  1  0.324788  0.573304  0.663878  1
  O  O269  1  0.200366  0.764655  0.591227  1
  O  O270  1  0.299586  0.764660  0.591226  1
  O  O271  1  0.200367  0.764659  0.664199  1
  O  O272  1  0.299588  0.764666  0.664199  1
  O  O273  1  0.177161  0.574449  0.500595  1
  O  O274  1  0.322777  0.574439  0.500591  1
  O  O275  1  0.199085  0.767555  0.500589  1
  O  O276  1  0.300858  0.767556  0.500583  1
  O  O277  1  0.249971  0.930282  0.576728  1
  O  O278  1  0.249970  0.930293  0.678695  1
  O  O279  1  0.249973  0.904935  0.526177  1
  O  O280  1  0.058879  0.942624  0.500591  1
  O  O281  1  0.249975  0.862541  0.627712  1
  O  O282  1  0.163846  0.406872  0.526219  1
  O  O283  1  0.073723  0.367484  0.544784  1
  O  O284  1  0.155504  0.386947  0.576741  1
  O  O285  1  0.155502  0.386949  0.678683  1
  O  O286  1  0.145744  0.228636  0.544271  1
  O  O287  1  0.199818  0.057541  0.544504  1
  O  O288  1  0.300125  0.057530  0.544503  1
  O  O289  1  0.160735  0.127590  0.500591  1
  O  O290  1  0.100280  0.053188  0.536228  1
  O  O291  1  0.249965  0.437233  0.500591  1
  O  O292  1  0.021757  0.363701  0.500591  1
  O  O293  1  0.249968  0.443459  0.591189  1
  O  O294  1  0.249967  0.443451  0.664233  1
  O  O295  1  0.179886  0.434989  0.627712  1
  O  O296  1  0.320049  0.434989  0.627711  1
  Si  Si297  1  0.865754  0.653548  0.198103  1
  Si  Si298  1  0.847739  0.882062  0.215055  1
  Si  Si299  1  0.981981  0.614958  0.215168  1
  Si  Si300  1  0.919189  0.260396  0.197945  1
  Si  Si301  1  0.941630  0.035069  0.215185  1
  Si  Si302  1  0.749968  0.011162  0.198118  1
  Si  Si303  1  0.441633  0.964833  0.215186  1
  Si  Si304  1  0.634187  0.653543  0.198103  1
  Si  Si305  1  0.652200  0.882053  0.215059  1
  Si  Si306  1  0.419198  0.739501  0.197947  1
  Si  Si307  1  0.345953  0.686177  0.150254  1
  Si  Si308  1  0.517961  0.614925  0.215166  1
  Si  Si309  1  0.365745  0.346355  0.198102  1
  Si  Si310  1  0.347743  0.117844  0.215060  1
  Si  Si311  1  0.580741  0.260408  0.197943  1
  Si  Si312  1  0.481972  0.384957  0.215164  1
  Si  Si313  1  0.558317  0.035077  0.215186  1
  Si  Si314  1  0.080750  0.739515  0.197948  1
  Si  Si315  1  0.153994  0.686185  0.150255  1
  Si  Si316  1  0.058318  0.964846  0.215186  1
  Si  Si317  1  0.249976  0.835062  0.150298  1
  Si  Si318  1  0.249969  0.988756  0.198121  1
  Si  Si319  1  0.310999  0.456043  0.150293  1
  Si  Si320  1  0.188935  0.456044  0.150293  1
  Si  Si321  1  0.134177  0.346377  0.198104  1
  Si  Si322  1  0.152202  0.117869  0.215059  1
  Si  Si323  1  0.017951  0.384979  0.215167  1
  Si  Si324  1  0.688943  0.543878  0.342403  1
  Si  Si325  1  0.811006  0.543879  0.342402  1
  Si  Si326  1  0.865754  0.653548  0.452345  1
  Si  Si327  1  0.865753  0.653572  0.294593  1
  Si  Si328  1  0.847739  0.882062  0.469297  1
  Si  Si329  1  0.847737  0.882076  0.277633  1
  Si  Si330  1  0.811049  0.544007  0.246349  1
  Si  Si331  1  0.688901  0.544019  0.246349  1
  Si  Si332  1  0.981981  0.614958  0.469410  1
  Si  Si333  1  0.981980  0.614959  0.277532  1
  Si  Si334  1  0.811007  0.543869  0.404534  1
  Si  Si335  1  0.688944  0.543871  0.404535  1
  Si  Si336  1  0.749965  0.164859  0.342395  1
  Si  Si337  1  0.919189  0.260396  0.452187  1
  Si  Si338  1  0.919191  0.260404  0.294748  1
  Si  Si339  1  0.845947  0.313728  0.404493  1
  Si  Si340  1  0.845946  0.313736  0.342441  1
  Si  Si341  1  0.846238  0.313865  0.246347  1
  Si  Si342  1  0.749959  0.164499  0.246344  1
  Si  Si343  1  0.941630  0.035069  0.469427  1
  Si  Si344  1  0.941629  0.035074  0.277509  1
  Si  Si345  1  0.749966  0.164852  0.404536  1
  Si  Si346  1  0.749963  0.011171  0.294571  1
  Si  Si347  1  0.749968  0.011162  0.452360  1
  Si  Si348  1  0.441633  0.964833  0.469429  1
  Si  Si349  1  0.441632  0.964836  0.277511  1
  Si  Si350  1  0.634187  0.653543  0.452345  1
  Si  Si351  1  0.634180  0.653540  0.294594  1
  Si  Si352  1  0.652200  0.882053  0.469301  1
  Si  Si353  1  0.652199  0.882047  0.277637  1
  Si  Si354  1  0.419195  0.739506  0.294749  1
  Si  Si355  1  0.419198  0.739501  0.452189  1
  Si  Si356  1  0.345954  0.686176  0.342444  1
  Si  Si357  1  0.345953  0.686177  0.404496  1
  Si  Si358  1  0.346245  0.686031  0.246348  1
  Si  Si359  1  0.517961  0.614925  0.469408  1
  Si  Si360  1  0.517956  0.614921  0.277529  1
  Si  Si361  1  0.365748  0.346350  0.294594  1
  Si  Si362  1  0.365745  0.346355  0.452345  1
  Si  Si363  1  0.347740  0.117841  0.277637  1
  Si  Si364  1  0.347743  0.117844  0.469302  1
  Si  Si365  1  0.580741  0.260408  0.452185  1
  Si  Si366  1  0.580748  0.260405  0.294748  1
  Si  Si367  1  0.653989  0.313737  0.404494  1
  Si  Si368  1  0.653988  0.313745  0.342442  1
  Si  Si369  1  0.653690  0.313891  0.246344  1
  Si  Si370  1  0.481974  0.384950  0.277528  1
  Si  Si371  1  0.481972  0.384957  0.469406  1
  Si  Si372  1  0.558317  0.035077  0.469428  1
  Si  Si373  1  0.558317  0.035074  0.277510  1
  Si  Si374  1  0.080747  0.739524  0.294753  1
  Si  Si375  1  0.080750  0.739515  0.452190  1
  Si  Si376  1  0.153992  0.686185  0.342445  1
  Si  Si377  1  0.153994  0.686185  0.404497  1
  Si  Si378  1  0.153695  0.686041  0.246351  1
  Si  Si379  1  0.249971  0.835414  0.246346  1
  Si  Si380  1  0.058316  0.964851  0.277510  1
  Si  Si381  1  0.058318  0.964846  0.469429  1
  Si  Si382  1  0.249975  0.835057  0.342400  1
  Si  Si383  1  0.249976  0.835062  0.404540  1
  Si  Si384  1  0.249969  0.988756  0.452364  1
  Si  Si385  1  0.249970  0.988739  0.294574  1
  Si  Si386  1  0.310999  0.456043  0.404535  1
  Si  Si387  1  0.188935  0.456044  0.404536  1
  Si  Si388  1  0.134181  0.346366  0.294595  1
  Si  Si389  1  0.134177  0.346377  0.452346  1
  Si  Si390  1  0.152204  0.117861  0.277637  1
  Si  Si391  1  0.152202  0.117869  0.469301  1
  Si  Si392  1  0.188891  0.455905  0.246350  1
  Si  Si393  1  0.311039  0.455897  0.246349  1
  Si  Si394  1  0.017955  0.384982  0.277531  1
  Si  Si395  1  0.017951  0.384979  0.469410  1
  Si  Si396  1  0.188936  0.456046  0.342404  1
  Si  Si397  1  0.311000  0.456043  0.342403  1
  Si  Si398  1  0.865753  0.653572  0.548835  1
  Si  Si399  1  0.847737  0.882076  0.531875  1
  Si  Si400  1  0.811049  0.544007  0.500592  1
  Si  Si401  1  0.688901  0.544019  0.500592  1
  Si  Si402  1  0.981980  0.614959  0.531774  1
  Si  Si403  1  0.919191  0.260404  0.548990  1
  Si  Si404  1  0.846238  0.313865  0.500589  1
  Si  Si405  1  0.749959  0.164499  0.500586  1
  Si  Si406  1  0.941629  0.035074  0.531751  1
  Si  Si407  1  0.749963  0.011171  0.548813  1
  Si  Si408  1  0.441632  0.964836  0.531753  1
  Si  Si409  1  0.634180  0.653540  0.548837  1
  Si  Si410  1  0.652199  0.882047  0.531879  1
  Si  Si411  1  0.419195  0.739506  0.548991  1
  Si  Si412  1  0.345954  0.686176  0.596686  1
  Si  Si413  1  0.345953  0.686177  0.658738  1
  Si  Si414  1  0.346245  0.686031  0.500590  1
  Si  Si415  1  0.517956  0.614921  0.531771  1
  Si  Si416  1  0.365748  0.346350  0.548836  1
  Si  Si417  1  0.347740  0.117841  0.531880  1
  Si  Si418  1  0.580748  0.260405  0.548990  1
  Si  Si419  1  0.653690  0.313891  0.500586  1
  Si  Si420  1  0.481974  0.384950  0.531770  1
  Si  Si421  1  0.558317  0.035074  0.531752  1
  Si  Si422  1  0.080747  0.739524  0.548995  1
  Si  Si423  1  0.153992  0.686185  0.596687  1
  Si  Si424  1  0.153994  0.686185  0.658739  1
  Si  Si425  1  0.153695  0.686041  0.500593  1
  Si  Si426  1  0.249971  0.835414  0.500588  1
  Si  Si427  1  0.058316  0.964851  0.531752  1
  Si  Si428  1  0.249975  0.835057  0.596642  1
  Si  Si429  1  0.249976  0.835062  0.658783  1
  Si  Si430  1  0.249970  0.988739  0.548816  1
  Si  Si431  1  0.310999  0.456043  0.658777  1
  Si  Si432  1  0.188935  0.456044  0.658778  1
  Si  Si433  1  0.134181  0.346366  0.548837  1
  Si  Si434  1  0.152204  0.117861  0.531880  1
  Si  Si435  1  0.188891  0.455905  0.500592  1
  Si  Si436  1  0.311039  0.455897  0.500591  1
  Si  Si437  1  0.017955  0.384982  0.531773  1
  Si  Si438  1  0.188936  0.456046  0.596646  1
  Si  Si439  1  0.311000  0.456043  0.596645  1
  H  H440  1  0.844437  0.612967  0.152010  1
  H  H441  1  0.892907  0.289484  0.151961  1
  H  H442  1  0.749963  0.069621  0.152019  1
  H  H443  1  0.655514  0.612971  0.152011  1
  H  H444  1  0.359548  0.693771  0.101040  1
  H  H445  1  0.607026  0.289497  0.151959  1
  H  H446  1  0.140400  0.693784  0.101041  1
  H  H447  1  0.249975  0.862541  0.101040  1
  H  H448  1  0.179886  0.434989  0.101040  1
  H  H449  1  0.320049  0.434989  0.101039  1
  H  H450  1  0.844434  0.612987  0.594926  1
  H  H451  1  0.892905  0.289490  0.594974  1
  H  H452  1  0.749962  0.069634  0.594911  1
  H  H453  1  0.655509  0.612975  0.594928  1
  H  H454  1  0.392916  0.710412  0.696820  1
  H  H455  1  0.344424  0.386932  0.696869  1
  H  H456  1  0.607029  0.289507  0.594974  1
  H  H457  1  0.107033  0.710429  0.696822  1
  H  H458  1  0.249970  0.930293  0.696882  1
  H  H459  1  0.155502  0.386949  0.696870  1
