# generated using pymatgen
data_Si17H2O35
_symmetry_space_group_name_H-M   'P 1'
_cell_length_a   12.61833605
_cell_length_b   33.27032509
_cell_length_c   62.51196766
_cell_angle_alpha   112.29219165
_cell_angle_beta   120.00000000
_cell_angle_gamma   79.06676341
_symmetry_Int_Tables_number   1
_chemical_formula_structural   Si17H2O35
_chemical_formula_sum   'Si204 H24 O420'
_cell_volume   21028.9403891
_cell_formula_units_Z   12
loop_
 _symmetry_equiv_pos_site_id
 _symmetry_equiv_pos_as_xyz
  1  'x, y, z'
loop_
 _atom_site_type_symbol
 _atom_site_label
 _atom_site_symmetry_multiplicity
 _atom_site_fract_x
 _atom_site_fract_y
 _atom_site_fract_z
 _atom_site_occupancy
  O  O1  1  0.317050  0.250434  0.152379  1
  O  O2  1  0.697607  0.250268  0.152324  1
  O  O3  1  0.666642  0.166595  0.143749  1
  O  O4  1  0.388832  0.166740  0.143793  1
  O  O5  1  0.542237  0.226864  0.161727  1
  O  O6  1  0.892093  0.295067  0.180226  1
  O  O7  1  0.215338  0.295051  0.180204  1
  O  O8  1  0.560028  0.112639  0.145950  1
  O  O9  1  0.689352  0.333251  0.170833  1
  O  O10  1  0.976996  0.333140  0.228903  1
  O  O11  1  0.124872  0.297771  0.209497  1
  O  O12  1  0.208248  0.035537  0.190375  1
  O  O13  1  0.985496  0.250202  0.210437  1
  O  O14  1  0.316674  0.250280  0.210450  1
  O  O15  1  0.347351  0.082943  0.189172  1
  O  O16  1  0.016324  0.082872  0.189320  1
  O  O17  1  0.388591  0.166650  0.199830  1
  O  O18  1  0.944391  0.166545  0.199852  1
  O  O19  1  0.915287  0.226858  0.237060  1
  O  O20  1  0.541951  0.226873  0.237087  1
  O  O21  1  0.417570  0.106523  0.162615  1
  O  O22  1  0.791124  0.106393  0.162610  1
  O  O23  1  0.773292  0.220664  0.189180  1
  O  O24  1  0.453278  0.220780  0.189225  1
  O  O25  1  0.559566  0.112560  0.210490  1
  O  O26  1  0.879704  0.112595  0.210527  1
  O  O27  1  0.333232  0.333236  0.228880  1
  O  O28  1  0.681003  0.416209  0.189322  1
  O  O29  1  0.349787  0.416449  0.189361  1
  O  O30  1  0.721865  0.499930  0.200113  1
  O  O31  1  0.541446  0.368769  0.190240  1
  O  O32  1  0.893106  0.445866  0.210566  1
  O  O33  1  0.213471  0.445951  0.210674  1
  O  O34  1  0.332939  0.333455  0.170848  1
  O  O35  1  0.277906  0.500164  0.200200  1
  O  O36  1  0.916814  0.369094  0.266103  1
  O  O37  1  0.541932  0.368998  0.266017  1
  O  O38  1  0.030664  0.583423  0.287711  1
  O  O39  1  0.318838  0.583506  0.287806  1
  O  O40  1  0.349669  0.416187  0.247451  1
  O  O41  1  0.968969  0.416084  0.247349  1
  O  O42  1  0.774324  0.371342  0.219519  1
  O  O43  1  0.450969  0.371576  0.219528  1
  O  O44  1  0.277784  0.499861  0.256234  1
  O  O45  1  0.000000  0.499766  0.256133  1
  O  O46  1  0.249095  0.560186  0.237597  1
  O  O47  1  0.875442  0.560059  0.237479  1
  O  O48  1  0.124251  0.439664  0.238023  1
  O  O49  1  0.106662  0.553996  0.254229  1
  O  O50  1  0.364356  0.917159  0.287676  1
  O  O51  1  0.652368  0.917059  0.287667  1
  O  O52  1  0.000000  0.000000  0.171079  1
  O  O53  1  0.355909  -0.000000  0.170974  1
  O  O54  1  0.416729  0.964424  0.134062  1
  O  O55  1  0.791714  0.964538  0.134083  1
  O  O56  1  0.249668  0.702219  0.266354  1
  O  O57  1  0.874710  0.702249  0.266393  1
  O  O58  1  0.983175  0.916879  0.152660  1
  O  O59  1  0.363902  0.916872  0.152591  1
  O  O60  1  0.302165  0.749518  0.112777  1
  O  O61  1  0.014299  0.749491  0.112839  1
  O  O62  1  0.558620  0.961568  0.180458  1
  O  O63  1  0.882017  0.961777  0.180527  1
  O  O64  1  0.107472  0.704829  0.285195  1
  O  O65  1  0.333016  0.833216  0.144095  1
  O  O66  1  0.055311  0.833231  0.144138  1
  O  O67  1  0.208471  0.893442  0.161989  1
  O  O68  1  0.226449  0.779199  0.146301  1
  O  O69  1  0.000000  0.000000  0.229143  1
  O  O70  1  0.749858  0.297830  0.133779  1
  O  O71  1  0.124949  0.297742  0.133746  1
  O  O72  1  0.582848  0.035677  0.265998  1
  O  O73  1  0.207996  0.035570  0.266120  1
  O  O74  1  0.697208  0.250458  0.287315  1
  O  O75  1  0.985227  0.250515  0.287277  1
  O  O76  1  0.635548  0.082921  0.112404  1
  O  O77  1  0.016155  0.083137  0.247456  1
  O  O78  1  0.635587  0.083102  0.247411  1
  O  O79  1  0.347813  0.083062  0.112438  1
  O  O80  1  0.440985  0.038101  0.284852  1
  O  O81  1  0.440882  0.038451  0.219571  1
  O  O82  1  0.117723  0.038271  0.219677  1
  O  O83  1  0.944131  0.166792  0.255958  1
  O  O84  1  0.666379  0.166763  0.255932  1
  O  O85  1  0.790729  0.106584  0.237982  1
  O  O86  1  0.773031  0.220870  0.253810  1
  O  O87  1  0.643415  -0.000000  0.229049  1
  O  O88  1  0.082951  0.631021  0.134178  1
  O  O89  1  0.458377  0.631213  0.210027  1
  O  O90  1  0.457937  0.631159  0.134248  1
  O  O91  1  0.318733  0.583886  0.211014  1
  O  O92  1  0.650024  0.583792  0.152803  1
  O  O93  1  0.650140  0.583644  0.210941  1
  O  O94  1  0.030787  0.583905  0.152914  1
  O  O95  1  0.969266  0.416638  0.112607  1
  O  O96  1  0.681003  0.416500  0.112509  1
  O  O97  1  0.225508  0.628585  0.180723  1
  O  O98  1  0.548703  0.628425  0.180705  1
  O  O99  1  0.774685  0.371924  0.284947  1
  O  O100  1  0.000000  0.500259  0.144184  1
  O  O101  1  0.722049  0.500137  0.144070  1
  O  O102  1  0.875466  0.560369  0.162249  1
  O  O103  1  0.750617  0.439854  0.162716  1
  O  O104  1  0.124453  0.439990  0.162831  1
  O  O105  1  0.106610  0.554216  0.189737  1
  O  O106  1  0.786351  0.554098  0.189618  1
  O  O107  1  0.893198  0.446004  0.146091  1
  O  O108  1  0.666667  0.666658  0.229340  1
  O  O109  1  0.791536  0.964382  0.209791  1
  O  O110  1  0.874734  0.702242  0.190617  1
  O  O111  1  0.651912  0.917001  0.210805  1
  O  O112  1  0.983813  0.917191  0.210883  1
  O  O113  1  0.014270  0.749857  0.189708  1
  O  O114  1  0.682802  0.749676  0.247751  1
  O  O115  1  0.682884  0.749688  0.189628  1
  O  O116  1  0.302265  0.749838  0.247848  1
  O  O117  1  0.107550  0.705064  0.219936  1
  O  O118  1  0.784344  0.704970  0.219927  1
  O  O119  1  0.611176  0.833359  0.256308  1
  O  O120  1  0.055535  0.833496  0.200297  1
  O  O121  1  0.610771  0.833316  0.200178  1
  O  O122  1  0.333347  0.833491  0.256359  1
  O  O123  1  0.582119  0.893513  0.237424  1
  O  O124  1  0.209126  0.893643  0.237467  1
  O  O125  1  0.084390  0.773180  0.163067  1
  O  O126  1  0.457644  0.773232  0.238409  1
  O  O127  1  0.457531  0.773087  0.162976  1
  O  O128  1  0.440168  0.887450  0.254176  1
  O  O129  1  0.439652  0.887423  0.189512  1
  O  O130  1  0.119999  0.887439  0.189570  1
  O  O131  1  0.226574  0.779337  0.210954  1
  O  O132  1  0.546364  0.779258  0.210872  1
  O  O133  1  0.310329  0.666879  0.229365  1
  O  O134  1  0.666317  0.666748  0.171277  1
  O  O135  1  0.022869  0.666895  0.171279  1
  O  O136  1  0.317050  0.250434  0.354268  1
  O  O137  1  0.697607  0.250268  0.354212  1
  O  O138  1  0.666642  0.166595  0.345637  1
  O  O139  1  0.388832  0.166740  0.345682  1
  O  O140  1  0.356214  -0.000000  0.301076  1
  O  O141  1  0.542237  0.226864  0.363616  1
  O  O142  1  0.892093  0.295067  0.382114  1
  O  O143  1  0.215338  0.295051  0.382092  1
  O  O144  1  0.560028  0.112639  0.347838  1
  O  O145  1  0.689352  0.333251  0.372721  1
  O  O146  1  0.643955  -0.000000  0.300995  1
  O  O147  1  0.976996  0.333140  0.430791  1
  O  O148  1  0.124872  0.297771  0.411385  1
  O  O149  1  0.208248  0.035537  0.392263  1
  O  O150  1  0.985496  0.250202  0.412326  1
  O  O151  1  0.316674  0.250280  0.412338  1
  O  O152  1  0.347351  0.082943  0.391060  1
  O  O153  1  0.016324  0.082872  0.391209  1
  O  O154  1  0.388591  0.166650  0.401718  1
  O  O155  1  0.944391  0.166545  0.401740  1
  O  O156  1  0.915287  0.226858  0.438948  1
  O  O157  1  0.541951  0.226873  0.438976  1
  O  O158  1  0.417570  0.106523  0.364503  1
  O  O159  1  0.791124  0.106393  0.364498  1
  O  O160  1  0.773292  0.220664  0.391069  1
  O  O161  1  0.453278  0.220780  0.391113  1
  O  O162  1  0.559566  0.112560  0.412378  1
  O  O163  1  0.879704  0.112595  0.412415  1
  O  O164  1  0.333232  0.333236  0.430769  1
  O  O165  1  0.681003  0.416209  0.391210  1
  O  O166  1  0.349787  0.416449  0.391249  1
  O  O167  1  0.721865  0.499930  0.402002  1
  O  O168  1  0.541446  0.368769  0.392128  1
  O  O169  1  0.893106  0.445866  0.412454  1
  O  O170  1  0.213471  0.445951  0.412562  1
  O  O171  1  0.332939  0.333455  0.372736  1
  O  O172  1  0.277906  0.500164  0.402088  1
  O  O173  1  0.022394  0.666440  0.301153  1
  O  O174  1  0.310037  0.666490  0.301163  1
  O  O175  1  0.916814  0.369094  0.467992  1
  O  O176  1  0.541932  0.368998  0.467906  1
  O  O177  1  0.030664  0.583423  0.489600  1
  O  O178  1  0.318838  0.583506  0.489694  1
  O  O179  1  0.349669  0.416187  0.449339  1
  O  O180  1  0.968969  0.416084  0.449238  1
  O  O181  1  0.225149  0.628239  0.317231  1
  O  O182  1  0.774324  0.371342  0.421407  1
  O  O183  1  0.450969  0.371576  0.421417  1
  O  O184  1  0.277784  0.499861  0.458123  1
  O  O185  1  0.000000  0.499766  0.458021  1
  O  O186  1  0.249095  0.560186  0.439485  1
  O  O187  1  0.875442  0.560059  0.439368  1
  O  O188  1  0.124251  0.439664  0.439911  1
  O  O189  1  0.106662  0.553996  0.456117  1
  O  O190  1  0.364356  0.917159  0.489564  1
  O  O191  1  0.652368  0.917059  0.489555  1
  O  O192  1  0.558973  0.961909  0.317127  1
  O  O193  1  0.000000  0.000000  0.372967  1
  O  O194  1  0.355909  0.000000  0.372862  1
  O  O195  1  0.416729  0.964424  0.335950  1
  O  O196  1  0.791714  0.964538  0.335971  1
  O  O197  1  0.249668  0.702219  0.468243  1
  O  O198  1  0.874710  0.702249  0.468281  1
  O  O199  1  0.983175  0.916879  0.354548  1
  O  O200  1  0.363902  0.916872  0.354479  1
  O  O201  1  0.302165  0.749518  0.314665  1
  O  O202  1  0.014299  0.749491  0.314727  1
  O  O203  1  0.558620  0.961568  0.382347  1
  O  O204  1  0.882017  0.961777  0.382415  1
  O  O205  1  0.107472  0.704829  0.487084  1
  O  O206  1  0.333016  0.833216  0.345984  1
  O  O207  1  0.055311  0.833231  0.346026  1
  O  O208  1  0.208471  0.893442  0.363878  1
  O  O209  1  0.226449  0.779199  0.348190  1
  O  O210  1  0.000000  0.000000  0.431031  1
  O  O211  1  0.749858  0.297830  0.335667  1
  O  O212  1  0.124949  0.297742  0.335634  1
  O  O213  1  0.582848  0.035677  0.467887  1
  O  O214  1  0.207996  0.035570  0.468009  1
  O  O215  1  0.697208  0.250458  0.489203  1
  O  O216  1  0.985227  0.250515  0.489165  1
  O  O217  1  0.635548  0.082921  0.314292  1
  O  O218  1  0.016155  0.083137  0.449345  1
  O  O219  1  0.635587  0.083102  0.449299  1
  O  O220  1  0.347813  0.083062  0.314326  1
  O  O221  1  0.892123  0.295082  0.316825  1
  O  O222  1  0.440985  0.038101  0.486740  1
  O  O223  1  0.440882  0.038451  0.421459  1
  O  O224  1  0.117723  0.038271  0.421565  1
  O  O225  1  0.944131  0.166792  0.457847  1
  O  O226  1  0.666379  0.166763  0.457820  1
  O  O227  1  0.790729  0.106584  0.439871  1
  O  O228  1  0.773031  0.220870  0.455698  1
  O  O229  1  0.643415  -0.000000  0.430937  1
  O  O230  1  0.977246  0.333587  0.300939  1
  O  O231  1  0.082951  0.631021  0.336066  1
  O  O232  1  0.458377  0.631213  0.411915  1
  O  O233  1  0.457937  0.631159  0.336136  1
  O  O234  1  0.318733  0.583886  0.412902  1
  O  O235  1  0.650024  0.583792  0.354691  1
  O  O236  1  0.650140  0.583644  0.412830  1
  O  O237  1  0.030787  0.583905  0.354802  1
  O  O238  1  0.969266  0.416638  0.314495  1
  O  O239  1  0.681003  0.416500  0.314398  1
  O  O240  1  0.225508  0.628585  0.382611  1
  O  O241  1  0.548703  0.628425  0.382593  1
  O  O242  1  0.774685  0.371924  0.486835  1
  O  O243  1  0.000000  0.500259  0.346072  1
  O  O244  1  0.722049  0.500137  0.345958  1
  O  O245  1  0.875466  0.560369  0.364138  1
  O  O246  1  0.750617  0.439854  0.364604  1
  O  O247  1  0.124453  0.439990  0.364719  1
  O  O248  1  0.106610  0.554216  0.391625  1
  O  O249  1  0.786351  0.554098  0.391507  1
  O  O250  1  0.893198  0.446004  0.347979  1
  O  O251  1  0.689643  0.333476  0.300869  1
  O  O252  1  0.666667  0.666658  0.431229  1
  O  O253  1  0.791536  0.964382  0.411679  1
  O  O254  1  0.874734  0.702242  0.392505  1
  O  O255  1  0.651912  0.917001  0.412693  1
  O  O256  1  0.983813  0.917191  0.412771  1
  O  O257  1  0.014270  0.749857  0.391596  1
  O  O258  1  0.682802  0.749676  0.449640  1
  O  O259  1  0.682884  0.749688  0.391516  1
  O  O260  1  0.302265  0.749838  0.449736  1
  O  O261  1  0.107550  0.705064  0.421825  1
  O  O262  1  0.784344  0.704970  0.421815  1
  O  O263  1  0.611176  0.833359  0.458197  1
  O  O264  1  0.055535  0.833496  0.402185  1
  O  O265  1  0.610771  0.833316  0.402066  1
  O  O266  1  0.333347  0.833491  0.458247  1
  O  O267  1  0.582119  0.893513  0.439312  1
  O  O268  1  0.209126  0.893643  0.439355  1
  O  O269  1  0.084390  0.773180  0.364955  1
  O  O270  1  0.457644  0.773232  0.440297  1
  O  O271  1  0.457531  0.773087  0.364864  1
  O  O272  1  0.440168  0.887450  0.456064  1
  O  O273  1  0.439652  0.887423  0.391401  1
  O  O274  1  0.119999  0.887439  0.391458  1
  O  O275  1  0.226574  0.779337  0.412843  1
  O  O276  1  0.546364  0.779258  0.412760  1
  O  O277  1  0.310329  0.666879  0.431254  1
  O  O278  1  0.666317  0.666748  0.373165  1
  O  O279  1  0.022869  0.666895  0.373168  1
  O  O280  1  0.317050  0.250434  0.556156  1
  O  O281  1  0.697607  0.250268  0.556101  1
  O  O282  1  0.666642  0.166595  0.547526  1
  O  O283  1  0.388832  0.166740  0.547570  1
  O  O284  1  0.356214  -0.000000  0.502964  1
  O  O285  1  0.542237  0.226864  0.565504  1
  O  O286  1  0.892093  0.295067  0.584003  1
  O  O287  1  0.215338  0.295051  0.583980  1
  O  O288  1  0.560028  0.112639  0.549727  1
  O  O289  1  0.689352  0.333251  0.574609  1
  O  O290  1  0.643955  0.000000  0.502883  1
  O  O291  1  0.976996  0.333140  0.632680  1
  O  O292  1  0.124872  0.297771  0.613273  1
  O  O293  1  0.208248  0.035537  0.594152  1
  O  O294  1  0.985496  0.250202  0.614214  1
  O  O295  1  0.316674  0.250280  0.614226  1
  O  O296  1  0.347351  0.082943  0.592948  1
  O  O297  1  0.016324  0.082872  0.593097  1
  O  O298  1  0.388591  0.166650  0.603606  1
  O  O299  1  0.944391  0.166545  0.603629  1
  O  O300  1  0.915287  0.226858  0.640837  1
  O  O301  1  0.541951  0.226873  0.640864  1
  O  O302  1  0.417570  0.106523  0.566391  1
  O  O303  1  0.791124  0.106393  0.566387  1
  O  O304  1  0.773292  0.220664  0.592957  1
  O  O305  1  0.453278  0.220780  0.593002  1
  O  O306  1  0.559566  0.112560  0.614266  1
  O  O307  1  0.879704  0.112595  0.614304  1
  O  O308  1  0.333232  0.333236  0.632657  1
  O  O309  1  0.681003  0.416209  0.593099  1
  O  O310  1  0.349787  0.416449  0.593137  1
  O  O311  1  0.721865  0.499930  0.603890  1
  O  O312  1  0.541446  0.368769  0.594017  1
  O  O313  1  0.893106  0.445866  0.614342  1
  O  O314  1  0.213471  0.445951  0.614451  1
  O  O315  1  0.332939  0.333455  0.574624  1
  O  O316  1  0.277906  0.500164  0.603976  1
  O  O317  1  0.022394  0.666440  0.503042  1
  O  O318  1  0.310037  0.666490  0.503052  1
  O  O319  1  0.916814  0.369094  0.669880  1
  O  O320  1  0.541932  0.368998  0.669794  1
  O  O321  1  0.030664  0.583423  0.691488  1
  O  O322  1  0.318838  0.583506  0.691582  1
  O  O323  1  0.349669  0.416187  0.651227  1
  O  O324  1  0.968969  0.416084  0.651126  1
  O  O325  1  0.225149  0.628239  0.519119  1
  O  O326  1  0.774324  0.371342  0.623296  1
  O  O327  1  0.450969  0.371576  0.623305  1
  O  O328  1  0.277784  0.499861  0.660011  1
  O  O329  1  0.000000  0.499766  0.659909  1
  O  O330  1  0.249095  0.560186  0.641373  1
  O  O331  1  0.875442  0.560059  0.641256  1
  O  O332  1  0.124251  0.439664  0.641800  1
  O  O333  1  0.106662  0.553996  0.658006  1
  O  O334  1  0.364356  0.917159  0.691452  1
  O  O335  1  0.652368  0.917059  0.691443  1
  O  O336  1  0.558973  0.961909  0.519016  1
  O  O337  1  0.000000  -0.000000  0.574855  1
  O  O338  1  0.355909  -0.000000  0.574751  1
  O  O339  1  0.416729  0.964424  0.537838  1
  O  O340  1  0.791714  0.964538  0.537859  1
  O  O341  1  0.249668  0.702219  0.670131  1
  O  O342  1  0.874710  0.702249  0.670169  1
  O  O343  1  0.983175  0.916879  0.556436  1
  O  O344  1  0.363902  0.916872  0.556367  1
  O  O345  1  0.302165  0.749518  0.516553  1
  O  O346  1  0.014299  0.749491  0.516616  1
  O  O347  1  0.558620  0.961568  0.584235  1
  O  O348  1  0.882017  0.961777  0.584303  1
  O  O349  1  0.333016  0.833216  0.547872  1
  O  O350  1  0.055311  0.833231  0.547914  1
  O  O351  1  0.208471  0.893442  0.565766  1
  O  O352  1  0.226449  0.779199  0.550078  1
  O  O353  1  0.000000  0.000000  0.632920  1
  O  O354  1  0.749858  0.297830  0.537555  1
  O  O355  1  0.124949  0.297742  0.537522  1
  O  O356  1  0.582848  0.035677  0.669775  1
  O  O357  1  0.207996  0.035570  0.669897  1
  O  O358  1  0.697208  0.250458  0.691091  1
  O  O359  1  0.985227  0.250515  0.691053  1
  O  O360  1  0.635548  0.082921  0.516181  1
  O  O361  1  0.016155  0.083137  0.651233  1
  O  O362  1  0.635587  0.083102  0.651187  1
  O  O363  1  0.347813  0.083062  0.516215  1
  O  O364  1  0.892123  0.295082  0.518714  1
  O  O365  1  0.440882  0.038451  0.623348  1
  O  O366  1  0.117723  0.038271  0.623453  1
  O  O367  1  0.944131  0.166792  0.659735  1
  O  O368  1  0.666379  0.166763  0.659709  1
  O  O369  1  0.790729  0.106584  0.641759  1
  O  O370  1  0.773031  0.220870  0.657586  1
  O  O371  1  0.643415  0.000000  0.632825  1
  O  O372  1  0.977246  0.333587  0.502827  1
  O  O373  1  0.082951  0.631021  0.537955  1
  O  O374  1  0.458377  0.631213  0.613803  1
  O  O375  1  0.457937  0.631159  0.538025  1
  O  O376  1  0.318733  0.583886  0.614791  1
  O  O377  1  0.650024  0.583792  0.556580  1
  O  O378  1  0.650140  0.583644  0.614718  1
  O  O379  1  0.030787  0.583905  0.556690  1
  O  O380  1  0.969266  0.416638  0.516383  1
  O  O381  1  0.681003  0.416500  0.516286  1
  O  O382  1  0.225508  0.628585  0.584499  1
  O  O383  1  0.548703  0.628425  0.584482  1
  O  O384  1  0.000000  0.500259  0.547960  1
  O  O385  1  0.722049  0.500137  0.547847  1
  O  O386  1  0.875466  0.560369  0.566026  1
  O  O387  1  0.750617  0.439854  0.566492  1
  O  O388  1  0.124453  0.439990  0.566607  1
  O  O389  1  0.106610  0.554216  0.593514  1
  O  O390  1  0.786351  0.554098  0.593395  1
  O  O391  1  0.893198  0.446004  0.549868  1
  O  O392  1  0.689643  0.333476  0.502757  1
  O  O393  1  0.666667  0.666658  0.633117  1
  O  O394  1  0.791536  0.964382  0.613568  1
  O  O395  1  0.874734  0.702242  0.594394  1
  O  O396  1  0.651912  0.917001  0.614582  1
  O  O397  1  0.983813  0.917191  0.614660  1
  O  O398  1  0.014270  0.749857  0.593485  1
  O  O399  1  0.682802  0.749676  0.651528  1
  O  O400  1  0.682884  0.749688  0.593405  1
  O  O401  1  0.302265  0.749838  0.651624  1
  O  O402  1  0.107550  0.705064  0.623713  1
  O  O403  1  0.784344  0.704970  0.623703  1
  O  O404  1  0.611176  0.833359  0.660085  1
  O  O405  1  0.055535  0.833496  0.604074  1
  O  O406  1  0.610771  0.833316  0.603954  1
  O  O407  1  0.333347  0.833491  0.660135  1
  O  O408  1  0.582119  0.893513  0.641200  1
  O  O409  1  0.209126  0.893643  0.641244  1
  O  O410  1  0.084390  0.773180  0.566843  1
  O  O411  1  0.457644  0.773232  0.642185  1
  O  O412  1  0.457531  0.773087  0.566752  1
  O  O413  1  0.440168  0.887450  0.657953  1
  O  O414  1  0.439652  0.887423  0.593289  1
  O  O415  1  0.119999  0.887439  0.593346  1
  O  O416  1  0.226574  0.779337  0.614731  1
  O  O417  1  0.546364  0.779258  0.614648  1
  O  O418  1  0.310329  0.666879  0.633142  1
  O  O419  1  0.666317  0.666748  0.575054  1
  O  O420  1  0.022869  0.666895  0.575056  1
  Si  Si421  1  0.755225  0.293998  0.158417  1
  Si  Si422  1  0.666287  0.116866  0.140524  1
  Si  Si423  1  0.422682  0.116998  0.140549  1
  Si  Si424  1  0.667021  0.216370  0.160595  1
  Si  Si425  1  0.422351  0.216493  0.160642  1
  Si  Si426  1  0.245403  0.294042  0.158429  1
  Si  Si427  1  0.333904  0.039356  0.192130  1
  Si  Si428  1  0.422314  0.116881  0.189890  1
  Si  Si429  1  0.245320  0.293970  0.207621  1
  Si  Si430  1  0.422124  0.216387  0.209774  1
  Si  Si431  1  0.910574  0.216314  0.209766  1
  Si  Si432  1  0.087792  0.039246  0.192241  1
  Si  Si433  1  0.910887  0.116810  0.189937  1
  Si  Si434  1  0.998978  0.293937  0.207633  1
  Si  Si435  1  0.244006  0.549880  0.210290  1
  Si  Si436  1  0.755431  0.549703  0.210197  1
  Si  Si437  1  0.667432  0.372484  0.192110  1
  Si  Si438  1  0.420943  0.372699  0.192119  1
  Si  Si439  1  0.244457  0.450376  0.190115  1
  Si  Si440  1  0.755688  0.450204  0.190026  1
  Si  Si441  1  0.911231  0.372453  0.241324  1
  Si  Si442  1  0.421169  0.372571  0.241336  1
  Si  Si443  1  0.244342  0.450146  0.239233  1
  Si  Si444  1  0.000000  0.549586  0.259562  1
  Si  Si445  1  0.244017  0.549648  0.259646  1
  Si  Si446  1  0.000000  0.450078  0.239137  1
  Si  Si447  1  0.244418  0.706145  0.241747  1
  Si  Si448  1  0.754324  0.706023  0.241718  1
  Si  Si449  1  0.244314  0.705869  0.291428  1
  Si  Si450  1  -0.000000  0.705870  0.291467  1
  Si  Si451  1  0.333362  0.883013  0.160904  1
  Si  Si452  1  0.332649  0.783493  0.140880  1
  Si  Si453  1  0.089165  0.783501  0.140921  1
  Si  Si454  1  0.088749  0.883011  0.160948  1
  Si  Si455  1  0.912094  0.960637  0.158727  1
  Si  Si456  1  0.421777  0.960523  0.158650  1
  Si  Si457  1  0.910707  0.117017  0.239132  1
  Si  Si458  1  0.577823  0.039225  0.291096  1
  Si  Si459  1  0.087555  0.039429  0.241469  1
  Si  Si460  1  0.577690  0.039480  0.241379  1
  Si  Si461  1  0.334120  0.039293  0.291156  1
  Si  Si462  1  0.910322  0.216533  0.259184  1
  Si  Si463  1  0.666790  0.216506  0.259204  1
  Si  Si464  1  0.665918  0.116992  0.239089  1
  Si  Si465  1  0.911570  0.372983  0.291224  1
  Si  Si466  1  0.667655  0.372875  0.291151  1
  Si  Si467  1  0.755422  0.549863  0.161051  1
  Si  Si468  1  -0.000000  0.549951  0.161152  1
  Si  Si469  1  0.000000  0.450445  0.140757  1
  Si  Si470  1  0.755822  0.450355  0.140671  1
  Si  Si471  1  0.332353  0.627537  0.208156  1
  Si  Si472  1  0.578536  0.627424  0.158899  1
  Si  Si473  1  0.578806  0.627345  0.208129  1
  Si  Si474  1  0.088607  0.627509  0.158921  1
  Si  Si475  1  0.577478  0.783607  0.239474  1
  Si  Si476  1  0.577387  0.783577  0.190284  1
  Si  Si477  1  0.665526  0.960617  0.207898  1
  Si  Si478  1  0.912057  0.960763  0.207962  1
  Si  Si479  1  0.000000  0.706134  0.192513  1
  Si  Si480  1  0.754281  0.706027  0.192497  1
  Si  Si481  1  0.089280  0.783716  0.190375  1
  Si  Si482  1  0.577467  0.883105  0.259555  1
  Si  Si483  1  0.089084  0.883224  0.210196  1
  Si  Si484  1  0.576958  0.883080  0.210099  1
  Si  Si485  1  0.333869  0.883197  0.259573  1
  Si  Si486  1  0.332886  0.783696  0.239546  1
  Si  Si487  1  0.755225  0.293998  0.360306  1
  Si  Si488  1  0.666287  0.116866  0.342413  1
  Si  Si489  1  0.422682  0.116998  0.342437  1
  Si  Si490  1  0.667021  0.216370  0.362484  1
  Si  Si491  1  0.422351  0.216493  0.362530  1
  Si  Si492  1  0.245403  0.294042  0.360317  1
  Si  Si493  1  0.333904  0.039356  0.394018  1
  Si  Si494  1  0.422314  0.116881  0.391778  1
  Si  Si495  1  0.245320  0.293970  0.409510  1
  Si  Si496  1  0.422124  0.216387  0.411662  1
  Si  Si497  1  0.910574  0.216314  0.411654  1
  Si  Si498  1  0.087792  0.039246  0.394129  1
  Si  Si499  1  0.910887  0.116810  0.391826  1
  Si  Si500  1  0.998978  0.293937  0.409521  1
  Si  Si501  1  0.244006  0.549880  0.412179  1
  Si  Si502  1  0.755431  0.549703  0.412085  1
  Si  Si503  1  0.667432  0.372484  0.393998  1
  Si  Si504  1  0.420943  0.372699  0.394008  1
  Si  Si505  1  0.244457  0.450376  0.392004  1
  Si  Si506  1  0.755688  0.450204  0.391914  1
  Si  Si507  1  0.332149  0.627221  0.311001  1
  Si  Si508  1  0.911231  0.372453  0.443212  1
  Si  Si509  1  0.421169  0.372571  0.443224  1
  Si  Si510  1  0.244342  0.450146  0.441122  1
  Si  Si511  1  0.000000  0.549586  0.461450  1
  Si  Si512  1  0.244017  0.549648  0.461534  1
  Si  Si513  1  0.000000  0.450078  0.441025  1
  Si  Si514  1  0.088256  0.627126  0.310946  1
  Si  Si515  1  0.244418  0.706145  0.443636  1
  Si  Si516  1  0.754324  0.706023  0.443606  1
  Si  Si517  1  0.422147  0.960829  0.310893  1
  Si  Si518  1  0.665914  0.960778  0.310856  1
  Si  Si519  1  0.244314  0.705869  0.493316  1
  Si  Si520  1  -0.000000  0.705870  0.493355  1
  Si  Si521  1  0.333362  0.883013  0.362792  1
  Si  Si522  1  0.332649  0.783493  0.342768  1
  Si  Si523  1  0.089165  0.783501  0.342809  1
  Si  Si524  1  0.088749  0.883011  0.362836  1
  Si  Si525  1  0.912094  0.960637  0.360615  1
  Si  Si526  1  0.421777  0.960523  0.360539  1
  Si  Si527  1  0.910707  0.117017  0.441020  1
  Si  Si528  1  0.755244  0.294074  0.310577  1
  Si  Si529  1  0.000000  0.294095  0.310570  1
  Si  Si530  1  0.577823  0.039225  0.492985  1
  Si  Si531  1  0.087555  0.039429  0.443358  1
  Si  Si532  1  0.577690  0.039480  0.443268  1
  Si  Si533  1  0.334120  0.039293  0.493045  1
  Si  Si534  1  0.910322  0.216533  0.461073  1
  Si  Si535  1  0.666790  0.216506  0.461092  1
  Si  Si536  1  0.665918  0.116992  0.440978  1
  Si  Si537  1  0.911570  0.372983  0.493112  1
  Si  Si538  1  0.667655  0.372875  0.493039  1
  Si  Si539  1  0.755422  0.549863  0.362939  1
  Si  Si540  1  0.000000  0.549951  0.363041  1
  Si  Si541  1  0.000000  0.450445  0.342646  1
  Si  Si542  1  0.755822  0.450355  0.342559  1
  Si  Si543  1  0.332353  0.627537  0.410044  1
  Si  Si544  1  0.578536  0.627424  0.360788  1
  Si  Si545  1  0.578806  0.627345  0.410018  1
  Si  Si546  1  0.088607  0.627509  0.360809  1
  Si  Si547  1  0.577478  0.783607  0.441363  1
  Si  Si548  1  0.577387  0.783577  0.392172  1
  Si  Si549  1  0.665526  0.960617  0.409786  1
  Si  Si550  1  0.912057  0.960763  0.409851  1
  Si  Si551  1  0.000000  0.706134  0.394401  1
  Si  Si552  1  0.754281  0.706027  0.394385  1
  Si  Si553  1  0.089280  0.783716  0.392264  1
  Si  Si554  1  0.577467  0.883105  0.461444  1
  Si  Si555  1  0.089084  0.883224  0.412084  1
  Si  Si556  1  0.576958  0.883080  0.411987  1
  Si  Si557  1  0.333869  0.883197  0.461461  1
  Si  Si558  1  0.332886  0.783696  0.441435  1
  Si  Si559  1  0.755225  0.293998  0.562194  1
  Si  Si560  1  0.666287  0.116866  0.544301  1
  Si  Si561  1  0.422682  0.116998  0.544325  1
  Si  Si562  1  0.667021  0.216370  0.564372  1
  Si  Si563  1  0.422351  0.216493  0.564419  1
  Si  Si564  1  0.245403  0.294042  0.562206  1
  Si  Si565  1  0.333904  0.039356  0.595906  1
  Si  Si566  1  0.422314  0.116881  0.593666  1
  Si  Si567  1  0.245320  0.293970  0.611398  1
  Si  Si568  1  0.422124  0.216387  0.613551  1
  Si  Si569  1  0.910574  0.216314  0.613542  1
  Si  Si570  1  0.087792  0.039246  0.596017  1
  Si  Si571  1  0.910887  0.116810  0.593714  1
  Si  Si572  1  0.998978  0.293937  0.611409  1
  Si  Si573  1  0.244006  0.549880  0.614067  1
  Si  Si574  1  0.755431  0.549703  0.613974  1
  Si  Si575  1  0.667432  0.372484  0.595886  1
  Si  Si576  1  0.420943  0.372699  0.595896  1
  Si  Si577  1  0.244457  0.450376  0.593892  1
  Si  Si578  1  0.755688  0.450204  0.593803  1
  Si  Si579  1  0.332149  0.627221  0.512889  1
  Si  Si580  1  0.911231  0.372453  0.645100  1
  Si  Si581  1  0.421169  0.372571  0.645112  1
  Si  Si582  1  0.244342  0.450146  0.643010  1
  Si  Si583  1  0.000000  0.549586  0.663339  1
  Si  Si584  1  0.244017  0.549648  0.663422  1
  Si  Si585  1  0.000000  0.450078  0.642914  1
  Si  Si586  1  0.088256  0.627126  0.512834  1
  Si  Si587  1  0.244418  0.706145  0.645524  1
  Si  Si588  1  0.754324  0.706023  0.645495  1
  Si  Si589  1  0.422147  0.960829  0.512781  1
  Si  Si590  1  0.665914  0.960778  0.512745  1
  Si  Si591  1  0.333362  0.883013  0.564680  1
  Si  Si592  1  0.332649  0.783493  0.544656  1
  Si  Si593  1  0.089165  0.783501  0.544697  1
  Si  Si594  1  0.088749  0.883011  0.564724  1
  Si  Si595  1  0.912094  0.960637  0.562504  1
  Si  Si596  1  0.421777  0.960523  0.562427  1
  Si  Si597  1  0.910707  0.117017  0.642908  1
  Si  Si598  1  0.755244  0.294074  0.512465  1
  Si  Si599  1  -0.000000  0.294095  0.512458  1
  Si  Si600  1  0.087555  0.039429  0.645246  1
  Si  Si601  1  0.577690  0.039480  0.645156  1
  Si  Si602  1  0.910322  0.216533  0.662961  1
  Si  Si603  1  0.666790  0.216506  0.662981  1
  Si  Si604  1  0.665918  0.116992  0.642866  1
  Si  Si605  1  0.755422  0.549863  0.564827  1
  Si  Si606  1  0.000000  0.549951  0.564929  1
  Si  Si607  1  0.000000  0.450445  0.544534  1
  Si  Si608  1  0.755822  0.450355  0.544447  1
  Si  Si609  1  0.332353  0.627537  0.611932  1
  Si  Si610  1  0.578536  0.627424  0.562676  1
  Si  Si611  1  0.578806  0.627345  0.611906  1
  Si  Si612  1  0.088607  0.627509  0.562697  1
  Si  Si613  1  0.577478  0.783607  0.643251  1
  Si  Si614  1  0.577387  0.783577  0.594061  1
  Si  Si615  1  0.665526  0.960617  0.611674  1
  Si  Si616  1  0.912057  0.960763  0.611739  1
  Si  Si617  1  -0.000000  0.706134  0.596289  1
  Si  Si618  1  0.754281  0.706027  0.596274  1
  Si  Si619  1  0.089280  0.783716  0.594152  1
  Si  Si620  1  0.577467  0.883105  0.663332  1
  Si  Si621  1  0.089084  0.883224  0.613973  1
  Si  Si622  1  0.576958  0.883080  0.613875  1
  Si  Si623  1  0.333869  0.883197  0.663350  1
  Si  Si624  1  0.332886  0.783696  0.643323  1
  H  H625  1  0.416729  0.964424  0.119665  1
  H  H626  1  0.791714  0.964538  0.119685  1
  H  H627  1  0.302165  0.749518  0.098380  1
  H  H628  1  0.014299  0.749491  0.098442  1
  H  H629  1  0.749858  0.297830  0.119382  1
  H  H630  1  0.124949  0.297742  0.119348  1
  H  H631  1  0.635548  0.082921  0.098007  1
  H  H632  1  0.347813  0.083062  0.098041  1
  H  H633  1  0.082951  0.631021  0.119781  1
  H  H634  1  0.457937  0.631159  0.119851  1
  H  H635  1  0.969266  0.416638  0.098209  1
  H  H636  1  0.681003  0.416500  0.098112  1
  H  H637  1  0.916814  0.369094  0.684277  1
  H  H638  1  0.541932  0.368998  0.684191  1
  H  H639  1  0.030664  0.583423  0.705885  1
  H  H640  1  0.318838  0.583506  0.705979  1
  H  H641  1  0.364356  0.917159  0.705850  1
  H  H642  1  0.652368  0.917059  0.705840  1
  H  H643  1  0.249668  0.702219  0.684528  1
  H  H644  1  0.874710  0.702249  0.684566  1
  H  H645  1  0.582848  0.035677  0.684172  1
  H  H646  1  0.207996  0.035570  0.684294  1
  H  H647  1  0.697208  0.250458  0.705489  1
  H  H648  1  0.985227  0.250515  0.705451  1
