# generated using pymatgen
data_Si40H2O81
_symmetry_space_group_name_H-M   'P 1'
_cell_length_a   11.49275460
_cell_length_b   7.34843271
_cell_length_c   76.94974345
_cell_angle_alpha   90.00000000
_cell_angle_beta   90.00000000
_cell_angle_gamma   93.15400000
_symmetry_Int_Tables_number   1
_chemical_formula_structural   Si40H2O81
_chemical_formula_sum   'Si80 H4 O162'
_cell_volume   6488.8493136
_cell_formula_units_Z   2
loop_
 _symmetry_equiv_pos_site_id
 _symmetry_equiv_pos_as_xyz
  1  'x, y, z'
loop_
 _atom_site_type_symbol
 _atom_site_label
 _atom_site_symmetry_multiplicity
 _atom_site_fract_x
 _atom_site_fract_y
 _atom_site_fract_z
 _atom_site_occupancy
  O  O1  1  0.222277  0.025365  0.172332  1
  O  O2  1  0.222243  0.025354  0.267697  1
  O  O3  1  0.777586  0.974485  0.124355  1
  O  O4  1  0.328681  0.760273  0.160246  1
  O  O5  1  0.328654  0.760273  0.279781  1
  O  O6  1  0.671183  0.239587  0.136442  1
  O  O7  1  0.655930  0.904477  0.289351  1
  O  O8  1  0.343906  0.095373  0.146013  1
  O  O9  1  0.655957  0.904487  0.150675  1
  O  O10  1  0.843309  0.118384  0.287318  1
  O  O11  1  0.156527  0.881454  0.143978  1
  O  O12  1  0.843338  0.118405  0.152709  1
  O  O13  1  0.973164  0.841734  0.122582  1
  O  O14  1  0.026676  0.158115  0.265921  1
  O  O15  1  0.026707  0.158136  0.174105  1
  O  O16  1  0.809102  0.726041  0.101590  1
  O  O17  1  0.190737  0.273805  0.244930  1
  O  O18  1  0.190774  0.273802  0.195098  1
  O  O19  1  0.909241  0.062496  0.099720  1
  O  O20  1  0.090598  0.937351  0.243059  1
  O  O21  1  0.090614  0.937368  0.196968  1
  O  O22  1  0.730158  0.519302  0.076674  1
  O  O23  1  0.269675  0.480543  0.220014  1
  O  O24  1  0.661034  0.457782  0.109645  1
  O  O25  1  0.338801  0.542057  0.252986  1
  O  O26  1  0.338821  0.542059  0.187042  1
  O  O27  1  0.861587  0.398024  0.099758  1
  O  O28  1  0.138250  0.601820  0.243097  1
  O  O29  1  0.138274  0.601850  0.196930  1
  O  O30  1  0.634697  0.572911  0.140188  1
  O  O31  1  0.365144  0.426926  0.283526  1
  O  O32  1  0.365151  0.426943  0.156502  1
  O  O33  1  0.475182  0.349588  0.129282  1
  O  O34  1  0.524653  0.650257  0.272622  1
  O  O35  1  0.524682  0.650273  0.167407  1
  O  O36  1  0.058889  0.310951  0.110203  1
  O  O37  1  0.940952  0.688896  0.253543  1
  O  O38  1  0.940975  0.688913  0.186483  1
  O  O39  1  0.995241  0.281311  0.076673  1
  O  O40  1  0.004594  0.718533  0.220013  1
  O  O41  1  0.963611  0.721469  0.153469  1
  O  O42  1  0.963584  0.721459  0.286557  1
  O  O43  1  0.036251  0.278386  0.143217  1
  O  O44  1  0.908699  0.420356  0.274275  1
  O  O45  1  0.091135  0.579491  0.130935  1
  O  O46  1  0.908737  0.420366  0.165751  1
  O  O47  1  0.755991  0.656513  0.273647  1
  O  O48  1  0.243843  0.343335  0.130307  1
  O  O49  1  0.756020  0.656519  0.166380  1
  O  O50  1  0.777564  0.974479  0.315670  1
  O  O51  1  0.222277  0.025365  0.459011  1
  O  O52  1  0.222243  0.025354  0.554376  1
  O  O53  1  0.777586  0.974485  0.411034  1
  O  O54  1  0.671149  0.239549  0.303586  1
  O  O55  1  0.328681  0.760273  0.446925  1
  O  O56  1  0.328654  0.760273  0.566460  1
  O  O57  1  0.671183  0.239587  0.423121  1
  O  O58  1  0.655930  0.904477  0.576030  1
  O  O59  1  0.343906  0.095373  0.432692  1
  O  O60  1  0.343880  0.095364  0.294015  1
  O  O61  1  0.655957  0.904487  0.437354  1
  O  O62  1  0.843309  0.118384  0.573997  1
  O  O63  1  0.156527  0.881454  0.430657  1
  O  O64  1  0.156501  0.881459  0.296047  1
  O  O65  1  0.843338  0.118405  0.439388  1
  O  O66  1  0.973164  0.841734  0.409261  1
  O  O67  1  0.026676  0.158115  0.552600  1
  O  O68  1  0.026707  0.158136  0.460784  1
  O  O69  1  0.973125  0.841703  0.317444  1
  O  O70  1  0.809102  0.726041  0.388269  1
  O  O71  1  0.190737  0.273805  0.531609  1
  O  O72  1  0.190774  0.273802  0.481777  1
  O  O73  1  0.809056  0.726042  0.338437  1
  O  O74  1  0.909241  0.062496  0.386399  1
  O  O75  1  0.090598  0.937351  0.529738  1
  O  O76  1  0.090614  0.937368  0.483647  1
  O  O77  1  0.909219  0.062474  0.340308  1
  O  O78  1  0.730158  0.519302  0.363353  1
  O  O79  1  0.269675  0.480543  0.506693  1
  O  O80  1  0.661034  0.457782  0.396324  1
  O  O81  1  0.338801  0.542057  0.539664  1
  O  O82  1  0.338821  0.542059  0.473721  1
  O  O83  1  0.661021  0.457800  0.330380  1
  O  O84  1  0.861587  0.398024  0.386437  1
  O  O85  1  0.138250  0.601820  0.529776  1
  O  O86  1  0.138274  0.601850  0.483609  1
  O  O87  1  0.861563  0.397993  0.340268  1
  O  O88  1  0.634697  0.572911  0.426867  1
  O  O89  1  0.365144  0.426926  0.570205  1
  O  O90  1  0.365151  0.426943  0.443181  1
  O  O91  1  0.634680  0.572931  0.299843  1
  O  O92  1  0.475182  0.349588  0.415961  1
  O  O93  1  0.524653  0.650257  0.559301  1
  O  O94  1  0.524682  0.650273  0.454086  1
  O  O95  1  0.475156  0.349580  0.310745  1
  O  O96  1  0.058889  0.310951  0.396881  1
  O  O97  1  0.940952  0.688896  0.540222  1
  O  O98  1  0.940975  0.688913  0.473162  1
  O  O99  1  0.058858  0.310929  0.329822  1
  O  O100  1  0.995241  0.281311  0.363352  1
  O  O101  1  0.004594  0.718533  0.506692  1
  O  O102  1  0.036226  0.278381  0.296809  1
  O  O103  1  0.963611  0.721469  0.440148  1
  O  O104  1  0.963584  0.721459  0.573235  1
  O  O105  1  0.036251  0.278386  0.429896  1
  O  O106  1  0.908699  0.420356  0.560954  1
  O  O107  1  0.091135  0.579491  0.417614  1
  O  O108  1  0.091103  0.579482  0.309091  1
  O  O109  1  0.908737  0.420366  0.452430  1
  O  O110  1  0.755991  0.656513  0.560326  1
  O  O111  1  0.243843  0.343335  0.416986  1
  O  O112  1  0.243817  0.343326  0.309719  1
  O  O113  1  0.756020  0.656519  0.453059  1
  O  O114  1  0.777564  0.974479  0.602349  1
  O  O115  1  0.222277  0.025365  0.745690  1
  O  O116  1  0.777586  0.974485  0.697713  1
  O  O117  1  0.671149  0.239549  0.590265  1
  O  O118  1  0.328681  0.760273  0.733604  1
  O  O119  1  0.671183  0.239587  0.709800  1
  O  O120  1  0.343906  0.095373  0.719371  1
  O  O121  1  0.343880  0.095364  0.580694  1
  O  O122  1  0.655957  0.904487  0.724033  1
  O  O123  1  0.156527  0.881454  0.717336  1
  O  O124  1  0.156501  0.881459  0.582726  1
  O  O125  1  0.843338  0.118405  0.726067  1
  O  O126  1  0.973164  0.841734  0.695939  1
  O  O127  1  0.026707  0.158136  0.747463  1
  O  O128  1  0.973125  0.841703  0.604123  1
  O  O129  1  0.809102  0.726041  0.674948  1
  O  O130  1  0.190774  0.273802  0.768456  1
  O  O131  1  0.809056  0.726042  0.625115  1
  O  O132  1  0.909241  0.062496  0.673078  1
  O  O133  1  0.090614  0.937368  0.770326  1
  O  O134  1  0.909219  0.062474  0.626987  1
  O  O135  1  0.730158  0.519302  0.650032  1
  O  O136  1  0.269675  0.480543  0.793372  1
  O  O137  1  0.661034  0.457782  0.683003  1
  O  O138  1  0.338821  0.542059  0.760400  1
  O  O139  1  0.661021  0.457800  0.617059  1
  O  O140  1  0.861587  0.398024  0.673116  1
  O  O141  1  0.138274  0.601850  0.770288  1
  O  O142  1  0.861563  0.397993  0.626947  1
  O  O143  1  0.634697  0.572911  0.713546  1
  O  O144  1  0.365151  0.426943  0.729860  1
  O  O145  1  0.634680  0.572931  0.586522  1
  O  O146  1  0.475182  0.349588  0.702640  1
  O  O147  1  0.524682  0.650273  0.740765  1
  O  O148  1  0.475156  0.349580  0.597424  1
  O  O149  1  0.058889  0.310951  0.683560  1
  O  O150  1  0.940975  0.688913  0.759841  1
  O  O151  1  0.058858  0.310929  0.616501  1
  O  O152  1  0.995241  0.281311  0.650031  1
  O  O153  1  0.004594  0.718533  0.793371  1
  O  O154  1  0.036226  0.278381  0.583488  1
  O  O155  1  0.963611  0.721469  0.726827  1
  O  O156  1  0.036251  0.278386  0.716575  1
  O  O157  1  0.091135  0.579491  0.704293  1
  O  O158  1  0.091103  0.579482  0.595770  1
  O  O159  1  0.908737  0.420366  0.739109  1
  O  O160  1  0.243843  0.343335  0.703665  1
  O  O161  1  0.243817  0.343326  0.596398  1
  O  O162  1  0.756020  0.656519  0.739738  1
  Si  Si163  1  0.267334  0.937219  0.155239  1
  Si  Si164  1  0.267306  0.937218  0.284788  1
  Si  Si165  1  0.732530  0.062637  0.141448  1
  Si  Si166  1  0.866629  0.895857  0.111332  1
  Si  Si167  1  0.133208  0.103988  0.254672  1
  Si  Si168  1  0.133236  0.103995  0.185355  1
  Si  Si169  1  0.760484  0.528404  0.096704  1
  Si  Si170  1  0.239353  0.471442  0.240044  1
  Si  Si171  1  0.239368  0.471455  0.199983  1
  Si  Si172  1  0.609877  0.403444  0.128121  1
  Si  Si173  1  0.389958  0.596412  0.271461  1
  Si  Si174  1  0.389985  0.596417  0.168567  1
  Si  Si175  1  0.960495  0.263476  0.096502  1
  Si  Si176  1  0.039341  0.736372  0.239841  1
  Si  Si177  1  0.039356  0.736390  0.200185  1
  Si  Si178  1  0.952980  0.236773  0.280975  1
  Si  Si179  1  0.046856  0.763076  0.137635  1
  Si  Si180  1  0.953012  0.236779  0.159051  1
  Si  Si181  1  0.889421  0.626457  0.271631  1
  Si  Si182  1  0.110414  0.373392  0.128292  1
  Si  Si183  1  0.889450  0.626461  0.168394  1
  Si  Si184  1  0.639956  0.697843  0.283282  1
  Si  Si185  1  0.359878  0.302007  0.139943  1
  Si  Si186  1  0.639983  0.697856  0.156746  1
  Si  Si187  1  0.732504  0.062621  0.298578  1
  Si  Si188  1  0.267334  0.937219  0.441918  1
  Si  Si189  1  0.267306  0.937218  0.571467  1
  Si  Si190  1  0.732530  0.062637  0.428127  1
  Si  Si191  1  0.866629  0.895857  0.398011  1
  Si  Si192  1  0.133208  0.103988  0.541350  1
  Si  Si193  1  0.133236  0.103995  0.472034  1
  Si  Si194  1  0.866598  0.895848  0.328695  1
  Si  Si195  1  0.760484  0.528404  0.383383  1
  Si  Si196  1  0.239353  0.471442  0.526723  1
  Si  Si197  1  0.239368  0.471455  0.486662  1
  Si  Si198  1  0.760467  0.528389  0.343322  1
  Si  Si199  1  0.609877  0.403444  0.414800  1
  Si  Si200  1  0.389958  0.596412  0.558140  1
  Si  Si201  1  0.389985  0.596417  0.455246  1
  Si  Si202  1  0.609853  0.403427  0.311906  1
  Si  Si203  1  0.960495  0.263476  0.383181  1
  Si  Si204  1  0.039341  0.736372  0.526520  1
  Si  Si205  1  0.039356  0.736390  0.486864  1
  Si  Si206  1  0.960479  0.263450  0.343525  1
  Si  Si207  1  0.952980  0.236773  0.567654  1
  Si  Si208  1  0.046856  0.763076  0.424314  1
  Si  Si209  1  0.046825  0.763067  0.302390  1
  Si  Si210  1  0.953012  0.236779  0.445730  1
  Si  Si211  1  0.889421  0.626457  0.558310  1
  Si  Si212  1  0.110414  0.373392  0.414971  1
  Si  Si213  1  0.110386  0.373384  0.311734  1
  Si  Si214  1  0.889450  0.626461  0.455073  1
  Si  Si215  1  0.639956  0.697843  0.569961  1
  Si  Si216  1  0.359878  0.302007  0.426622  1
  Si  Si217  1  0.359853  0.301991  0.300085  1
  Si  Si218  1  0.639983  0.697856  0.443425  1
  Si  Si219  1  0.732504  0.062621  0.585257  1
  Si  Si220  1  0.267334  0.937219  0.728597  1
  Si  Si221  1  0.732530  0.062637  0.714806  1
  Si  Si222  1  0.866629  0.895857  0.684690  1
  Si  Si223  1  0.133236  0.103995  0.758713  1
  Si  Si224  1  0.866598  0.895848  0.615374  1
  Si  Si225  1  0.760484  0.528404  0.670062  1
  Si  Si226  1  0.239368  0.471455  0.773341  1
  Si  Si227  1  0.760467  0.528389  0.630001  1
  Si  Si228  1  0.609877  0.403444  0.701479  1
  Si  Si229  1  0.389985  0.596417  0.741925  1
  Si  Si230  1  0.609853  0.403427  0.598585  1
  Si  Si231  1  0.960495  0.263476  0.669860  1
  Si  Si232  1  0.039356  0.736390  0.773543  1
  Si  Si233  1  0.960479  0.263450  0.630204  1
  Si  Si234  1  0.046856  0.763076  0.710993  1
  Si  Si235  1  0.046825  0.763067  0.589069  1
  Si  Si236  1  0.953012  0.236779  0.732409  1
  Si  Si237  1  0.110414  0.373392  0.701650  1
  Si  Si238  1  0.110386  0.373384  0.598413  1
  Si  Si239  1  0.889450  0.626461  0.741752  1
  Si  Si240  1  0.359878  0.302007  0.713300  1
  Si  Si241  1  0.359853  0.301991  0.586764  1
  Si  Si242  1  0.639983  0.697856  0.730104  1
  H  H243  1  0.730158  0.519302  0.064978  1
  H  H244  1  0.995241  0.281311  0.064977  1
  H  H245  1  0.269675  0.480543  0.805068  1
  H  H246  1  0.004594  0.718533  0.805067  1
