# generated using pymatgen
data_Si30H2O61
_symmetry_space_group_name_H-M   'P 1'
_cell_length_a   18.36622823
_cell_length_b   9.24612979
_cell_length_c   67.73937329
_cell_angle_alpha   90.00000000
_cell_angle_beta   90.00000000
_cell_angle_gamma   90.00000000
_symmetry_Int_Tables_number   1
_chemical_formula_structural   Si30H2O61
_chemical_formula_sum   'Si120 H8 O244'
_cell_volume   11503.2653136
_cell_formula_units_Z   4
loop_
 _symmetry_equiv_pos_site_id
 _symmetry_equiv_pos_as_xyz
  1  'x, y, z'
loop_
 _atom_site_type_symbol
 _atom_site_label
 _atom_site_symmetry_multiplicity
 _atom_site_fract_x
 _atom_site_fract_y
 _atom_site_fract_z
 _atom_site_occupancy
  O  O1  1  0.130116  -0.000000  0.255239  1
  O  O2  1  0.869744  0.000000  0.119605  1
  O  O3  1  0.369745  0.000000  0.190231  1
  O  O4  1  0.630115  0.000000  0.119600  1
  O  O5  1  0.130115  -0.000000  0.190236  1
  O  O6  1  0.369745  -0.000000  0.255235  1
  O  O7  1  0.079498  0.112235  0.222738  1
  O  O8  1  0.749928  0.112238  0.133330  1
  O  O9  1  0.420362  0.112212  0.222733  1
  O  O10  1  0.249931  0.887974  0.268965  1
  O  O11  1  0.920362  0.888001  0.087103  1
  O  O12  1  0.249928  0.887990  0.176506  1
  O  O13  1  0.579498  0.887978  0.087099  1
  O  O14  1  0.880780  0.851306  0.258236  1
  O  O15  1  0.880773  0.851327  0.187240  1
  O  O16  1  0.619079  0.851300  0.187235  1
  O  O17  1  0.619086  0.851294  0.258231  1
  O  O18  1  0.119079  0.148926  0.122601  1
  O  O19  1  0.380773  0.148899  0.122596  1
  O  O20  1  0.842886  0.989113  0.289674  1
  O  O21  1  0.996666  0.989129  0.197524  1
  O  O22  1  0.656972  0.989112  0.155797  1
  O  O23  1  0.503194  0.989095  0.247946  1
  O  O24  1  0.842880  0.989135  0.155801  1
  O  O25  1  0.996670  0.989114  0.247951  1
  O  O26  1  0.656979  0.989105  0.289670  1
  O  O27  1  0.503191  0.989103  0.197520  1
  O  O28  1  0.003191  0.011120  0.112316  1
  O  O29  1  0.342879  0.011093  0.154035  1
  O  O30  1  0.156972  0.011115  0.154039  1
  O  O31  1  0.496666  0.011095  0.112312  1
  O  O32  1  0.749934  0.815797  0.274567  1
  O  O33  1  0.940995  0.815828  0.222737  1
  O  O34  1  0.749927  0.815813  0.170904  1
  O  O35  1  0.558865  0.815803  0.222733  1
  O  O36  1  0.058865  0.184409  0.087103  1
  O  O37  1  0.249928  0.184416  0.138932  1
  O  O38  1  0.440995  0.184385  0.087099  1
  O  O39  1  0.427493  0.500078  0.270899  1
  O  O40  1  0.072366  0.500109  0.174572  1
  O  O41  1  0.572366  0.500115  0.135265  1
  O  O42  1  0.427488  0.500089  0.174566  1
  O  O43  1  0.927489  0.500136  0.135270  1
  O  O44  1  0.072371  0.500095  0.270905  1
  O  O45  1  0.369904  0.275192  0.289481  1
  O  O46  1  0.129957  0.275224  0.155990  1
  O  O47  1  0.503864  0.275207  0.119643  1
  O  O48  1  0.369902  0.275198  0.155985  1
  O  O49  1  0.995990  0.275232  0.119648  1
  O  O50  1  0.129960  0.275202  0.289486  1
  O  O51  1  0.003870  0.724999  0.255282  1
  O  O52  1  0.869901  0.725028  0.153851  1
  O  O53  1  0.495989  0.724992  0.190188  1
  O  O54  1  0.629958  0.725003  0.153846  1
  O  O55  1  0.003864  0.725018  0.190193  1
  O  O56  1  0.495995  0.724985  0.255278  1
  O  O57  1  0.442022  0.232748  0.257665  1
  O  O58  1  0.057839  0.232782  0.187806  1
  O  O59  1  0.621161  0.232769  0.139204  1
  O  O60  1  0.442021  0.232760  0.187802  1
  O  O61  1  0.878691  0.232789  0.139209  1
  O  O62  1  0.057841  0.232766  0.257669  1
  O  O63  1  0.121166  0.767441  0.274844  1
  O  O64  1  0.942020  0.767465  0.122035  1
  O  O65  1  0.378691  0.767436  0.170627  1
  O  O66  1  0.557839  0.767444  0.122030  1
  O  O67  1  0.121162  0.767459  0.170631  1
  O  O68  1  0.378696  0.767426  0.274839  1
  O  O69  1  0.504691  0.315623  0.289262  1
  O  O70  1  0.995172  0.315640  0.289267  1
  O  O71  1  0.995169  0.315653  0.156208  1
  O  O72  1  0.504688  0.315634  0.156204  1
  O  O73  1  0.004688  0.684590  0.153632  1
  O  O74  1  0.495168  0.684572  0.153628  1
  O  O75  1  0.630116  -0.000000  0.325866  1
  O  O76  1  0.130116  -0.000000  0.526509  1
  O  O77  1  0.869744  -0.000000  0.390874  1
  O  O78  1  0.369745  -0.000000  0.461501  1
  O  O79  1  0.630115  -0.000000  0.390869  1
  O  O80  1  0.130115  -0.000000  0.461505  1
  O  O81  1  0.869746  -0.000000  0.325870  1
  O  O82  1  0.369745  0.000000  0.526505  1
  O  O83  1  0.749930  0.112223  0.312141  1
  O  O84  1  0.079498  0.112235  0.494007  1
  O  O85  1  0.749928  0.112238  0.404599  1
  O  O86  1  0.420362  0.112212  0.494003  1
  O  O87  1  0.249931  0.887974  0.540234  1
  O  O88  1  0.920362  0.888001  0.358372  1
  O  O89  1  0.249928  0.887990  0.447776  1
  O  O90  1  0.579498  0.887978  0.358368  1
  O  O91  1  0.880780  0.851306  0.529505  1
  O  O92  1  0.880773  0.851327  0.458509  1
  O  O93  1  0.619079  0.851300  0.458505  1
  O  O94  1  0.619086  0.851294  0.529500  1
  O  O95  1  0.119087  0.148905  0.322874  1
  O  O96  1  0.119079  0.148926  0.393870  1
  O  O97  1  0.380773  0.148899  0.393866  1
  O  O98  1  0.380781  0.148893  0.322870  1
  O  O99  1  0.842886  0.989113  0.560943  1
  O  O100  1  0.996666  0.989129  0.468794  1
  O  O101  1  0.656972  0.989112  0.427066  1
  O  O102  1  0.503194  0.989095  0.519216  1
  O  O103  1  0.842880  0.989135  0.427070  1
  O  O104  1  0.996670  0.989114  0.519220  1
  O  O105  1  0.656979  0.989105  0.560939  1
  O  O106  1  0.503191  0.989103  0.468789  1
  O  O107  1  0.156979  0.011094  0.291435  1
  O  O108  1  0.003191  0.011120  0.383586  1
  O  O109  1  0.342879  0.011093  0.425304  1
  O  O110  1  0.496669  0.011088  0.333155  1
  O  O111  1  0.156972  0.011115  0.425309  1
  O  O112  1  0.003195  0.011106  0.333159  1
  O  O113  1  0.342886  0.011083  0.291432  1
  O  O114  1  0.496666  0.011095  0.383581  1
  O  O115  1  0.749934  0.815797  0.545836  1
  O  O116  1  0.940995  0.815828  0.494007  1
  O  O117  1  0.749927  0.815813  0.442173  1
  O  O118  1  0.558865  0.815803  0.494002  1
  O  O119  1  0.249934  0.184399  0.306539  1
  O  O120  1  0.058865  0.184409  0.358372  1
  O  O121  1  0.249928  0.184416  0.410202  1
  O  O122  1  0.440995  0.184385  0.358368  1
  O  O123  1  0.427493  0.500078  0.542169  1
  O  O124  1  0.927493  0.500121  0.310206  1
  O  O125  1  0.072366  0.500109  0.445841  1
  O  O126  1  0.572366  0.500115  0.406534  1
  O  O127  1  0.427488  0.500089  0.445836  1
  O  O128  1  0.927489  0.500136  0.406539  1
  O  O129  1  0.072371  0.500095  0.542174  1
  O  O130  1  0.572371  0.500106  0.310201  1
  O  O131  1  0.369904  0.275192  0.560750  1
  O  O132  1  0.995995  0.275215  0.325827  1
  O  O133  1  0.129957  0.275224  0.427259  1
  O  O134  1  0.503864  0.275207  0.390913  1
  O  O135  1  0.369902  0.275198  0.427255  1
  O  O136  1  0.995990  0.275232  0.390917  1
  O  O137  1  0.129960  0.275202  0.560755  1
  O  O138  1  0.503870  0.275201  0.325823  1
  O  O139  1  0.629959  0.724997  0.291620  1
  O  O140  1  0.003870  0.724999  0.526552  1
  O  O141  1  0.869901  0.725028  0.425120  1
  O  O142  1  0.495989  0.724992  0.461457  1
  O  O143  1  0.629958  0.725003  0.425116  1
  O  O144  1  0.003864  0.725018  0.461462  1
  O  O145  1  0.869904  0.725007  0.291625  1
  O  O146  1  0.495995  0.724985  0.526547  1
  O  O147  1  0.442022  0.232748  0.528934  1
  O  O148  1  0.878696  0.232773  0.306266  1
  O  O149  1  0.057839  0.232782  0.459076  1
  O  O150  1  0.621161  0.232769  0.410474  1
  O  O151  1  0.442021  0.232760  0.459071  1
  O  O152  1  0.878691  0.232789  0.410479  1
  O  O153  1  0.057841  0.232766  0.528939  1
  O  O154  1  0.621167  0.232758  0.306261  1
  O  O155  1  0.557840  0.767433  0.323436  1
  O  O156  1  0.121166  0.767441  0.546113  1
  O  O157  1  0.942020  0.767465  0.393304  1
  O  O158  1  0.378691  0.767436  0.441896  1
  O  O159  1  0.557839  0.767444  0.393299  1
  O  O160  1  0.121162  0.767459  0.441901  1
  O  O161  1  0.942022  0.767452  0.323441  1
  O  O162  1  0.378696  0.767426  0.546109  1
  O  O163  1  0.504691  0.315623  0.560532  1
  O  O164  1  0.995172  0.315640  0.560537  1
  O  O165  1  0.995169  0.315653  0.427478  1
  O  O166  1  0.504688  0.315634  0.427473  1
  O  O167  1  0.495172  0.684560  0.291838  1
  O  O168  1  0.004691  0.684577  0.291843  1
  O  O169  1  0.004688  0.684590  0.424902  1
  O  O170  1  0.495168  0.684572  0.424897  1
  O  O171  1  0.630116  0.000000  0.597135  1
  O  O172  1  0.869744  0.000000  0.662143  1
  O  O173  1  0.369745  -0.000000  0.732770  1
  O  O174  1  0.630115  0.000000  0.662139  1
  O  O175  1  0.130115  -0.000000  0.732774  1
  O  O176  1  0.869746  0.000000  0.597139  1
  O  O177  1  0.749930  0.112223  0.583410  1
  O  O178  1  0.079498  0.112235  0.765277  1
  O  O179  1  0.749928  0.112238  0.675868  1
  O  O180  1  0.420362  0.112212  0.765272  1
  O  O181  1  0.920362  0.888001  0.629642  1
  O  O182  1  0.249928  0.887990  0.719045  1
  O  O183  1  0.579498  0.887978  0.629638  1
  O  O184  1  0.880773  0.851327  0.729779  1
  O  O185  1  0.619079  0.851300  0.729774  1
  O  O186  1  0.119087  0.148905  0.594144  1
  O  O187  1  0.119079  0.148926  0.665140  1
  O  O188  1  0.380773  0.148899  0.665135  1
  O  O189  1  0.380781  0.148893  0.594139  1
  O  O190  1  0.996666  0.989129  0.740063  1
  O  O191  1  0.656972  0.989112  0.698335  1
  O  O192  1  0.842880  0.989135  0.698339  1
  O  O193  1  0.503191  0.989103  0.740059  1
  O  O194  1  0.156979  0.011094  0.562705  1
  O  O195  1  0.003191  0.011120  0.654855  1
  O  O196  1  0.342879  0.011093  0.696574  1
  O  O197  1  0.496669  0.011088  0.604424  1
  O  O198  1  0.156972  0.011115  0.696578  1
  O  O199  1  0.003195  0.011106  0.604429  1
  O  O200  1  0.342886  0.011083  0.562701  1
  O  O201  1  0.496666  0.011095  0.654851  1
  O  O202  1  0.940995  0.815828  0.765276  1
  O  O203  1  0.749927  0.815813  0.713442  1
  O  O204  1  0.558865  0.815803  0.765272  1
  O  O205  1  0.249934  0.184399  0.577808  1
  O  O206  1  0.058865  0.184409  0.629642  1
  O  O207  1  0.249928  0.184416  0.681471  1
  O  O208  1  0.440995  0.184385  0.629637  1
  O  O209  1  0.927493  0.500121  0.581476  1
  O  O210  1  0.072366  0.500109  0.717110  1
  O  O211  1  0.572366  0.500115  0.677803  1
  O  O212  1  0.427488  0.500089  0.717105  1
  O  O213  1  0.927489  0.500136  0.677809  1
  O  O214  1  0.572371  0.500106  0.581470  1
  O  O215  1  0.995995  0.275215  0.597097  1
  O  O216  1  0.129957  0.275224  0.698529  1
  O  O217  1  0.503864  0.275207  0.662182  1
  O  O218  1  0.369902  0.275198  0.698524  1
  O  O219  1  0.995990  0.275232  0.662187  1
  O  O220  1  0.503870  0.275201  0.597092  1
  O  O221  1  0.629959  0.724997  0.562889  1
  O  O222  1  0.869901  0.725028  0.696390  1
  O  O223  1  0.495989  0.724992  0.732727  1
  O  O224  1  0.629958  0.725003  0.696385  1
  O  O225  1  0.003864  0.725018  0.732731  1
  O  O226  1  0.869904  0.725007  0.562894  1
  O  O227  1  0.878696  0.232773  0.577535  1
  O  O228  1  0.057839  0.232782  0.730345  1
  O  O229  1  0.621161  0.232769  0.681743  1
  O  O230  1  0.442021  0.232760  0.730341  1
  O  O231  1  0.878691  0.232789  0.681748  1
  O  O232  1  0.621167  0.232758  0.577531  1
  O  O233  1  0.557840  0.767433  0.594706  1
  O  O234  1  0.942020  0.767465  0.664573  1
  O  O235  1  0.378691  0.767436  0.713165  1
  O  O236  1  0.557839  0.767444  0.664569  1
  O  O237  1  0.121162  0.767459  0.713170  1
  O  O238  1  0.942022  0.767452  0.594711  1
  O  O239  1  0.995169  0.315653  0.698747  1
  O  O240  1  0.504688  0.315634  0.698742  1
  O  O241  1  0.495172  0.684560  0.563107  1
  O  O242  1  0.004691  0.684577  0.563113  1
  O  O243  1  0.004688  0.684590  0.696171  1
  O  O244  1  0.495168  0.684572  0.696166  1
  Si  Si245  1  0.065544  0.334394  0.276225  1
  Si  Si246  1  0.947132  0.334449  0.137121  1
  Si  Si247  1  0.434317  0.334387  0.169247  1
  Si  Si248  1  0.552723  0.334428  0.137115  1
  Si  Si249  1  0.065540  0.334409  0.169251  1
  Si  Si250  1  0.434320  0.334377  0.276219  1
  Si  Si251  1  0.447136  0.665766  0.272750  1
  Si  Si252  1  0.052723  0.665798  0.172720  1
  Si  Si253  1  0.565541  0.665816  0.140585  1
  Si  Si254  1  0.447131  0.665776  0.172715  1
  Si  Si255  1  0.934317  0.665837  0.140590  1
  Si  Si256  1  0.052727  0.665781  0.272755  1
  Si  Si257  1  0.665834  0.843224  0.277764  1
  Si  Si258  1  0.952786  0.843206  0.245536  1
  Si  Si259  1  0.834025  0.843254  0.167706  1
  Si  Si260  1  0.547073  0.843194  0.199934  1
  Si  Si261  1  0.665829  0.843233  0.167702  1
  Si  Si262  1  0.952781  0.843223  0.199939  1
  Si  Si263  1  0.834030  0.843232  0.277768  1
  Si  Si264  1  0.547079  0.843190  0.245532  1
  Si  Si265  1  0.165829  0.156995  0.142134  1
  Si  Si266  1  0.452781  0.157000  0.109897  1
  Si  Si267  1  0.334025  0.156974  0.142130  1
  Si  Si268  1  0.047073  0.157028  0.109902  1
  Si  Si269  1  0.066030  0.088593  0.200010  1
  Si  Si270  1  0.666097  0.088500  0.136986  1
  Si  Si271  1  0.433830  0.088561  0.245461  1
  Si  Si272  1  0.833758  0.088518  0.136990  1
  Si  Si273  1  0.066033  0.088582  0.245466  1
  Si  Si274  1  0.433829  0.088573  0.200005  1
  Si  Si275  1  0.166101  0.911709  0.272625  1
  Si  Si276  1  0.933828  0.911651  0.109831  1
  Si  Si277  1  0.333758  0.911708  0.172846  1
  Si  Si278  1  0.166096  0.911728  0.172849  1
  Si  Si279  1  0.333762  0.911697  0.272621  1
  Si  Si280  1  0.566031  0.911630  0.109826  1
  Si  Si281  1  0.552728  0.334418  0.308350  1
  Si  Si282  1  0.065544  0.334394  0.547494  1
  Si  Si283  1  0.947132  0.334449  0.408390  1
  Si  Si284  1  0.434317  0.334387  0.440516  1
  Si  Si285  1  0.552723  0.334428  0.408385  1
  Si  Si286  1  0.065540  0.334409  0.440521  1
  Si  Si287  1  0.947135  0.334433  0.308355  1
  Si  Si288  1  0.434320  0.334377  0.547489  1
  Si  Si289  1  0.447136  0.665766  0.544020  1
  Si  Si290  1  0.934320  0.665822  0.304886  1
  Si  Si291  1  0.052723  0.665798  0.443990  1
  Si  Si292  1  0.565541  0.665816  0.411854  1
  Si  Si293  1  0.447131  0.665776  0.443985  1
  Si  Si294  1  0.934317  0.665837  0.411859  1
  Si  Si295  1  0.052727  0.665781  0.544025  1
  Si  Si296  1  0.565543  0.665808  0.304881  1
  Si  Si297  1  0.665834  0.843224  0.549034  1
  Si  Si298  1  0.952786  0.843206  0.516805  1
  Si  Si299  1  0.834025  0.843254  0.438976  1
  Si  Si300  1  0.547073  0.843194  0.471204  1
  Si  Si301  1  0.665829  0.843233  0.438972  1
  Si  Si302  1  0.952781  0.843223  0.471208  1
  Si  Si303  1  0.834030  0.843232  0.549038  1
  Si  Si304  1  0.547079  0.843190  0.516801  1
  Si  Si305  1  0.334031  0.156965  0.303337  1
  Si  Si306  1  0.047079  0.157012  0.335573  1
  Si  Si307  1  0.165829  0.156995  0.413403  1
  Si  Si308  1  0.452781  0.157000  0.381166  1
  Si  Si309  1  0.334025  0.156974  0.413399  1
  Si  Si310  1  0.047073  0.157028  0.381171  1
  Si  Si311  1  0.165834  0.156973  0.303341  1
  Si  Si312  1  0.452787  0.156997  0.335569  1
  Si  Si313  1  0.833763  0.088501  0.308484  1
  Si  Si314  1  0.066030  0.088593  0.471279  1
  Si  Si315  1  0.666097  0.088500  0.408256  1
  Si  Si316  1  0.433830  0.088561  0.516730  1
  Si  Si317  1  0.833758  0.088518  0.408259  1
  Si  Si318  1  0.066033  0.088582  0.516735  1
  Si  Si319  1  0.666101  0.088489  0.308481  1
  Si  Si320  1  0.433829  0.088573  0.471275  1
  Si  Si321  1  0.166101  0.911709  0.543894  1
  Si  Si322  1  0.933828  0.911651  0.381100  1
  Si  Si323  1  0.333758  0.911708  0.444115  1
  Si  Si324  1  0.566032  0.911620  0.335640  1
  Si  Si325  1  0.166096  0.911728  0.444119  1
  Si  Si326  1  0.933830  0.911641  0.335644  1
  Si  Si327  1  0.333762  0.911697  0.543891  1
  Si  Si328  1  0.566031  0.911630  0.381096  1
  Si  Si329  1  0.552728  0.334418  0.579619  1
  Si  Si330  1  0.947132  0.334449  0.679660  1
  Si  Si331  1  0.434317  0.334387  0.711786  1
  Si  Si332  1  0.552723  0.334428  0.679654  1
  Si  Si333  1  0.065540  0.334409  0.711790  1
  Si  Si334  1  0.947135  0.334433  0.579624  1
  Si  Si335  1  0.934320  0.665822  0.576156  1
  Si  Si336  1  0.052723  0.665798  0.715259  1
  Si  Si337  1  0.565541  0.665816  0.683124  1
  Si  Si338  1  0.447131  0.665776  0.715254  1
  Si  Si339  1  0.934317  0.665837  0.683128  1
  Si  Si340  1  0.565543  0.665808  0.576151  1
  Si  Si341  1  0.834025  0.843254  0.710245  1
  Si  Si342  1  0.547073  0.843194  0.742473  1
  Si  Si343  1  0.665829  0.843233  0.710241  1
  Si  Si344  1  0.952781  0.843223  0.742477  1
  Si  Si345  1  0.334031  0.156965  0.574606  1
  Si  Si346  1  0.047079  0.157012  0.606843  1
  Si  Si347  1  0.165829  0.156995  0.684672  1
  Si  Si348  1  0.452781  0.157000  0.652436  1
  Si  Si349  1  0.334025  0.156974  0.684669  1
  Si  Si350  1  0.047073  0.157028  0.652440  1
  Si  Si351  1  0.165834  0.156973  0.574611  1
  Si  Si352  1  0.452787  0.156997  0.606838  1
  Si  Si353  1  0.833763  0.088501  0.579753  1
  Si  Si354  1  0.066030  0.088593  0.742549  1
  Si  Si355  1  0.666097  0.088500  0.679525  1
  Si  Si356  1  0.833758  0.088518  0.679529  1
  Si  Si357  1  0.666101  0.088489  0.579750  1
  Si  Si358  1  0.433829  0.088573  0.742544  1
  Si  Si359  1  0.933828  0.911651  0.652370  1
  Si  Si360  1  0.333758  0.911708  0.715385  1
  Si  Si361  1  0.566032  0.911620  0.606909  1
  Si  Si362  1  0.166096  0.911728  0.715388  1
  Si  Si363  1  0.933830  0.911641  0.606914  1
  Si  Si364  1  0.566031  0.911630  0.652365  1
  H  H365  1  0.920362  0.888001  0.073817  1
  H  H366  1  0.579498  0.887978  0.073813  1
  H  H367  1  0.058865  0.184409  0.073817  1
  H  H368  1  0.440995  0.184385  0.073812  1
  H  H369  1  0.079498  0.112235  0.778563  1
  H  H370  1  0.420362  0.112212  0.778558  1
  H  H371  1  0.940995  0.815828  0.778562  1
  H  H372  1  0.558865  0.815803  0.778558  1
