# generated using pymatgen
data_Si14H2O29
_symmetry_space_group_name_H-M   'P 1'
_cell_length_a   17.25289407
_cell_length_b   17.25278161
_cell_length_c   44.26792120
_cell_angle_alpha   90.00000000
_cell_angle_beta   90.00000000
_cell_angle_gamma   120.00000000
_symmetry_Int_Tables_number   1
_chemical_formula_structural   Si14H2O29
_chemical_formula_sum   'Si84 H12 O174'
_cell_volume   11411.4502355
_cell_formula_units_Z   6
loop_
 _symmetry_equiv_pos_site_id
 _symmetry_equiv_pos_as_xyz
  1  'x, y, z'
loop_
 _atom_site_type_symbol
 _atom_site_label
 _atom_site_symmetry_multiplicity
 _atom_site_fract_x
 _atom_site_fract_y
 _atom_site_fract_z
 _atom_site_occupancy
  O  O1  1  0.353471  0.433930  0.133325  1
  O  O2  1  0.080477  0.433859  0.133355  1
  O  O3  1  0.343097  0.457072  0.190851  1
  O  O4  1  0.114124  0.457085  0.190868  1
  O  O5  1  0.258817  0.030173  0.214431  1
  O  O6  1  0.970093  0.228459  0.214476  1
  O  O7  1  0.258822  0.228460  0.214471  1
  O  O8  1  0.771900  0.030070  0.214484  1
  O  O9  1  0.663946  0.041262  0.176228  1
  O  O10  1  0.377419  0.336181  0.176260  1
  O  O11  1  0.958891  0.336173  0.176323  1
  O  O12  1  0.377389  0.041151  0.176184  1
  O  O13  1  0.811026  0.189074  0.198777  1
  O  O14  1  0.378544  0.189244  0.198709  1
  O  O15  1  0.237412  0.474596  0.228873  1
  O  O16  1  0.666987  0.082585  0.230489  1
  O  O17  1  0.416433  0.082810  0.230374  1
  O  O18  1  0.416338  0.333488  0.230486  1
  O  O19  1  0.091256  0.181152  0.345778  1
  O  O20  1  0.182649  0.090891  0.428318  1
  O  O21  1  0.909566  0.090928  0.428303  1
  O  O22  1  0.157790  0.078253  0.349957  1
  O  O23  1  0.921851  0.078352  0.349917  1
  O  O24  1  0.079005  0.156719  0.424201  1
  O  O25  1  0.253753  0.020225  0.327634  1
  O  O26  1  0.980606  0.232656  0.327672  1
  O  O27  1  0.253250  0.232572  0.327665  1
  O  O28  1  0.767604  0.020132  0.327692  1
  O  O29  1  0.233221  0.252767  0.446421  1
  O  O30  1  0.020715  0.252818  0.446381  1
  O  O31  1  -0.000000  0.204632  0.387028  1
  O  O32  1  0.205284  0.204598  0.387050  1
  O  O33  1  0.192461  0.096016  0.541999  1
  O  O34  1  0.210041  0.219246  0.503946  1
  O  O35  1  0.010078  0.219251  0.503902  1
  O  O36  1  0.219714  0.009737  0.270120  1
  O  O37  1  0.990720  0.209641  0.270144  1
  O  O38  1  0.219553  0.209595  0.270141  1
  O  O39  1  0.790742  0.009820  0.270183  1
  O  O40  1  0.076331  0.151872  0.538210  1
  O  O41  1  0.152203  0.075951  0.235853  1
  O  O42  1  0.924343  0.075998  0.235867  1
  O  O43  1  0.363636  0.438291  0.246528  1
  O  O44  1  0.074953  0.438249  0.246553  1
  O  O45  1  0.438522  0.074645  0.527638  1
  O  O46  1  0.925303  0.363298  0.527579  1
  O  O47  1  0.636860  0.074819  0.527629  1
  O  O48  1  0.438492  0.363444  0.527579  1
  O  O49  1  0.375071  0.044244  0.284610  1
  O  O50  1  0.956465  0.330529  0.284796  1
  O  O51  1  0.374752  0.330599  0.284710  1
  O  O52  1  0.669979  0.044290  0.284755  1
  O  O53  1  0.330871  0.374439  0.489363  1
  O  O54  1  0.044434  0.374466  0.489317  1
  O  O55  1  0.904334  0.096003  0.541924  1
  O  O56  1  0.096325  0.192101  0.232104  1
  O  O57  1  0.522705  0.477703  0.262275  1
  O  O58  1  0.522921  0.045057  0.262158  1
  O  O59  1  0.955232  0.477471  0.262292  1
  O  O60  1  0.320182  0.159979  0.294062  1
  O  O61  1  0.840656  0.159994  0.294216  1
  O  O62  1  0.160323  0.319691  0.479943  1
  O  O63  1  0.917426  0.333235  0.230579  1
  O  O64  1  0.082786  0.415872  0.543572  1
  O  O65  1  0.333591  0.416083  0.543574  1
  O  O66  1  0.434110  0.080498  0.640823  1
  O  O67  1  0.919762  0.353479  0.640787  1
  O  O68  1  0.646693  0.080432  0.640820  1
  O  O69  1  0.434016  0.353447  0.640769  1
  O  O70  1  0.457204  0.113962  0.583305  1
  O  O71  1  0.886241  0.343029  0.583276  1
  O  O72  1  0.657137  0.113928  0.583313  1
  O  O73  1  0.457225  0.342980  0.583258  1
  O  O74  1  0.590904  0.181360  0.549030  1
  O  O75  1  0.818778  0.409233  0.548989  1
  O  O76  1  0.590897  0.409227  0.548971  1
  O  O77  1  0.228712  0.258573  0.559616  1
  O  O78  1  0.030400  0.258438  0.559585  1
  O  O79  1  0.041501  0.377502  0.597842  1
  O  O80  1  0.336322  0.377347  0.597804  1
  O  O81  1  0.762910  0.237227  0.545317  1
  O  O82  1  0.474745  0.237196  0.545265  1
  O  O83  1  0.189329  0.378307  0.575297  1
  O  O84  1  0.986597  0.493229  0.607274  1
  O  O85  1  0.506934  0.493178  0.607223  1
  O  O86  1  0.506939  0.013527  0.607302  1
  O  O87  1  0.566177  0.919536  0.133306  1
  O  O88  1  0.080465  0.646500  0.133344  1
  O  O89  1  0.353516  0.919421  0.133279  1
  O  O90  1  0.566183  0.646476  0.133337  1
  O  O91  1  0.543102  0.886044  0.190812  1
  O  O92  1  0.114097  0.656981  0.190854  1
  O  O93  1  0.343105  0.885937  0.190801  1
  O  O94  1  0.543087  0.656931  0.190850  1
  O  O95  1  0.409435  0.818606  0.225087  1
  O  O96  1  0.181549  0.590741  0.225145  1
  O  O97  1  0.409417  0.590721  0.225133  1
  O  O98  1  0.771837  0.741548  0.214539  1
  O  O99  1  0.970027  0.741407  0.214497  1
  O  O100  1  0.958879  0.622626  0.176313  1
  O  O101  1  0.663876  0.622460  0.176289  1
  O  O102  1  0.810908  0.621680  0.198827  1
  O  O103  1  0.013622  0.506769  0.166887  1
  O  O104  1  0.493248  0.506732  0.166852  1
  O  O105  1  0.493303  0.986431  0.166811  1
  O  O106  1  0.525559  0.762731  0.228809  1
  O  O107  1  0.237432  0.762769  0.228845  1
  O  O108  1  0.818630  0.909107  0.345806  1
  O  O109  1  0.091917  0.908994  0.345822  1
  O  O110  1  0.909926  0.818574  0.428334  1
  O  O111  1  0.922398  0.843391  0.349911  1
  O  O112  1  0.843562  0.921623  0.424203  1
  O  O113  1  0.079339  0.921599  0.424171  1
  O  O114  1  0.767931  0.747235  0.327736  1
  O  O115  1  0.980403  0.747217  0.327690  1
  O  O116  1  0.747587  0.979885  0.446450  1
  O  O117  1  0.020635  0.767313  0.446452  1
  O  O118  1  0.747860  0.767320  0.446435  1
  O  O119  1  0.233390  0.979779  0.446509  1
  O  O120  1  0.796052  0.795393  0.387067  1
  O  O121  1  -0.000000  0.795291  0.387062  1
  O  O122  1  0.096346  0.903954  0.232128  1
  O  O123  1  0.781039  0.990199  0.503961  1
  O  O124  1  0.009987  0.790343  0.503979  1
  O  O125  1  0.781153  0.790346  0.503970  1
  O  O126  1  0.209987  0.990200  0.504017  1
  O  O127  1  0.790737  0.780718  0.270221  1
  O  O128  1  0.990683  0.780761  0.270166  1
  O  O129  1  0.848439  0.923974  0.538264  1
  O  O130  1  0.076292  0.923989  0.538287  1
  O  O131  1  0.924346  0.848118  0.235903  1
  O  O132  1  0.561943  0.925141  0.246502  1
  O  O133  1  0.074933  0.636531  0.246533  1
  O  O134  1  0.363783  0.925341  0.246455  1
  O  O135  1  0.561877  0.636665  0.246550  1
  O  O136  1  0.636798  0.561734  0.527572  1
  O  O137  1  0.925415  0.561657  0.527582  1
  O  O138  1  0.669858  0.625523  0.284814  1
  O  O139  1  0.956334  0.625533  0.284754  1
  O  O140  1  0.625798  0.955736  0.489378  1
  O  O141  1  0.044211  0.669372  0.489401  1
  O  O142  1  0.625985  0.669473  0.489341  1
  O  O143  1  0.330854  0.955772  0.489484  1
  O  O144  1  0.666807  0.584116  0.230561  1
  O  O145  1  0.205818  0.000000  0.387084  1
  O  O146  1  0.477850  0.522511  0.511835  1
  O  O147  1  0.477934  0.954930  0.511938  1
  O  O148  1  0.045082  0.522262  0.511840  1
  O  O149  1  0.840540  0.680297  0.294173  1
  O  O150  1  0.680737  0.840027  0.479930  1
  O  O151  1  0.160223  0.839995  0.480045  1
  O  O152  1  0.904278  0.807835  0.542019  1
  O  O153  1  0.808196  0.903979  0.232218  1
  O  O154  1  0.584275  0.666735  0.543561  1
  O  O155  1  0.917393  0.583895  0.230542  1
  O  O156  1  0.795586  0.000000  0.387069  1
  O  O157  1  0.646656  0.566062  0.640768  1
  O  O158  1  0.919607  0.566056  0.640787  1
  O  O159  1  0.762901  0.525362  0.545245  1
  O  O160  1  0.657136  0.542874  0.583254  1
  O  O161  1  0.886122  0.542895  0.583263  1
  O  O162  1  0.741917  0.969907  0.559652  1
  O  O163  1  0.030436  0.771473  0.559646  1
  O  O164  1  0.741721  0.771515  0.559646  1
  O  O165  1  0.228712  0.969767  0.559691  1
  O  O166  1  0.336351  0.958782  0.597908  1
  O  O167  1  0.622830  0.663802  0.597809  1
  O  O168  1  0.041343  0.663770  0.597853  1
  O  O169  1  0.622760  0.958702  0.597898  1
  O  O170  1  0.333700  0.917165  0.543707  1
  O  O171  1  0.082922  0.666457  0.543622  1
  O  O172  1  0.584462  0.917375  0.543637  1
  O  O173  1  0.189403  0.810688  0.575383  1
  O  O174  1  0.622046  0.810903  0.575357  1
  Si  Si175  1  0.154807  0.488644  0.223526  1
  Si  Si176  1  0.334055  0.488630  0.223519  1
  Si  Si177  1  0.391162  0.430541  0.165717  1
  Si  Si178  1  0.039462  0.430530  0.165757  1
  Si  Si179  1  0.731237  0.089985  0.203560  1
  Si  Si180  1  0.359389  0.269099  0.203585  1
  Si  Si181  1  0.910012  0.268983  0.203638  1
  Si  Si182  1  0.359345  0.090191  0.203510  1
  Si  Si183  1  0.822261  0.000000  0.237529  1
  Si  Si184  1  0.821457  0.000000  0.352538  1
  Si  Si185  1  0.178966  0.000000  0.237470  1
  Si  Si186  1  -0.000000  0.178096  0.237469  1
  Si  Si187  1  0.178913  0.178039  0.237477  1
  Si  Si188  1  -0.000000  0.178611  0.352508  1
  Si  Si189  1  0.179552  0.178529  0.352533  1
  Si  Si190  1  0.179427  0.178883  0.421581  1
  Si  Si191  1  -0.000000  0.178917  0.421561  1
  Si  Si192  1  0.423926  0.025946  0.257288  1
  Si  Si193  1  0.974419  0.397614  0.257472  1
  Si  Si194  1  0.423713  0.397801  0.257402  1
  Si  Si195  1  0.602712  0.025742  0.257415  1
  Si  Si196  1  0.397986  0.423486  0.516683  1
  Si  Si197  1  0.025873  0.423208  0.516647  1
  Si  Si198  1  0.294245  0.236147  0.295243  1
  Si  Si199  1  0.764299  0.057964  0.295314  1
  Si  Si200  1  0.942761  0.236153  0.295317  1
  Si  Si201  1  0.294469  0.057934  0.295202  1
  Si  Si202  1  0.058261  0.293896  0.478785  1
  Si  Si203  1  0.236541  0.293826  0.478813  1
  Si  Si204  1  0.178430  0.178623  0.536614  1
  Si  Si205  1  -0.000000  0.178602  0.536562  1
  Si  Si206  1  0.180055  0.000000  0.352552  1
  Si  Si207  1  0.488805  0.333866  0.550600  1
  Si  Si208  1  0.090254  0.359031  0.570496  1
  Si  Si209  1  0.269203  0.359155  0.570475  1
  Si  Si210  1  0.430682  0.391108  0.608364  1
  Si  Si211  1  0.608994  0.039302  0.608434  1
  Si  Si212  1  0.430716  0.039387  0.608438  1
  Si  Si213  1  0.960863  0.391182  0.608397  1
  Si  Si214  1  0.488804  0.154603  0.550638  1
  Si  Si215  1  0.845523  0.333885  0.550627  1
  Si  Si216  1  0.666264  0.154629  0.550661  1
  Si  Si217  1  0.909936  0.640824  0.203640  1
  Si  Si218  1  0.731106  0.640950  0.203634  1
  Si  Si219  1  0.569561  0.608779  0.165731  1
  Si  Si220  1  0.391204  0.960546  0.165664  1
  Si  Si221  1  0.569583  0.960660  0.165690  1
  Si  Si222  1  0.039447  0.608846  0.165748  1
  Si  Si223  1  0.511528  0.845340  0.223465  1
  Si  Si224  1  0.154818  0.666102  0.223511  1
  Si  Si225  1  0.334087  0.845353  0.223466  1
  Si  Si226  1  0.511509  0.666070  0.223499  1
  Si  Si227  1  -0.000000  0.821361  0.237498  1
  Si  Si228  1  0.179755  0.000000  0.421598  1
  Si  Si229  1  0.821676  0.821872  0.536649  1
  Si  Si230  1  0.821946  0.821165  0.352541  1
  Si  Si231  1  0.000000  0.821108  0.352535  1
  Si  Si232  1  0.822259  0.821387  0.237559  1
  Si  Si233  1  -0.000000  0.821290  0.421584  1
  Si  Si234  1  0.821687  0.821315  0.421596  1
  Si  Si235  1  0.178391  0.000000  0.536670  1
  Si  Si236  1  0.602548  0.576769  0.257484  1
  Si  Si237  1  0.974387  0.576490  0.257431  1
  Si  Si238  1  0.577026  0.974226  0.516713  1
  Si  Si239  1  0.025980  0.602158  0.516704  1
  Si  Si240  1  0.576888  0.602370  0.516663  1
  Si  Si241  1  0.398047  0.974050  0.516794  1
  Si  Si242  1  0.942629  0.706168  0.295301  1
  Si  Si243  1  0.764279  0.706089  0.295336  1
  Si  Si244  1  0.706641  0.763844  0.478811  1
  Si  Si245  1  0.236523  0.942046  0.478921  1
  Si  Si246  1  0.058118  0.763804  0.478870  1
  Si  Si247  1  0.706456  0.942073  0.478828  1
  Si  Si248  1  0.821724  0.000000  0.536615  1
  Si  Si249  1  -0.000000  0.821896  0.536649  1
  Si  Si250  1  0.821397  0.000000  0.421591  1
  Si  Si251  1  0.960708  0.569425  0.608399  1
  Si  Si252  1  0.845508  0.511325  0.550597  1
  Si  Si253  1  0.666254  0.511323  0.550594  1
  Si  Si254  1  0.609015  0.569423  0.608364  1
  Si  Si255  1  0.269249  0.909743  0.570580  1
  Si  Si256  1  0.641130  0.730998  0.570497  1
  Si  Si257  1  0.090381  0.730844  0.570525  1
  Si  Si258  1  0.641327  0.909983  0.570565  1
  H  H259  1  0.353471  0.433930  0.112995  1
  H  H260  1  0.080477  0.433859  0.113025  1
  H  H261  1  0.434110  0.080498  0.661154  1
  H  H262  1  0.919762  0.353479  0.661118  1
  H  H263  1  0.646693  0.080432  0.661150  1
  H  H264  1  0.434016  0.353447  0.661100  1
  H  H265  1  0.566177  0.919536  0.112975  1
  H  H266  1  0.080465  0.646500  0.113013  1
  H  H267  1  0.353516  0.919421  0.112949  1
  H  H268  1  0.566183  0.646476  0.113006  1
  H  H269  1  0.646656  0.566062  0.661099  1
  H  H270  1  0.919607  0.566056  0.661118  1
