# generated using pymatgen
data_Si33H2O67
_symmetry_space_group_name_H-M   'P 1'
_cell_length_a   11.47834918
_cell_length_b   14.36840839
_cell_length_c   70.69532357
_cell_angle_alpha   90.00000000
_cell_angle_beta   90.00000000
_cell_angle_gamma   90.00000000
_symmetry_Int_Tables_number   1
_chemical_formula_structural   Si33H2O67
_chemical_formula_sum   'Si132 H8 O268'
_cell_volume   11659.4692698
_cell_formula_units_Z   4
loop_
 _symmetry_equiv_pos_site_id
 _symmetry_equiv_pos_as_xyz
  1  'x, y, z'
loop_
 _atom_site_type_symbol
 _atom_site_label
 _atom_site_symmetry_multiplicity
 _atom_site_fract_x
 _atom_site_fract_y
 _atom_site_fract_z
 _atom_site_occupancy
  O  O1  1  0.071786  0.887534  0.083457  1
  O  O2  1  0.427954  0.887535  0.083458  1
  O  O3  1  0.014439  0.385921  0.172283  1
  O  O4  1  0.749874  0.048569  0.154655  1
  O  O5  1  0.749870  0.048570  0.189911  1
  O  O6  1  0.408457  0.158828  0.190359  1
  O  O7  1  0.408457  0.158827  0.154207  1
  O  O8  1  0.091284  0.158827  0.190358  1
  O  O9  1  0.091286  0.158827  0.154207  1
  O  O10  1  0.447495  0.003580  0.172283  1
  O  O11  1  0.052249  0.003582  0.172282  1
  O  O12  1  0.249870  0.078535  0.172283  1
  O  O13  1  0.863282  0.369011  0.197830  1
  O  O14  1  0.863280  0.369009  0.146737  1
  O  O15  1  0.636451  0.369012  0.197830  1
  O  O16  1  0.636455  0.369014  0.146736  1
  O  O17  1  0.749872  0.212594  0.140015  1
  O  O18  1  0.749873  0.287299  0.172282  1
  O  O19  1  0.454663  0.173192  0.119476  1
  O  O20  1  0.045078  0.173190  0.119476  1
  O  O21  1  0.571792  0.112526  0.089781  1
  O  O22  1  0.927958  0.112526  0.089781  1
  O  O23  1  0.453665  0.002908  0.110434  1
  O  O24  1  0.046074  0.002911  0.110434  1
  O  O25  1  0.639721  0.080397  0.123765  1
  O  O26  1  0.860024  0.080399  0.123765  1
  O  O27  1  0.427393  0.321198  0.140545  1
  O  O28  1  0.072353  0.321198  0.140544  1
  O  O29  1  0.249874  0.218706  0.132387  1
  O  O30  1  0.485303  0.385928  0.172283  1
  O  O31  1  0.462823  0.499658  0.145581  1
  O  O32  1  0.036921  0.499669  0.145578  1
  O  O33  1  0.036923  0.499674  0.198987  1
  O  O34  1  0.462826  0.499667  0.198987  1
  O  O35  1  0.636178  0.922265  0.172283  1
  O  O36  1  0.863562  0.922265  0.172282  1
  O  O37  1  0.101810  0.603726  0.172283  1
  O  O38  1  0.457504  0.850921  0.154368  1
  O  O39  1  0.457507  0.850925  0.190198  1
  O  O40  1  0.042235  0.850925  0.154368  1
  O  O41  1  0.042242  0.850921  0.190199  1
  O  O42  1  0.401007  0.836440  0.119176  1
  O  O43  1  0.098735  0.836437  0.119176  1
  O  O44  1  0.249878  0.937151  0.102863  1
  O  O45  1  0.408538  0.685907  0.141028  1
  O  O46  1  0.091224  0.685893  0.141030  1
  O  O47  1  0.249876  0.806581  0.144199  1
  O  O48  1  0.249882  0.806577  0.200367  1
  O  O49  1  0.249871  0.565030  0.196983  1
  O  O50  1  0.249864  0.565024  0.147583  1
  O  O51  1  0.397937  0.603719  0.172285  1
  O  O52  1  0.749875  0.212590  0.204552  1
  O  O53  1  0.454661  0.173187  0.225090  1
  O  O54  1  0.045077  0.173192  0.225090  1
  O  O55  1  0.571790  0.112523  0.254785  1
  O  O56  1  0.927958  0.112527  0.254785  1
  O  O57  1  0.453670  0.002910  0.234132  1
  O  O58  1  0.046078  0.002908  0.234132  1
  O  O59  1  0.639721  0.080399  0.220801  1
  O  O60  1  0.860020  0.080398  0.220801  1
  O  O61  1  0.427396  0.321199  0.204021  1
  O  O62  1  0.072352  0.321195  0.204022  1
  O  O63  1  0.249868  0.218703  0.212178  1
  O  O64  1  0.598740  0.163622  0.290505  1
  O  O65  1  0.901008  0.163625  0.290504  1
  O  O66  1  0.749867  0.062910  0.274190  1
  O  O67  1  0.591215  0.314159  0.312357  1
  O  O68  1  0.908501  0.314157  0.312359  1
  O  O69  1  0.249873  0.787468  0.311343  1
  O  O70  1  0.545083  0.826870  0.290803  1
  O  O71  1  0.954666  0.826868  0.290804  1
  O  O72  1  0.427960  0.887532  0.261109  1
  O  O73  1  0.071790  0.887538  0.261109  1
  O  O74  1  0.546079  0.997150  0.281761  1
  O  O75  1  0.953671  0.997151  0.281762  1
  O  O76  1  0.360024  0.919661  0.295092  1
  O  O77  1  0.139724  0.919664  0.295093  1
  O  O78  1  0.572356  0.678864  0.311872  1
  O  O79  1  0.927392  0.678867  0.311871  1
  O  O80  1  0.749873  0.781356  0.303715  1
  O  O81  1  0.401008  0.836439  0.225390  1
  O  O82  1  0.098739  0.836438  0.225388  1
  O  O83  1  0.249873  0.937150  0.241704  1
  O  O84  1  0.408513  0.685898  0.203536  1
  O  O85  1  0.091209  0.685895  0.203536  1
  O  O86  1  0.363567  0.077796  0.343611  1
  O  O87  1  0.136183  0.077796  0.343610  1
  O  O88  1  0.542241  0.149139  0.361526  1
  O  O89  1  0.542237  0.149141  0.325695  1
  O  O90  1  0.957507  0.149141  0.361525  1
  O  O91  1  0.957506  0.149138  0.325696  1
  O  O92  1  0.598742  0.163625  0.396716  1
  O  O93  1  0.901012  0.163620  0.396717  1
  O  O94  1  0.749874  0.062910  0.413031  1
  O  O95  1  0.591214  0.314163  0.374864  1
  O  O96  1  0.908523  0.314160  0.374863  1
  O  O97  1  0.749883  0.193479  0.371694  1
  O  O98  1  0.749880  0.193494  0.315526  1
  O  O99  1  0.749877  0.435031  0.318910  1
  O  O100  1  0.749875  0.435031  0.368310  1
  O  O101  1  0.601816  0.396336  0.343611  1
  O  O102  1  0.897937  0.396335  0.343610  1
  O  O103  1  0.071786  0.887534  0.426112  1
  O  O104  1  0.249872  0.951491  0.361239  1
  O  O105  1  0.249873  0.951491  0.325982  1
  O  O106  1  0.591290  0.841232  0.325535  1
  O  O107  1  0.591289  0.841231  0.361686  1
  O  O108  1  0.908463  0.841234  0.325535  1
  O  O109  1  0.908461  0.841233  0.361686  1
  O  O110  1  0.552251  0.996481  0.343611  1
  O  O111  1  0.947496  0.996478  0.343610  1
  O  O112  1  0.749876  0.921525  0.343610  1
  O  O113  1  0.136465  0.631049  0.318064  1
  O  O114  1  0.136463  0.631047  0.369157  1
  O  O115  1  0.363288  0.631050  0.318064  1
  O  O116  1  0.363286  0.631048  0.369157  1
  O  O117  1  0.249875  0.787468  0.375878  1
  O  O118  1  0.249875  0.712761  0.343610  1
  O  O119  1  0.545081  0.826870  0.396418  1
  O  O120  1  0.954667  0.826869  0.396417  1
  O  O121  1  0.427954  0.887535  0.426113  1
  O  O122  1  0.546079  0.997151  0.405459  1
  O  O123  1  0.953670  0.997150  0.405459  1
  O  O124  1  0.360024  0.919662  0.392128  1
  O  O125  1  0.139723  0.919662  0.392129  1
  O  O126  1  0.572357  0.678863  0.375349  1
  O  O127  1  0.927392  0.678866  0.375349  1
  O  O128  1  0.749876  0.781354  0.383506  1
  O  O129  1  0.514443  0.614139  0.343610  1
  O  O130  1  0.985308  0.614139  0.343611  1
  O  O131  1  0.536928  0.500390  0.370315  1
  O  O132  1  0.962828  0.500390  0.370315  1
  O  O133  1  0.962827  0.500391  0.316906  1
  O  O134  1  0.536928  0.500392  0.316906  1
  O  O135  1  0.014439  0.385921  0.514938  1
  O  O136  1  0.749874  0.048569  0.497310  1
  O  O137  1  0.749870  0.048570  0.532566  1
  O  O138  1  0.408457  0.158828  0.533014  1
  O  O139  1  0.408457  0.158827  0.496862  1
  O  O140  1  0.091284  0.158827  0.533013  1
  O  O141  1  0.091286  0.158827  0.496862  1
  O  O142  1  0.447495  0.003580  0.514938  1
  O  O143  1  0.052249  0.003582  0.514937  1
  O  O144  1  0.249870  0.078535  0.514938  1
  O  O145  1  0.863282  0.369011  0.540485  1
  O  O146  1  0.863280  0.369009  0.489391  1
  O  O147  1  0.636451  0.369012  0.540485  1
  O  O148  1  0.636455  0.369014  0.489391  1
  O  O149  1  0.749872  0.212594  0.482670  1
  O  O150  1  0.749873  0.287299  0.514937  1
  O  O151  1  0.454663  0.173192  0.462131  1
  O  O152  1  0.045078  0.173190  0.462130  1
  O  O153  1  0.571792  0.112526  0.432436  1
  O  O154  1  0.927958  0.112526  0.432436  1
  O  O155  1  0.453665  0.002908  0.453089  1
  O  O156  1  0.046074  0.002911  0.453089  1
  O  O157  1  0.639721  0.080397  0.466420  1
  O  O158  1  0.860024  0.080399  0.466419  1
  O  O159  1  0.427393  0.321198  0.483200  1
  O  O160  1  0.072353  0.321198  0.483199  1
  O  O161  1  0.249874  0.218706  0.475042  1
  O  O162  1  0.485303  0.385928  0.514938  1
  O  O163  1  0.462823  0.499658  0.488236  1
  O  O164  1  0.036921  0.499669  0.488233  1
  O  O165  1  0.036923  0.499674  0.541642  1
  O  O166  1  0.462826  0.499667  0.541641  1
  O  O167  1  0.636178  0.922265  0.514938  1
  O  O168  1  0.863562  0.922265  0.514937  1
  O  O169  1  0.101810  0.603726  0.514938  1
  O  O170  1  0.457504  0.850921  0.497023  1
  O  O171  1  0.457507  0.850925  0.532853  1
  O  O172  1  0.042235  0.850925  0.497023  1
  O  O173  1  0.042242  0.850921  0.532854  1
  O  O174  1  0.401007  0.836440  0.461831  1
  O  O175  1  0.098735  0.836437  0.461831  1
  O  O176  1  0.249878  0.937151  0.445518  1
  O  O177  1  0.408538  0.685907  0.483682  1
  O  O178  1  0.091224  0.685893  0.483685  1
  O  O179  1  0.249876  0.806581  0.486854  1
  O  O180  1  0.249882  0.806577  0.543022  1
  O  O181  1  0.249871  0.565030  0.539638  1
  O  O182  1  0.249864  0.565024  0.490238  1
  O  O183  1  0.397937  0.603719  0.514939  1
  O  O184  1  0.749875  0.212590  0.547207  1
  O  O185  1  0.454661  0.173187  0.567745  1
  O  O186  1  0.045077  0.173192  0.567745  1
  O  O187  1  0.571790  0.112523  0.597439  1
  O  O188  1  0.927958  0.112527  0.597439  1
  O  O189  1  0.453670  0.002910  0.576787  1
  O  O190  1  0.046078  0.002908  0.576787  1
  O  O191  1  0.639721  0.080399  0.563456  1
  O  O192  1  0.860020  0.080398  0.563456  1
  O  O193  1  0.427396  0.321199  0.546676  1
  O  O194  1  0.072352  0.321195  0.546677  1
  O  O195  1  0.249868  0.218703  0.554833  1
  O  O196  1  0.598740  0.163622  0.633160  1
  O  O197  1  0.901008  0.163625  0.633158  1
  O  O198  1  0.749867  0.062910  0.616845  1
  O  O199  1  0.591215  0.314159  0.655012  1
  O  O200  1  0.908501  0.314157  0.655014  1
  O  O201  1  0.249873  0.787468  0.653998  1
  O  O202  1  0.545083  0.826870  0.633458  1
  O  O203  1  0.954666  0.826868  0.633459  1
  O  O204  1  0.427960  0.887532  0.603764  1
  O  O205  1  0.071790  0.887538  0.603764  1
  O  O206  1  0.546079  0.997150  0.624416  1
  O  O207  1  0.953671  0.997151  0.624417  1
  O  O208  1  0.360024  0.919661  0.637747  1
  O  O209  1  0.139724  0.919664  0.637748  1
  O  O210  1  0.572356  0.678864  0.654527  1
  O  O211  1  0.927392  0.678867  0.654526  1
  O  O212  1  0.749873  0.781356  0.646370  1
  O  O213  1  0.401008  0.836439  0.568045  1
  O  O214  1  0.098739  0.836438  0.568043  1
  O  O215  1  0.249873  0.937150  0.584359  1
  O  O216  1  0.408513  0.685898  0.546191  1
  O  O217  1  0.091209  0.685895  0.546191  1
  O  O218  1  0.363567  0.077796  0.686265  1
  O  O219  1  0.136183  0.077796  0.686265  1
  O  O220  1  0.542241  0.149139  0.704181  1
  O  O221  1  0.542237  0.149141  0.668350  1
  O  O222  1  0.957507  0.149141  0.704180  1
  O  O223  1  0.957506  0.149138  0.668350  1
  O  O224  1  0.598742  0.163625  0.739371  1
  O  O225  1  0.901012  0.163620  0.739372  1
  O  O226  1  0.749874  0.062910  0.755686  1
  O  O227  1  0.591214  0.314163  0.717519  1
  O  O228  1  0.908523  0.314160  0.717518  1
  O  O229  1  0.749883  0.193479  0.714349  1
  O  O230  1  0.749880  0.193494  0.658180  1
  O  O231  1  0.749877  0.435031  0.661565  1
  O  O232  1  0.749875  0.435031  0.710965  1
  O  O233  1  0.601816  0.396336  0.686265  1
  O  O234  1  0.897937  0.396335  0.686265  1
  O  O235  1  0.071786  0.887534  0.768766  1
  O  O236  1  0.249872  0.951491  0.703894  1
  O  O237  1  0.249873  0.951491  0.668637  1
  O  O238  1  0.591290  0.841232  0.668189  1
  O  O239  1  0.591289  0.841231  0.704341  1
  O  O240  1  0.908463  0.841234  0.668190  1
  O  O241  1  0.908461  0.841233  0.704341  1
  O  O242  1  0.552251  0.996481  0.686265  1
  O  O243  1  0.947496  0.996478  0.686265  1
  O  O244  1  0.749876  0.921525  0.686265  1
  O  O245  1  0.136465  0.631049  0.660718  1
  O  O246  1  0.136463  0.631047  0.711812  1
  O  O247  1  0.363288  0.631050  0.660718  1
  O  O248  1  0.363286  0.631048  0.711812  1
  O  O249  1  0.249875  0.787468  0.718533  1
  O  O250  1  0.249875  0.712761  0.686265  1
  O  O251  1  0.545081  0.826870  0.739073  1
  O  O252  1  0.954667  0.826869  0.739072  1
  O  O253  1  0.427954  0.887535  0.768768  1
  O  O254  1  0.546079  0.997151  0.748114  1
  O  O255  1  0.953670  0.997150  0.748114  1
  O  O256  1  0.360024  0.919662  0.734783  1
  O  O257  1  0.139723  0.919662  0.734784  1
  O  O258  1  0.572357  0.678863  0.718004  1
  O  O259  1  0.927392  0.678866  0.718004  1
  O  O260  1  0.749876  0.781354  0.726160  1
  O  O261  1  0.514443  0.614139  0.686265  1
  O  O262  1  0.985308  0.614139  0.686265  1
  O  O263  1  0.536928  0.500390  0.712970  1
  O  O264  1  0.962828  0.500390  0.712970  1
  O  O265  1  0.962827  0.500391  0.659561  1
  O  O266  1  0.536928  0.500392  0.659561  1
  O  O267  1  0.571792  0.112526  0.775091  1
  O  O268  1  0.927958  0.112526  0.775091  1
  Si  Si269  1  0.530625  0.093016  0.110632  1
  Si  Si270  1  0.969115  0.093019  0.110632  1
  Si  Si271  1  0.384358  0.219808  0.136118  1
  Si  Si272  1  0.115387  0.219803  0.136118  1
  Si  Si273  1  0.505377  0.397001  0.194170  1
  Si  Si274  1  0.505382  0.396996  0.150395  1
  Si  Si275  1  0.994366  0.397005  0.194171  1
  Si  Si276  1  0.994357  0.396998  0.150396  1
  Si  Si277  1  0.749868  0.309238  0.194043  1
  Si  Si278  1  0.749870  0.309241  0.150523  1
  Si  Si279  1  0.749873  0.105101  0.135846  1
  Si  Si280  1  0.383505  0.098840  0.172283  1
  Si  Si281  1  0.116237  0.098842  0.172282  1
  Si  Si282  1  0.384122  0.914874  0.103804  1
  Si  Si283  1  0.115628  0.914879  0.103804  1
  Si  Si284  1  0.383907  0.794412  0.139622  1
  Si  Si285  1  0.115822  0.794406  0.139621  1
  Si  Si286  1  0.383867  0.587549  0.194151  1
  Si  Si287  1  0.383872  0.587544  0.150415  1
  Si  Si288  1  0.115877  0.587550  0.194151  1
  Si  Si289  1  0.115859  0.587553  0.150416  1
  Si  Si290  1  0.500983  0.904152  0.172281  1
  Si  Si291  1  0.998764  0.904153  0.172285  1
  Si  Si292  1  0.749868  0.983331  0.172283  1
  Si  Si293  1  0.530631  0.093014  0.233934  1
  Si  Si294  1  0.969116  0.093015  0.233934  1
  Si  Si295  1  0.384352  0.219807  0.208448  1
  Si  Si296  1  0.115387  0.219802  0.208448  1
  Si  Si297  1  0.615621  0.085190  0.275132  1
  Si  Si298  1  0.884119  0.085183  0.275131  1
  Si  Si299  1  0.615842  0.205658  0.310949  1
  Si  Si300  1  0.883921  0.205646  0.310948  1
  Si  Si301  1  0.749870  0.105103  0.208721  1
  Si  Si302  1  0.469116  0.907045  0.281959  1
  Si  Si303  1  0.030631  0.907043  0.281959  1
  Si  Si304  1  0.615391  0.780258  0.307445  1
  Si  Si305  1  0.884355  0.780259  0.307445  1
  Si  Si306  1  0.384119  0.914877  0.240762  1
  Si  Si307  1  0.115626  0.914875  0.240761  1
  Si  Si308  1  0.383916  0.794402  0.204944  1
  Si  Si309  1  0.115831  0.794401  0.204945  1
  Si  Si310  1  0.249877  0.894956  0.307173  1
  Si  Si311  1  0.615625  0.085186  0.412088  1
  Si  Si312  1  0.884120  0.085183  0.412089  1
  Si  Si313  1  0.615830  0.205658  0.376272  1
  Si  Si314  1  0.883915  0.205655  0.376272  1
  Si  Si315  1  0.615876  0.412508  0.321743  1
  Si  Si316  1  0.615875  0.412511  0.365478  1
  Si  Si317  1  0.883878  0.412505  0.321743  1
  Si  Si318  1  0.883877  0.412515  0.365478  1
  Si  Si319  1  0.498768  0.095913  0.343610  1
  Si  Si320  1  -0.000000  0.095907  0.343610  1
  Si  Si321  1  0.249872  0.016729  0.343611  1
  Si  Si322  1  0.469114  0.907045  0.405262  1
  Si  Si323  1  0.030631  0.907044  0.405261  1
  Si  Si324  1  0.615392  0.780260  0.379776  1
  Si  Si325  1  0.884358  0.780257  0.379776  1
  Si  Si326  1  0.494366  0.603057  0.321723  1
  Si  Si327  1  0.494366  0.603058  0.365498  1
  Si  Si328  1  0.005386  0.603062  0.321723  1
  Si  Si329  1  0.005383  0.603060  0.365498  1
  Si  Si330  1  0.249878  0.690826  0.321850  1
  Si  Si331  1  0.249873  0.690827  0.365370  1
  Si  Si332  1  0.249875  0.894958  0.380048  1
  Si  Si333  1  0.616239  0.901223  0.343611  1
  Si  Si334  1  0.883509  0.901218  0.343611  1
  Si  Si335  1  0.530625  0.093016  0.453287  1
  Si  Si336  1  0.969115  0.093019  0.453287  1
  Si  Si337  1  0.384358  0.219808  0.478773  1
  Si  Si338  1  0.115387  0.219803  0.478773  1
  Si  Si339  1  0.505377  0.397001  0.536824  1
  Si  Si340  1  0.505382  0.396996  0.493050  1
  Si  Si341  1  0.994366  0.397005  0.536825  1
  Si  Si342  1  0.994357  0.396998  0.493051  1
  Si  Si343  1  0.749868  0.309238  0.536698  1
  Si  Si344  1  0.749870  0.309241  0.493178  1
  Si  Si345  1  0.749873  0.105101  0.478500  1
  Si  Si346  1  0.383505  0.098840  0.514938  1
  Si  Si347  1  0.116237  0.098842  0.514937  1
  Si  Si348  1  0.384122  0.914874  0.446459  1
  Si  Si349  1  0.115628  0.914879  0.446459  1
  Si  Si350  1  0.383907  0.794412  0.482277  1
  Si  Si351  1  0.115822  0.794406  0.482276  1
  Si  Si352  1  0.383867  0.587549  0.536806  1
  Si  Si353  1  0.383872  0.587544  0.493069  1
  Si  Si354  1  0.115877  0.587550  0.536806  1
  Si  Si355  1  0.115859  0.587553  0.493070  1
  Si  Si356  1  0.500983  0.904152  0.514936  1
  Si  Si357  1  0.998764  0.904153  0.514939  1
  Si  Si358  1  0.749868  0.983331  0.514938  1
  Si  Si359  1  0.530631  0.093014  0.576589  1
  Si  Si360  1  0.969116  0.093015  0.576588  1
  Si  Si361  1  0.384352  0.219807  0.551103  1
  Si  Si362  1  0.115387  0.219802  0.551103  1
  Si  Si363  1  0.615621  0.085190  0.617787  1
  Si  Si364  1  0.884119  0.085183  0.617786  1
  Si  Si365  1  0.615842  0.205658  0.653604  1
  Si  Si366  1  0.883921  0.205646  0.653603  1
  Si  Si367  1  0.749870  0.105103  0.551376  1
  Si  Si368  1  0.469116  0.907045  0.624614  1
  Si  Si369  1  0.030631  0.907043  0.624614  1
  Si  Si370  1  0.615391  0.780258  0.650100  1
  Si  Si371  1  0.884355  0.780259  0.650100  1
  Si  Si372  1  0.384119  0.914877  0.583417  1
  Si  Si373  1  0.115626  0.914875  0.583416  1
  Si  Si374  1  0.383916  0.794402  0.547599  1
  Si  Si375  1  0.115831  0.794401  0.547600  1
  Si  Si376  1  0.249877  0.894956  0.649828  1
  Si  Si377  1  0.615625  0.085186  0.754743  1
  Si  Si378  1  0.884120  0.085183  0.754744  1
  Si  Si379  1  0.615830  0.205658  0.718927  1
  Si  Si380  1  0.883915  0.205655  0.718927  1
  Si  Si381  1  0.615876  0.412508  0.664398  1
  Si  Si382  1  0.615875  0.412511  0.708133  1
  Si  Si383  1  0.883878  0.412505  0.664398  1
  Si  Si384  1  0.883877  0.412515  0.708133  1
  Si  Si385  1  0.498768  0.095913  0.686265  1
  Si  Si386  1  0.000000  0.095907  0.686265  1
  Si  Si387  1  0.249872  0.016729  0.686265  1
  Si  Si388  1  0.469114  0.907045  0.747917  1
  Si  Si389  1  0.030631  0.907044  0.747916  1
  Si  Si390  1  0.615392  0.780260  0.722431  1
  Si  Si391  1  0.884358  0.780257  0.722431  1
  Si  Si392  1  0.494366  0.603057  0.664378  1
  Si  Si393  1  0.494366  0.603058  0.708153  1
  Si  Si394  1  0.005386  0.603062  0.664378  1
  Si  Si395  1  0.005383  0.603060  0.708153  1
  Si  Si396  1  0.249878  0.690826  0.664505  1
  Si  Si397  1  0.249873  0.690827  0.708025  1
  Si  Si398  1  0.249875  0.894958  0.722703  1
  Si  Si399  1  0.616239  0.901223  0.686265  1
  Si  Si400  1  0.883509  0.901218  0.686265  1
  H  H401  1  0.071786  0.887534  0.070726  1
  H  H402  1  0.427954  0.887535  0.070727  1
  H  H403  1  0.571792  0.112526  0.077051  1
  H  H404  1  0.927958  0.112526  0.077051  1
  H  H405  1  0.071786  0.887534  0.781497  1
  H  H406  1  0.427954  0.887535  0.781498  1
  H  H407  1  0.571792  0.112526  0.787822  1
  H  H408  1  0.927958  0.112526  0.787822  1
