# generated using pymatgen
data_Si16H2O33
_symmetry_space_group_name_H-M   'P 1'
_cell_length_a   10.13906825
_cell_length_b   19.86355878
_cell_length_c   58.14570294
_cell_angle_alpha   134.96746613
_cell_angle_beta   90.00000000
_cell_angle_gamma   90.00000000
_symmetry_Int_Tables_number   1
_chemical_formula_structural   Si16H2O33
_chemical_formula_sum   'Si64 H8 O132'
_cell_volume   8285.2228892
_cell_formula_units_Z   4
loop_
 _symmetry_equiv_pos_site_id
 _symmetry_equiv_pos_as_xyz
  1  'x, y, z'
loop_
 _atom_site_type_symbol
 _atom_site_label
 _atom_site_symmetry_multiplicity
 _atom_site_fract_x
 _atom_site_fract_y
 _atom_site_fract_z
 _atom_site_occupancy
  O  O1  1  0.499990  0.326899  0.137019  1
  O  O2  1  0.000000  0.826916  0.137019  1
  O  O3  1  0.874449  0.868953  0.267760  1
  O  O4  1  0.000000  0.826900  0.294837  1
  O  O5  1  0.499994  0.673334  0.220652  1
  O  O6  1  0.125429  0.672699  0.267685  1
  O  O7  1  0.625538  0.827531  0.247798  1
  O  O8  1  0.125554  0.868951  0.267776  1
  O  O9  1  0.374457  0.827533  0.247804  1
  O  O10  1  0.874347  0.672710  0.267694  1
  O  O11  1  0.000000  0.756812  0.319716  1
  O  O12  1  0.499935  0.500117  0.195696  1
  O  O13  1  0.217092  0.500118  0.228423  1
  O  O14  1  0.782698  0.500121  0.228435  1
  O  O15  1  0.625435  0.368954  0.184403  1
  O  O16  1  0.625435  0.631286  0.247733  1
  O  O17  1  0.374330  0.368950  0.184382  1
  O  O18  1  0.374329  0.631288  0.247712  1
  O  O19  1  0.717341  0.378863  0.228482  1
  O  O20  1  0.282508  0.378860  0.228466  1
  O  O21  1  0.282514  0.621389  0.287014  1
  O  O22  1  0.717346  0.621388  0.287031  1
  O  O23  1  0.000000  -0.000000  0.319797  1
  O  O24  1  0.499990  0.326899  0.378441  1
  O  O25  1  0.000000  0.173334  0.137055  1
  O  O26  1  0.125561  0.131289  0.331116  1
  O  O27  1  0.625543  0.172708  0.331134  1
  O  O28  1  0.125429  0.327534  0.184357  1
  O  O29  1  0.874455  0.131285  0.331094  1
  O  O30  1  0.874346  0.327531  0.184363  1
  O  O31  1  0.374462  0.172701  0.331138  1
  O  O32  1  0.282797  0.000000  0.287070  1
  O  O33  1  0.717190  0.000000  0.287059  1
  O  O34  1  0.000000  0.243438  0.195780  1
  O  O35  1  0.000000  0.826916  0.378442  1
  O  O36  1  0.499897  0.673351  0.137055  1
  O  O37  1  0.217389  0.878863  0.228478  1
  O  O38  1  0.125513  0.868964  0.184397  1
  O  O39  1  0.125501  0.672715  0.331132  1
  O  O40  1  0.625506  0.827526  0.184352  1
  O  O41  1  0.874407  0.868963  0.184386  1
  O  O42  1  0.374425  0.827565  0.184369  1
  O  O43  1  0.874419  0.672720  0.331141  1
  O  O44  1  0.782556  0.878860  0.228465  1
  O  O45  1  0.499971  0.743438  0.195776  1
  O  O46  1  0.499912  0.500133  0.319801  1
  O  O47  1  0.217157  0.500133  0.287062  1
  O  O48  1  0.782763  0.500129  0.287074  1
  O  O49  1  0.625517  0.631295  0.331113  1
  O  O50  1  0.625503  0.368966  0.267782  1
  O  O51  1  0.374412  0.631301  0.331096  1
  O  O52  1  0.374397  0.368961  0.267767  1
  O  O53  1  0.282742  -0.000000  0.228440  1
  O  O54  1  0.000000  0.000000  0.195700  1
  O  O55  1  0.499907  0.326916  0.294844  1
  O  O56  1  0.000000  0.173351  0.220660  1
  O  O57  1  0.625470  0.172714  0.267690  1
  O  O58  1  0.125485  0.327557  0.247806  1
  O  O59  1  0.125478  0.131303  0.247738  1
  O  O60  1  0.874404  0.327535  0.247809  1
  O  O61  1  0.374389  0.172722  0.267701  1
  O  O62  1  0.874373  0.131293  0.247718  1
  O  O63  1  0.217376  0.121392  0.287035  1
  O  O64  1  0.782543  0.121385  0.287016  1
  O  O65  1  0.717136  0.000000  0.228424  1
  O  O66  1  0.499969  0.256812  0.319720  1
  O  O67  1  0.874449  0.868953  0.509183  1
  O  O68  1  0.000000  0.826900  0.536259  1
  O  O69  1  0.499994  0.673334  0.462074  1
  O  O70  1  0.125429  0.672699  0.509108  1
  O  O71  1  0.625538  0.827531  0.489221  1
  O  O72  1  0.125554  0.868951  0.509199  1
  O  O73  1  0.374457  0.827533  0.489226  1
  O  O74  1  0.874347  0.672710  0.509117  1
  O  O75  1  -0.000000  0.756812  0.561139  1
  O  O76  1  0.499935  0.500117  0.437118  1
  O  O77  1  0.217092  0.500118  0.469846  1
  O  O78  1  0.782698  0.500121  0.469858  1
  O  O79  1  0.625435  0.368954  0.425825  1
  O  O80  1  0.625435  0.631286  0.489155  1
  O  O81  1  0.374330  0.368950  0.425804  1
  O  O82  1  0.374329  0.631288  0.489134  1
  O  O83  1  0.717341  0.378863  0.469904  1
  O  O84  1  0.282508  0.378860  0.469889  1
  O  O85  1  0.282514  0.621389  0.528437  1
  O  O86  1  0.717346  0.621388  0.528454  1
  O  O87  1  -0.000000  0.000000  0.561220  1
  O  O88  1  0.499990  0.326899  0.619864  1
  O  O89  1  -0.000000  0.173334  0.378478  1
  O  O90  1  0.125561  0.131289  0.572539  1
  O  O91  1  0.625543  0.172708  0.572556  1
  O  O92  1  0.125429  0.327534  0.425780  1
  O  O93  1  0.874455  0.131285  0.572516  1
  O  O94  1  0.874346  0.327531  0.425785  1
  O  O95  1  0.374462  0.172701  0.572561  1
  O  O96  1  0.282797  0.000000  0.528493  1
  O  O97  1  0.717190  -0.000000  0.528482  1
  O  O98  1  0.000000  0.243438  0.437203  1
  O  O99  1  -0.000000  0.826916  0.619864  1
  O  O100  1  0.499897  0.673351  0.378478  1
  O  O101  1  0.217389  0.878863  0.469900  1
  O  O102  1  0.125513  0.868964  0.425819  1
  O  O103  1  0.125501  0.672715  0.572554  1
  O  O104  1  0.625506  0.827526  0.425775  1
  O  O105  1  0.874407  0.868963  0.425809  1
  O  O106  1  0.374425  0.827565  0.425791  1
  O  O107  1  0.874419  0.672720  0.572564  1
  O  O108  1  0.782556  0.878860  0.469887  1
  O  O109  1  0.499971  0.743438  0.437199  1
  O  O110  1  0.499912  0.500133  0.561223  1
  O  O111  1  0.217157  0.500133  0.528484  1
  O  O112  1  0.782763  0.500129  0.528496  1
  O  O113  1  0.625517  0.631295  0.572535  1
  O  O114  1  0.625503  0.368966  0.509204  1
  O  O115  1  0.374412  0.631301  0.572519  1
  O  O116  1  0.374397  0.368961  0.509189  1
  O  O117  1  0.282742  -0.000000  0.469862  1
  O  O118  1  0.000000  0.000000  0.437122  1
  O  O119  1  0.499907  0.326916  0.536267  1
  O  O120  1  -0.000000  0.173351  0.462083  1
  O  O121  1  0.625470  0.172714  0.509113  1
  O  O122  1  0.125485  0.327557  0.489228  1
  O  O123  1  0.125478  0.131303  0.489161  1
  O  O124  1  0.874404  0.327535  0.489231  1
  O  O125  1  0.374389  0.172722  0.509123  1
  O  O126  1  0.874373  0.131293  0.489141  1
  O  O127  1  0.217376  0.121392  0.528457  1
  O  O128  1  0.782543  0.121385  0.528439  1
  O  O129  1  0.717136  -0.000000  0.469846  1
  O  O130  1  0.499969  0.256812  0.561143  1
  O  O131  1  0.000000  0.173334  0.619900  1
  O  O132  1  0.499897  0.673351  0.619900  1
  Si  Si133  1  0.749920  0.890786  0.257775  1
  Si  Si134  1  0.250064  0.890785  0.257786  1
  Si  Si135  1  0.499993  0.765414  0.227618  1
  Si  Si136  1  0.000000  0.890348  0.287948  1
  Si  Si137  1  0.000000  0.734824  0.287872  1
  Si  Si138  1  0.249827  0.609453  0.257703  1
  Si  Si139  1  0.749967  0.390787  0.204929  1
  Si  Si140  1  0.499921  0.390348  0.174543  1
  Si  Si141  1  0.499925  0.609889  0.227542  1
  Si  Si142  1  0.749967  0.609456  0.257719  1
  Si  Si143  1  0.249824  0.390784  0.204915  1
  Si  Si144  1  0.250063  0.109454  0.310582  1
  Si  Si145  1  -0.000000  0.109889  0.340954  1
  Si  Si146  1  0.499994  0.234824  0.340947  1
  Si  Si147  1  0.000000  0.265414  0.174549  1
  Si  Si148  1  0.749923  0.109454  0.310567  1
  Si  Si149  1  0.000000  0.890361  0.174543  1
  Si  Si150  1  0.000000  0.734837  0.340948  1
  Si  Si151  1  0.499951  0.765426  0.174549  1
  Si  Si152  1  0.749887  0.890790  0.204915  1
  Si  Si153  1  0.250027  0.890803  0.204930  1
  Si  Si154  1  0.249879  0.390797  0.257779  1
  Si  Si155  1  0.750030  0.609463  0.310582  1
  Si  Si156  1  0.499930  0.609902  0.340953  1
  Si  Si157  1  0.499923  0.390361  0.287954  1
  Si  Si158  1  0.750019  0.390795  0.257792  1
  Si  Si159  1  0.249887  0.609466  0.310568  1
  Si  Si160  1  0.749861  0.109458  0.257707  1
  Si  Si161  1  0.250004  0.109471  0.257725  1
  Si  Si162  1  -0.000000  0.109902  0.227548  1
  Si  Si163  1  0.499938  0.234836  0.287878  1
  Si  Si164  1  -0.000000  0.265426  0.227624  1
  Si  Si165  1  0.749920  0.890786  0.499198  1
  Si  Si166  1  0.250064  0.890785  0.499209  1
  Si  Si167  1  0.499993  0.765414  0.469041  1
  Si  Si168  1  0.000000  0.890348  0.529371  1
  Si  Si169  1  0.000000  0.734824  0.529295  1
  Si  Si170  1  0.249827  0.609453  0.499126  1
  Si  Si171  1  0.749967  0.390787  0.446352  1
  Si  Si172  1  0.499921  0.390348  0.415965  1
  Si  Si173  1  0.499925  0.609889  0.468965  1
  Si  Si174  1  0.749967  0.609456  0.499141  1
  Si  Si175  1  0.249824  0.390784  0.446337  1
  Si  Si176  1  0.250063  0.109454  0.552005  1
  Si  Si177  1  -0.000000  0.109889  0.582376  1
  Si  Si178  1  0.499994  0.234824  0.582370  1
  Si  Si179  1  -0.000000  0.265414  0.415972  1
  Si  Si180  1  0.749923  0.109454  0.551990  1
  Si  Si181  1  -0.000000  0.890361  0.415966  1
  Si  Si182  1  0.000000  0.734837  0.582370  1
  Si  Si183  1  0.499951  0.765426  0.415972  1
  Si  Si184  1  0.749887  0.890790  0.446337  1
  Si  Si185  1  0.250027  0.890803  0.446352  1
  Si  Si186  1  0.249879  0.390797  0.499202  1
  Si  Si187  1  0.750030  0.609463  0.552004  1
  Si  Si188  1  0.499930  0.609902  0.582376  1
  Si  Si189  1  0.499923  0.390361  0.529377  1
  Si  Si190  1  0.750019  0.390795  0.499215  1
  Si  Si191  1  0.249887  0.609466  0.551990  1
  Si  Si192  1  0.749861  0.109458  0.499129  1
  Si  Si193  1  0.250004  0.109471  0.499147  1
  Si  Si194  1  0.000000  0.109902  0.468971  1
  Si  Si195  1  0.499938  0.234836  0.529301  1
  Si  Si196  1  0.000000  0.265426  0.469047  1
  H  H197  1  0.499990  0.326899  0.121540  1
  H  H198  1  -0.000000  0.826916  0.121541  1
  H  H199  1  0.000000  0.173334  0.121577  1
  H  H200  1  0.499897  0.673351  0.121577  1
  H  H201  1  0.499990  0.326899  0.635342  1
  H  H202  1  0.000000  0.826916  0.635342  1
  H  H203  1  -0.000000  0.173334  0.635379  1
  H  H204  1  0.499897  0.673351  0.635379  1
