# generated using pymatgen
data_Si35H2O71
_symmetry_space_group_name_H-M   'P 1'
_cell_length_a   13.77334602
_cell_length_b   13.77226437
_cell_length_c   75.28164387
_cell_angle_alpha   90.00000000
_cell_angle_beta   90.00000000
_cell_angle_gamma   90.00000000
_symmetry_Int_Tables_number   1
_chemical_formula_structural   Si35H2O71
_chemical_formula_sum   'Si140 H8 O284'
_cell_volume   14280.1872698
_cell_formula_units_Z   4
loop_
 _symmetry_equiv_pos_site_id
 _symmetry_equiv_pos_as_xyz
  1  'x, y, z'
loop_
 _atom_site_type_symbol
 _atom_site_label
 _atom_site_symmetry_multiplicity
 _atom_site_fract_x
 _atom_site_fract_y
 _atom_site_fract_z
 _atom_site_occupancy
  O  O1  1  0.829304  0.329253  0.078378  1
  O  O2  1  0.170769  0.329232  0.078372  1
  O  O3  1  0.691519  0.371316  0.101821  1
  O  O4  1  0.308604  0.371323  0.101810  1
  O  O5  1  0.190245  0.499970  0.091053  1
  O  O6  1  0.809864  0.499969  0.091063  1
  O  O7  1  0.327127  0.360701  0.165436  1
  O  O8  1  0.639290  0.327039  0.133410  1
  O  O9  1  0.673116  0.360688  0.165444  1
  O  O10  1  0.360857  0.327029  0.133398  1
  O  O11  1  0.500115  0.382213  0.177590  1
  O  O12  1  0.500072  0.369342  0.111679  1
  O  O13  1  0.371893  0.135089  0.186298  1
  O  O14  1  0.864913  0.371782  0.112531  1
  O  O15  1  0.628265  0.135085  0.186301  1
  O  O16  1  0.135261  0.371795  0.112529  1
  O  O17  1  0.323609  0.187138  0.154946  1
  O  O18  1  0.812917  0.323472  0.143880  1
  O  O19  1  0.676581  0.187132  0.154950  1
  O  O20  1  0.187272  0.323483  0.143878  1
  O  O21  1  0.500085  0.127828  0.162447  1
  O  O22  1  -0.000000  0.366170  0.136049  1
  O  O23  1  0.872232  0.499965  0.136386  1
  O  O24  1  0.369447  0.499902  0.187155  1
  O  O25  1  0.127960  0.499967  0.136379  1
  O  O26  1  0.630780  0.499903  0.187161  1
  O  O27  1  0.808566  0.128461  0.243908  1
  O  O28  1  0.191484  0.128451  0.243893  1
  O  O29  1  0.860811  0.172725  0.275495  1
  O  O30  1  0.139228  0.172740  0.275481  1
  O  O31  1  0.000000  0.130414  0.253763  1
  O  O32  1  0.500071  0.190048  0.207781  1
  O  O33  1  0.635203  0.128022  0.254612  1
  O  O34  1  0.364818  0.128029  0.254609  1
  O  O35  1  0.329312  0.170561  0.220454  1
  O  O36  1  0.670805  0.170547  0.220458  1
  O  O37  1  0.687173  0.176349  0.285959  1
  O  O38  1  0.312813  0.176327  0.285960  1
  O  O39  1  0.499996  0.133653  0.278129  1
  O  O40  1  0.628752  0.308426  0.197031  1
  O  O41  1  0.371431  0.308436  0.197025  1
  O  O42  1  0.308584  0.628665  0.101807  1
  O  O43  1  0.829328  0.670672  0.078378  1
  O  O44  1  0.170746  0.670695  0.078373  1
  O  O45  1  0.691534  0.628670  0.101818  1
  O  O46  1  0.633880  0.000000  0.162781  1
  O  O47  1  0.617736  0.500015  0.121254  1
  O  O48  1  0.360840  0.673002  0.133391  1
  O  O49  1  0.673097  0.639145  0.165431  1
  O  O50  1  0.639309  0.672991  0.133402  1
  O  O51  1  0.327148  0.639135  0.165422  1
  O  O52  1  0.500118  0.617570  0.177577  1
  O  O53  1  0.500071  0.630691  0.111673  1
  O  O54  1  0.135261  0.628162  0.112531  1
  O  O55  1  0.628266  0.864755  0.186302  1
  O  O56  1  0.864922  0.628167  0.112534  1
  O  O57  1  0.371891  0.864770  0.186303  1
  O  O58  1  0.187264  0.676457  0.143881  1
  O  O59  1  0.676596  0.812790  0.154958  1
  O  O60  1  0.812930  0.676468  0.143882  1
  O  O61  1  0.323595  0.812784  0.154956  1
  O  O62  1  0.500099  0.872084  0.162452  1
  O  O63  1  0.000000  0.633767  0.136053  1
  O  O64  1  0.366300  0.000000  0.162780  1
  O  O65  1  0.382386  0.500015  0.121243  1
  O  O66  1  0.191514  0.871115  0.243888  1
  O  O67  1  0.808553  0.871104  0.243901  1
  O  O68  1  0.139264  0.826753  0.275470  1
  O  O69  1  0.860774  0.826776  0.275486  1
  O  O70  1  0.882353  0.000000  0.263338  1
  O  O71  1  -0.000000  0.869066  0.253755  1
  O  O72  1  0.500070  0.809690  0.207772  1
  O  O73  1  0.690238  0.000000  0.233144  1
  O  O74  1  0.364835  0.871641  0.254616  1
  O  O75  1  0.635161  0.871645  0.254617  1
  O  O76  1  0.329365  0.829111  0.220456  1
  O  O77  1  0.670762  0.829123  0.220462  1
  O  O78  1  0.312832  0.823363  0.285967  1
  O  O79  1  0.687154  0.823339  0.285966  1
  O  O80  1  0.628769  0.691373  0.197011  1
  O  O81  1  0.372133  0.000000  0.278463  1
  O  O82  1  0.499994  0.866055  0.278138  1
  O  O83  1  0.371421  0.691358  0.197009  1
  O  O84  1  0.309852  0.000000  0.233137  1
  O  O85  1  0.117705  0.000000  0.263326  1
  O  O86  1  0.627862  -0.000000  0.278468  1
  O  O87  1  0.128647  0.191374  0.339106  1
  O  O88  1  0.871337  0.191388  0.339113  1
  O  O89  1  0.172956  0.139101  0.307519  1
  O  O90  1  0.826948  0.139122  0.307530  1
  O  O91  1  -0.000000  0.117589  0.319672  1
  O  O92  1  -0.000000  0.309758  0.349861  1
  O  O93  1  0.128197  0.364682  0.328380  1
  O  O94  1  0.871821  0.364693  0.328383  1
  O  O95  1  0.829304  0.329253  0.362543  1
  O  O96  1  0.170769  0.329232  0.362538  1
  O  O97  1  0.176474  0.312659  0.297027  1
  O  O98  1  0.823527  0.312672  0.297030  1
  O  O99  1  -0.000000  0.371975  0.304532  1
  O  O100  1  0.691519  0.371316  0.385987  1
  O  O101  1  0.308604  0.371323  0.385976  1
  O  O102  1  0.866219  0.499844  0.304865  1
  O  O103  1  0.133802  0.499845  0.304864  1
  O  O104  1  0.190245  0.499970  0.375219  1
  O  O105  1  0.809864  0.499969  0.375228  1
  O  O106  1  0.327127  0.360701  0.449601  1
  O  O107  1  0.639290  0.327039  0.417575  1
  O  O108  1  0.673116  0.360688  0.449610  1
  O  O109  1  0.360857  0.327029  0.417563  1
  O  O110  1  0.500115  0.382213  0.461756  1
  O  O111  1  0.500072  0.369342  0.395844  1
  O  O112  1  0.371893  0.135089  0.470464  1
  O  O113  1  0.864913  0.371782  0.396697  1
  O  O114  1  0.628265  0.135085  0.470467  1
  O  O115  1  0.135261  0.371795  0.396695  1
  O  O116  1  0.323609  0.187138  0.439112  1
  O  O117  1  0.812917  0.323472  0.428045  1
  O  O118  1  0.676581  0.187132  0.439115  1
  O  O119  1  0.187272  0.323483  0.428044  1
  O  O120  1  0.500085  0.127828  0.446612  1
  O  O121  1  0.000000  0.366170  0.420214  1
  O  O122  1  0.872232  0.499965  0.420551  1
  O  O123  1  0.369447  0.499902  0.471321  1
  O  O124  1  0.127960  0.499967  0.420544  1
  O  O125  1  0.630780  0.499903  0.471327  1
  O  O126  1  0.808566  0.128461  0.528074  1
  O  O127  1  0.191484  0.128451  0.528059  1
  O  O128  1  0.860811  0.172725  0.559660  1
  O  O129  1  0.139228  0.172740  0.559647  1
  O  O130  1  -0.000000  0.130414  0.537928  1
  O  O131  1  0.500071  0.190048  0.491946  1
  O  O132  1  0.635203  0.128022  0.538778  1
  O  O133  1  0.364818  0.128029  0.538775  1
  O  O134  1  0.329312  0.170561  0.504619  1
  O  O135  1  0.670805  0.170547  0.504623  1
  O  O136  1  0.687173  0.176349  0.570124  1
  O  O137  1  0.312813  0.176327  0.570126  1
  O  O138  1  0.499996  0.133653  0.562294  1
  O  O139  1  0.628752  0.308426  0.481197  1
  O  O140  1  0.371431  0.308436  0.481191  1
  O  O141  1  0.871312  0.808436  0.339098  1
  O  O142  1  0.128671  0.808451  0.339091  1
  O  O143  1  0.826978  0.860653  0.307514  1
  O  O144  1  0.172913  0.860674  0.307501  1
  O  O145  1  0.000000  0.882229  0.319660  1
  O  O146  1  0.308584  0.628665  0.385973  1
  O  O147  1  -0.000000  0.690127  0.349857  1
  O  O148  1  0.871840  0.635024  0.328389  1
  O  O149  1  0.128192  0.635027  0.328387  1
  O  O150  1  0.829328  0.670672  0.362544  1
  O  O151  1  0.170746  0.670695  0.362539  1
  O  O152  1  0.823484  0.687006  0.297045  1
  O  O153  1  0.176516  0.687014  0.297042  1
  O  O154  1  0.000000  0.627720  0.304535  1
  O  O155  1  0.691534  0.628670  0.385984  1
  O  O156  1  0.130625  0.000000  0.329236  1
  O  O157  1  0.869291  0.000000  0.329245  1
  O  O158  1  0.633880  0.000000  0.446947  1
  O  O159  1  0.617736  0.500015  0.405419  1
  O  O160  1  0.360840  0.673002  0.417556  1
  O  O161  1  0.673097  0.639145  0.449596  1
  O  O162  1  0.639309  0.672991  0.417568  1
  O  O163  1  0.327148  0.639135  0.449588  1
  O  O164  1  0.500118  0.617570  0.461743  1
  O  O165  1  0.500071  0.630691  0.395839  1
  O  O166  1  0.135261  0.628162  0.396697  1
  O  O167  1  0.628266  0.864755  0.470467  1
  O  O168  1  0.864922  0.628167  0.396700  1
  O  O169  1  0.371891  0.864770  0.470469  1
  O  O170  1  0.187264  0.676457  0.428047  1
  O  O171  1  0.676596  0.812790  0.439124  1
  O  O172  1  0.812930  0.676468  0.428048  1
  O  O173  1  0.323595  0.812784  0.439121  1
  O  O174  1  0.500099  0.872084  0.446618  1
  O  O175  1  -0.000000  0.633767  0.420219  1
  O  O176  1  0.366300  0.000000  0.446945  1
  O  O177  1  0.382386  0.500015  0.405408  1
  O  O178  1  0.191514  0.871115  0.528054  1
  O  O179  1  0.808553  0.871104  0.528066  1
  O  O180  1  0.139264  0.826753  0.559635  1
  O  O181  1  0.860774  0.826776  0.559652  1
  O  O182  1  0.882353  -0.000000  0.547504  1
  O  O183  1  -0.000000  0.869066  0.537921  1
  O  O184  1  0.500070  0.809690  0.491938  1
  O  O185  1  0.690238  0.000000  0.517310  1
  O  O186  1  0.364835  0.871641  0.538782  1
  O  O187  1  0.635161  0.871645  0.538783  1
  O  O188  1  0.329365  0.829111  0.504622  1
  O  O189  1  0.670762  0.829123  0.504628  1
  O  O190  1  0.312832  0.823363  0.570133  1
  O  O191  1  0.687154  0.823339  0.570131  1
  O  O192  1  0.628769  0.691373  0.481177  1
  O  O193  1  0.372133  0.000000  0.562629  1
  O  O194  1  0.499994  0.866055  0.562304  1
  O  O195  1  0.371421  0.691358  0.481175  1
  O  O196  1  0.309852  0.000000  0.517302  1
  O  O197  1  0.117705  0.000000  0.547491  1
  O  O198  1  0.627862  0.000000  0.562633  1
  O  O199  1  0.128647  0.191374  0.623272  1
  O  O200  1  0.871337  0.191388  0.623279  1
  O  O201  1  0.172956  0.139101  0.591685  1
  O  O202  1  0.826948  0.139122  0.591696  1
  O  O203  1  -0.000000  0.117589  0.603837  1
  O  O204  1  -0.000000  0.309758  0.634027  1
  O  O205  1  0.128197  0.364682  0.612546  1
  O  O206  1  0.871821  0.364693  0.612549  1
  O  O207  1  0.829304  0.329253  0.646709  1
  O  O208  1  0.170769  0.329232  0.646704  1
  O  O209  1  0.176474  0.312659  0.581193  1
  O  O210  1  0.823527  0.312672  0.581195  1
  O  O211  1  0.000000  0.371975  0.588698  1
  O  O212  1  0.691519  0.371316  0.670152  1
  O  O213  1  0.308604  0.371323  0.670142  1
  O  O214  1  0.866219  0.499844  0.589030  1
  O  O215  1  0.133802  0.499845  0.589029  1
  O  O216  1  0.190245  0.499970  0.659384  1
  O  O217  1  0.809864  0.499969  0.659394  1
  O  O218  1  0.327127  0.360701  0.733767  1
  O  O219  1  0.639290  0.327039  0.701741  1
  O  O220  1  0.673116  0.360688  0.733776  1
  O  O221  1  0.360857  0.327029  0.701729  1
  O  O222  1  0.500115  0.382213  0.745921  1
  O  O223  1  0.500072  0.369342  0.680010  1
  O  O224  1  0.371893  0.135089  0.754630  1
  O  O225  1  0.864913  0.371782  0.680863  1
  O  O226  1  0.628265  0.135085  0.754632  1
  O  O227  1  0.135261  0.371795  0.680860  1
  O  O228  1  0.323609  0.187138  0.723277  1
  O  O229  1  0.812917  0.323472  0.712211  1
  O  O230  1  0.676581  0.187132  0.723281  1
  O  O231  1  0.187272  0.323483  0.712209  1
  O  O232  1  0.500085  0.127828  0.730778  1
  O  O233  1  -0.000000  0.366170  0.704380  1
  O  O234  1  0.872232  0.499965  0.704717  1
  O  O235  1  0.369447  0.499902  0.755486  1
  O  O236  1  0.127960  0.499967  0.704710  1
  O  O237  1  0.630780  0.499903  0.755492  1
  O  O238  1  0.500071  0.190048  0.776112  1
  O  O239  1  0.329312  0.170561  0.788785  1
  O  O240  1  0.670805  0.170547  0.788789  1
  O  O241  1  0.628752  0.308426  0.765362  1
  O  O242  1  0.371431  0.308436  0.765356  1
  O  O243  1  0.871312  0.808436  0.623264  1
  O  O244  1  0.128671  0.808451  0.623256  1
  O  O245  1  0.826978  0.860653  0.591679  1
  O  O246  1  0.172913  0.860674  0.591667  1
  O  O247  1  -0.000000  0.882229  0.603826  1
  O  O248  1  0.308584  0.628665  0.670138  1
  O  O249  1  -0.000000  0.690127  0.634023  1
  O  O250  1  0.871840  0.635024  0.612555  1
  O  O251  1  0.128192  0.635027  0.612553  1
  O  O252  1  0.829328  0.670672  0.646709  1
  O  O253  1  0.170746  0.670695  0.646704  1
  O  O254  1  0.823484  0.687006  0.581210  1
  O  O255  1  0.176516  0.687014  0.581207  1
  O  O256  1  -0.000000  0.627720  0.588701  1
  O  O257  1  0.691534  0.628670  0.670149  1
  O  O258  1  0.130625  0.000000  0.613401  1
  O  O259  1  0.869291  0.000000  0.613410  1
  O  O260  1  0.633880  0.000000  0.731113  1
  O  O261  1  0.617736  0.500015  0.689585  1
  O  O262  1  0.360840  0.673002  0.701722  1
  O  O263  1  0.673097  0.639145  0.733762  1
  O  O264  1  0.639309  0.672991  0.701734  1
  O  O265  1  0.327148  0.639135  0.733753  1
  O  O266  1  0.500118  0.617570  0.745909  1
  O  O267  1  0.500071  0.630691  0.680004  1
  O  O268  1  0.135261  0.628162  0.680862  1
  O  O269  1  0.628266  0.864755  0.754633  1
  O  O270  1  0.864922  0.628167  0.680865  1
  O  O271  1  0.371891  0.864770  0.754634  1
  O  O272  1  0.187264  0.676457  0.712212  1
  O  O273  1  0.676596  0.812790  0.723289  1
  O  O274  1  0.812930  0.676468  0.712213  1
  O  O275  1  0.323595  0.812784  0.723287  1
  O  O276  1  0.500099  0.872084  0.730783  1
  O  O277  1  0.000000  0.633767  0.704384  1
  O  O278  1  0.366300  0.000000  0.731111  1
  O  O279  1  0.382386  0.500015  0.689574  1
  O  O280  1  0.500070  0.809690  0.776103  1
  O  O281  1  0.329365  0.829111  0.788787  1
  O  O282  1  0.670762  0.829123  0.788793  1
  O  O283  1  0.628769  0.691373  0.765342  1
  O  O284  1  0.371421  0.691358  0.765340  1
  Si  Si285  1  0.200012  0.388494  0.095417  1
  Si  Si286  1  0.800103  0.388491  0.095427  1
  Si  Si287  1  0.387784  0.111715  0.165895  1
  Si  Si288  1  0.389353  0.387783  0.116498  1
  Si  Si289  1  0.612339  0.389182  0.182341  1
  Si  Si290  1  0.610769  0.387781  0.116511  1
  Si  Si291  1  0.295023  0.294896  0.149414  1
  Si  Si292  1  0.705172  0.294889  0.149419  1
  Si  Si293  1  0.111848  0.387652  0.132931  1
  Si  Si294  1  0.612399  0.111712  0.165896  1
  Si  Si295  1  0.888341  0.387656  0.132934  1
  Si  Si296  1  0.387886  0.389183  0.182335  1
  Si  Si297  1  0.388598  0.199833  0.203413  1
  Si  Si298  1  0.699999  0.111300  0.237507  1
  Si  Si299  1  0.889318  0.111979  0.258595  1
  Si  Si300  1  0.110735  0.111976  0.258582  1
  Si  Si301  1  0.611752  0.112162  0.275013  1
  Si  Si302  1  0.388243  0.112168  0.275012  1
  Si  Si303  1  0.611546  0.199822  0.203414  1
  Si  Si304  1  0.300069  0.111303  0.237499  1
  Si  Si305  1  0.200000  0.611448  0.095419  1
  Si  Si306  1  0.800119  0.611448  0.095429  1
  Si  Si307  1  0.612400  0.888199  0.165903  1
  Si  Si308  1  0.295017  0.705040  0.149415  1
  Si  Si309  1  0.888345  0.612278  0.132937  1
  Si  Si310  1  0.387784  0.888203  0.165901  1
  Si  Si311  1  0.705181  0.705046  0.149419  1
  Si  Si312  1  0.389355  0.612242  0.116493  1
  Si  Si313  1  0.612342  0.610614  0.182328  1
  Si  Si314  1  0.610772  0.612243  0.116505  1
  Si  Si315  1  0.387887  0.610609  0.182322  1
  Si  Si316  1  0.111849  0.612274  0.132933  1
  Si  Si317  1  0.110737  0.887517  0.258574  1
  Si  Si318  1  0.889319  0.887519  0.258588  1
  Si  Si319  1  0.388242  0.887546  0.275017  1
  Si  Si320  1  0.611746  0.887540  0.275021  1
  Si  Si321  1  0.699972  0.888346  0.237513  1
  Si  Si322  1  0.388596  0.799936  0.203405  1
  Si  Si323  1  0.300099  0.888348  0.237502  1
  Si  Si324  1  0.611550  0.799947  0.203409  1
  Si  Si325  1  0.111496  0.299970  0.345495  1
  Si  Si326  1  0.112186  0.110618  0.324417  1
  Si  Si327  1  0.887735  0.110620  0.324425  1
  Si  Si328  1  0.112322  0.388087  0.307978  1
  Si  Si329  1  0.887706  0.388086  0.307980  1
  Si  Si330  1  0.200012  0.388494  0.379583  1
  Si  Si331  1  0.888549  0.299983  0.345498  1
  Si  Si332  1  0.800103  0.388491  0.379593  1
  Si  Si333  1  0.794921  0.204912  0.291500  1
  Si  Si334  1  0.205059  0.204898  0.291496  1
  Si  Si335  1  0.387784  0.111715  0.450061  1
  Si  Si336  1  0.389353  0.387783  0.400664  1
  Si  Si337  1  0.612339  0.389182  0.466506  1
  Si  Si338  1  0.610769  0.387781  0.400676  1
  Si  Si339  1  0.295023  0.294896  0.433579  1
  Si  Si340  1  0.705172  0.294889  0.433584  1
  Si  Si341  1  0.111848  0.387652  0.417096  1
  Si  Si342  1  0.612399  0.111712  0.450062  1
  Si  Si343  1  0.888341  0.387656  0.417100  1
  Si  Si344  1  0.387886  0.389183  0.466500  1
  Si  Si345  1  0.388598  0.199833  0.487578  1
  Si  Si346  1  0.699999  0.111300  0.521673  1
  Si  Si347  1  0.889318  0.111979  0.542761  1
  Si  Si348  1  0.110735  0.111976  0.542748  1
  Si  Si349  1  0.611752  0.112162  0.559179  1
  Si  Si350  1  0.388243  0.112168  0.559177  1
  Si  Si351  1  0.611546  0.199822  0.487579  1
  Si  Si352  1  0.300069  0.111303  0.521665  1
  Si  Si353  1  0.888547  0.699858  0.345491  1
  Si  Si354  1  0.794895  0.794745  0.291504  1
  Si  Si355  1  0.200000  0.611448  0.379585  1
  Si  Si356  1  0.887729  0.889196  0.324411  1
  Si  Si357  1  0.112185  0.889198  0.324402  1
  Si  Si358  1  0.887702  0.611597  0.307986  1
  Si  Si359  1  0.112317  0.611596  0.307984  1
  Si  Si360  1  0.111498  0.699873  0.345489  1
  Si  Si361  1  0.800119  0.611448  0.379594  1
  Si  Si362  1  0.205080  0.794757  0.291498  1
  Si  Si363  1  0.612400  0.888199  0.450069  1
  Si  Si364  1  0.295017  0.705040  0.433580  1
  Si  Si365  1  0.888345  0.612278  0.417102  1
  Si  Si366  1  0.387784  0.888203  0.450066  1
  Si  Si367  1  0.705181  0.705046  0.433585  1
  Si  Si368  1  0.389355  0.612242  0.400659  1
  Si  Si369  1  0.612342  0.610614  0.466493  1
  Si  Si370  1  0.610772  0.612243  0.400670  1
  Si  Si371  1  0.387887  0.610609  0.466487  1
  Si  Si372  1  0.111849  0.612274  0.417099  1
  Si  Si373  1  0.110737  0.887517  0.542739  1
  Si  Si374  1  0.889319  0.887519  0.542754  1
  Si  Si375  1  0.388242  0.887546  0.559183  1
  Si  Si376  1  0.611746  0.887540  0.559186  1
  Si  Si377  1  0.699972  0.888346  0.521679  1
  Si  Si378  1  0.388596  0.799936  0.487571  1
  Si  Si379  1  0.300099  0.888348  0.521668  1
  Si  Si380  1  0.611550  0.799947  0.487575  1
  Si  Si381  1  0.111496  0.299970  0.629661  1
  Si  Si382  1  0.112186  0.110618  0.608583  1
  Si  Si383  1  0.887735  0.110620  0.608590  1
  Si  Si384  1  0.112322  0.388087  0.592143  1
  Si  Si385  1  0.887706  0.388086  0.592145  1
  Si  Si386  1  0.200012  0.388494  0.663749  1
  Si  Si387  1  0.888549  0.299983  0.629664  1
  Si  Si388  1  0.800103  0.388491  0.663758  1
  Si  Si389  1  0.794921  0.204912  0.575666  1
  Si  Si390  1  0.205059  0.204898  0.575661  1
  Si  Si391  1  0.387784  0.111715  0.734226  1
  Si  Si392  1  0.389353  0.387783  0.684829  1
  Si  Si393  1  0.612339  0.389182  0.750672  1
  Si  Si394  1  0.610769  0.387781  0.684842  1
  Si  Si395  1  0.295023  0.294896  0.717745  1
  Si  Si396  1  0.705172  0.294889  0.717750  1
  Si  Si397  1  0.111848  0.387652  0.701262  1
  Si  Si398  1  0.612399  0.111712  0.734227  1
  Si  Si399  1  0.888341  0.387656  0.701266  1
  Si  Si400  1  0.387886  0.389183  0.750666  1
  Si  Si401  1  0.388598  0.199833  0.771744  1
  Si  Si402  1  0.611546  0.199822  0.771745  1
  Si  Si403  1  0.888547  0.699858  0.629657  1
  Si  Si404  1  0.794895  0.794745  0.575669  1
  Si  Si405  1  0.200000  0.611448  0.663750  1
  Si  Si406  1  0.887729  0.889196  0.608576  1
  Si  Si407  1  0.112185  0.889198  0.608568  1
  Si  Si408  1  0.887702  0.611597  0.592151  1
  Si  Si409  1  0.112317  0.611596  0.592150  1
  Si  Si410  1  0.111498  0.699873  0.629654  1
  Si  Si411  1  0.800119  0.611448  0.663760  1
  Si  Si412  1  0.205080  0.794757  0.575663  1
  Si  Si413  1  0.612400  0.888199  0.734234  1
  Si  Si414  1  0.295017  0.705040  0.717746  1
  Si  Si415  1  0.888345  0.612278  0.701268  1
  Si  Si416  1  0.387784  0.888203  0.734232  1
  Si  Si417  1  0.705181  0.705046  0.717750  1
  Si  Si418  1  0.389355  0.612242  0.684824  1
  Si  Si419  1  0.612342  0.610614  0.750659  1
  Si  Si420  1  0.610772  0.612243  0.684836  1
  Si  Si421  1  0.387887  0.610609  0.750653  1
  Si  Si422  1  0.111849  0.612274  0.701264  1
  Si  Si423  1  0.388596  0.799936  0.771737  1
  Si  Si424  1  0.611550  0.799947  0.771741  1
  H  H425  1  0.829304  0.329253  0.066423  1
  H  H426  1  0.170769  0.329232  0.066417  1
  H  H427  1  0.829328  0.670672  0.066423  1
  H  H428  1  0.170746  0.670695  0.066418  1
  H  H429  1  0.329312  0.170561  0.800740  1
  H  H430  1  0.670805  0.170547  0.800744  1
  H  H431  1  0.329365  0.829111  0.800743  1
  H  H432  1  0.670762  0.829123  0.800748  1
