# generated using pymatgen
data_Si34H2O69
_symmetry_space_group_name_H-M   'P 1'
_cell_length_a   5.06483519
_cell_length_b   14.10770455
_cell_length_c   74.29800600
_cell_angle_alpha   90.00000000
_cell_angle_beta   90.00000000
_cell_angle_gamma   90.00000000
_symmetry_Int_Tables_number   1
_chemical_formula_structural   Si34H2O69
_chemical_formula_sum   'Si68 H4 O138'
_cell_volume   5308.83016752
_cell_formula_units_Z   2
loop_
 _symmetry_equiv_pos_site_id
 _symmetry_equiv_pos_as_xyz
  1  'x, y, z'
loop_
 _atom_site_type_symbol
 _atom_site_label
 _atom_site_symmetry_multiplicity
 _atom_site_fract_x
 _atom_site_fract_y
 _atom_site_fract_z
 _atom_site_occupancy
  O  O1  1  0.241022  0.803011  0.079410  1
  O  O2  1  0.742972  0.197522  0.227749  1
  O  O3  1  0.742913  0.197565  0.192497  1
  O  O4  1  0.955105  0.063176  0.210106  1
  O  O5  1  0.456198  0.081978  0.210133  1
  O  O6  1  0.740659  0.050982  0.079478  1
  O  O7  1  0.242615  0.949333  0.192438  1
  O  O8  1  0.241604  0.949292  0.227801  1
  O  O9  1  0.246763  0.674449  0.105698  1
  O  O10  1  0.751212  0.325368  0.166116  1
  O  O11  1  0.749990  0.325297  0.254127  1
  O  O12  1  0.034790  0.837134  0.109848  1
  O  O13  1  0.533025  0.823222  0.106957  1
  O  O14  1  0.037832  0.177036  0.165077  1
  O  O15  1  0.539522  0.162360  0.162033  1
  O  O16  1  0.036936  0.177092  0.255205  1
  O  O17  1  0.538608  0.162128  0.258181  1
  O  O18  1  0.244191  0.485758  0.117806  1
  O  O19  1  0.744820  0.513887  0.154088  1
  O  O20  1  0.744285  0.513876  0.266150  1
  O  O21  1  -0.000000  0.619753  0.133156  1
  O  O22  1  0.499483  0.618784  0.132667  1
  O  O23  1  0.965854  0.379811  0.137423  1
  O  O24  1  0.467203  0.381915  0.140529  1
  O  O25  1  0.965293  0.379770  0.282792  1
  O  O26  1  0.466641  0.381894  0.279734  1
  O  O27  1  0.248129  0.016432  0.160899  1
  O  O28  1  0.246142  0.016347  0.259335  1
  O  O29  1  0.747599  0.983471  0.111019  1
  O  O30  1  0.500033  0.864617  0.167095  1
  O  O31  1  -0.000000  0.863049  0.166504  1
  O  O32  1  0.499581  0.865026  0.253112  1
  O  O33  1  0.000000  0.862457  0.253835  1
  O  O34  1  0.506714  0.138035  0.105654  1
  O  O35  1  0.006487  0.134195  0.104680  1
  O  O36  1  0.744117  0.712731  0.156092  1
  O  O37  1  0.740389  0.712716  0.264209  1
  O  O38  1  0.248658  0.287033  0.115895  1
  O  O39  1  0.741255  0.863422  0.137240  1
  O  O40  1  0.739122  0.863459  0.283026  1
  O  O41  1  0.243171  0.136580  0.134727  1
  O  O42  1  0.239765  0.802925  0.340854  1
  O  O43  1  0.241022  0.803011  0.376160  1
  O  O44  1  0.742972  0.197522  0.524499  1
  O  O45  1  0.742913  0.197565  0.489247  1
  O  O46  1  0.026110  0.936984  0.358513  1
  O  O47  1  0.525128  0.918812  0.358476  1
  O  O48  1  0.955105  0.063176  0.506856  1
  O  O49  1  0.456198  0.081978  0.506883  1
  O  O50  1  0.740659  0.050982  0.376228  1
  O  O51  1  0.740736  0.051064  0.340787  1
  O  O52  1  0.242615  0.949333  0.489188  1
  O  O53  1  0.241604  0.949292  0.524551  1
  O  O54  1  0.246763  0.674449  0.402448  1
  O  O55  1  0.243731  0.674456  0.314521  1
  O  O56  1  0.751212  0.325368  0.462866  1
  O  O57  1  0.749990  0.325297  0.550877  1
  O  O58  1  0.034790  0.837134  0.406598  1
  O  O59  1  0.533025  0.823222  0.403707  1
  O  O60  1  0.032042  0.837056  0.310442  1
  O  O61  1  0.530238  0.823277  0.313275  1
  O  O62  1  0.037832  0.177036  0.461827  1
  O  O63  1  0.539522  0.162360  0.458783  1
  O  O64  1  0.036936  0.177092  0.551955  1
  O  O65  1  0.538608  0.162128  0.554931  1
  O  O66  1  0.244191  0.485758  0.414556  1
  O  O67  1  0.243291  0.485710  0.302442  1
  O  O68  1  0.744820  0.513887  0.450838  1
  O  O69  1  0.744285  0.513876  0.562900  1
  O  O70  1  -0.000000  0.619753  0.429906  1
  O  O71  1  0.499483  0.618784  0.429417  1
  O  O72  1  0.011959  0.620102  0.286412  1
  O  O73  1  0.510693  0.617874  0.288263  1
  O  O74  1  0.965854  0.379811  0.434173  1
  O  O75  1  0.467203  0.381915  0.437279  1
  O  O76  1  0.965293  0.379770  0.579542  1
  O  O77  1  0.466641  0.381894  0.576484  1
  O  O78  1  0.248129  0.016432  0.457649  1
  O  O79  1  0.246142  0.016347  0.556085  1
  O  O80  1  0.747599  0.983471  0.407769  1
  O  O81  1  0.745722  0.983497  0.309250  1
  O  O82  1  0.500033  0.864617  0.463845  1
  O  O83  1  0.000000  0.863049  0.463254  1
  O  O84  1  0.499581  0.865026  0.549862  1
  O  O85  1  -0.000000  0.862457  0.550585  1
  O  O86  1  0.506714  0.138035  0.402404  1
  O  O87  1  0.006487  0.134195  0.401430  1
  O  O88  1  0.505568  0.138092  0.314642  1
  O  O89  1  0.005383  0.134147  0.315527  1
  O  O90  1  0.744117  0.712731  0.452842  1
  O  O91  1  0.740389  0.712716  0.560959  1
  O  O92  1  0.248658  0.287033  0.412645  1
  O  O93  1  0.247649  0.286975  0.304342  1
  O  O94  1  0.741255  0.863422  0.433990  1
  O  O95  1  0.739122  0.863459  0.579776  1
  O  O96  1  0.243171  0.136580  0.431477  1
  O  O97  1  0.243005  0.136436  0.285519  1
  O  O98  1  0.239765  0.802925  0.637604  1
  O  O99  1  0.241022  0.803011  0.672910  1
  O  O100  1  0.742913  0.197565  0.785997  1
  O  O101  1  0.026110  0.936984  0.655263  1
  O  O102  1  0.525128  0.918812  0.655226  1
  O  O103  1  0.740659  0.050982  0.672978  1
  O  O104  1  0.740736  0.051064  0.637537  1
  O  O105  1  0.242615  0.949333  0.785938  1
  O  O106  1  0.246763  0.674449  0.699198  1
  O  O107  1  0.243731  0.674456  0.611271  1
  O  O108  1  0.751212  0.325368  0.759616  1
  O  O109  1  0.034790  0.837134  0.703348  1
  O  O110  1  0.533025  0.823222  0.700457  1
  O  O111  1  0.032042  0.837056  0.607192  1
  O  O112  1  0.530238  0.823277  0.610025  1
  O  O113  1  0.037832  0.177036  0.758577  1
  O  O114  1  0.539522  0.162360  0.755533  1
  O  O115  1  0.244191  0.485758  0.711306  1
  O  O116  1  0.243291  0.485710  0.599192  1
  O  O117  1  0.744820  0.513887  0.747588  1
  O  O118  1  -0.000000  0.619753  0.726656  1
  O  O119  1  0.499483  0.618784  0.726167  1
  O  O120  1  0.011959  0.620102  0.583162  1
  O  O121  1  0.510693  0.617874  0.585014  1
  O  O122  1  0.965854  0.379811  0.730923  1
  O  O123  1  0.467203  0.381915  0.734029  1
  O  O124  1  0.248129  0.016432  0.754399  1
  O  O125  1  0.747599  0.983471  0.704519  1
  O  O126  1  0.745722  0.983497  0.606000  1
  O  O127  1  0.500033  0.864617  0.760595  1
  O  O128  1  -0.000000  0.863049  0.760004  1
  O  O129  1  0.506714  0.138035  0.699154  1
  O  O130  1  0.006487  0.134195  0.698180  1
  O  O131  1  0.505568  0.138092  0.611392  1
  O  O132  1  0.005383  0.134147  0.612277  1
  O  O133  1  0.744117  0.712731  0.749592  1
  O  O134  1  0.248658  0.287033  0.709395  1
  O  O135  1  0.247649  0.286975  0.601092  1
  O  O136  1  0.741255  0.863422  0.730740  1
  O  O137  1  0.243171  0.136580  0.728227  1
  O  O138  1  0.243005  0.136436  0.582269  1
  Si  Si139  1  0.724361  0.136531  0.210121  1
  Si  Si140  1  0.224207  0.009418  0.210121  1
  Si  Si141  1  0.263336  0.783060  0.100126  1
  Si  Si142  1  0.767302  0.216959  0.171781  1
  Si  Si143  1  0.766446  0.216877  0.248469  1
  Si  Si144  1  0.247387  0.597406  0.121251  1
  Si  Si145  1  0.732909  0.402267  0.150595  1
  Si  Si146  1  0.732097  0.402262  0.269642  1
  Si  Si147  1  0.247200  0.922182  0.171983  1
  Si  Si148  1  0.245703  0.922068  0.248260  1
  Si  Si149  1  0.750658  0.077798  0.099951  1
  Si  Si150  1  0.747579  0.616734  0.145135  1
  Si  Si151  1  0.751557  0.616671  0.275130  1
  Si  Si152  1  0.232720  0.383002  0.126812  1
  Si  Si153  1  0.746733  0.824986  0.157017  1
  Si  Si154  1  0.745095  0.824945  0.263255  1
  Si  Si155  1  0.250594  0.174863  0.114941  1
  Si  Si156  1  0.763787  0.876655  0.116419  1
  Si  Si157  1  0.267339  0.123249  0.155540  1
  Si  Si158  1  0.266437  0.123128  0.264702  1
  Si  Si159  1  0.257402  0.863935  0.358500  1
  Si  Si160  1  0.724361  0.136531  0.506871  1
  Si  Si161  1  0.757697  0.991105  0.358503  1
  Si  Si162  1  0.224207  0.009418  0.506872  1
  Si  Si163  1  0.263336  0.783060  0.396876  1
  Si  Si164  1  0.260812  0.783006  0.320131  1
  Si  Si165  1  0.767302  0.216959  0.468531  1
  Si  Si166  1  0.766446  0.216877  0.545219  1
  Si  Si167  1  0.247387  0.597406  0.418001  1
  Si  Si168  1  0.251275  0.597336  0.298982  1
  Si  Si169  1  0.732909  0.402267  0.447345  1
  Si  Si170  1  0.732097  0.402262  0.566392  1
  Si  Si171  1  0.247200  0.922182  0.468733  1
  Si  Si172  1  0.245703  0.922068  0.545010  1
  Si  Si173  1  0.750658  0.077798  0.396701  1
  Si  Si174  1  0.749685  0.077835  0.320310  1
  Si  Si175  1  0.747579  0.616734  0.441885  1
  Si  Si176  1  0.751557  0.616671  0.571880  1
  Si  Si177  1  0.232720  0.383002  0.423562  1
  Si  Si178  1  0.231892  0.382976  0.293430  1
  Si  Si179  1  0.746733  0.824986  0.453768  1
  Si  Si180  1  0.745095  0.824945  0.560005  1
  Si  Si181  1  0.250594  0.174863  0.411691  1
  Si  Si182  1  0.249724  0.174811  0.305300  1
  Si  Si183  1  0.763787  0.876655  0.413169  1
  Si  Si184  1  0.761340  0.876677  0.303848  1
  Si  Si185  1  0.267339  0.123249  0.452290  1
  Si  Si186  1  0.266437  0.123128  0.561452  1
  Si  Si187  1  0.257402  0.863935  0.655250  1
  Si  Si188  1  0.757697  0.991105  0.655253  1
  Si  Si189  1  0.263336  0.783060  0.693626  1
  Si  Si190  1  0.260812  0.783006  0.616881  1
  Si  Si191  1  0.767302  0.216959  0.765281  1
  Si  Si192  1  0.247387  0.597406  0.714751  1
  Si  Si193  1  0.251275  0.597336  0.595732  1
  Si  Si194  1  0.732909  0.402267  0.744095  1
  Si  Si195  1  0.247200  0.922182  0.765484  1
  Si  Si196  1  0.750658  0.077798  0.693451  1
  Si  Si197  1  0.749685  0.077835  0.617060  1
  Si  Si198  1  0.747579  0.616734  0.738635  1
  Si  Si199  1  0.232720  0.383002  0.720312  1
  Si  Si200  1  0.231892  0.382976  0.590180  1
  Si  Si201  1  0.746733  0.824986  0.750518  1
  Si  Si202  1  0.250594  0.174863  0.708441  1
  Si  Si203  1  0.249724  0.174811  0.602050  1
  Si  Si204  1  0.763787  0.876655  0.709919  1
  Si  Si205  1  0.761340  0.876677  0.600598  1
  Si  Si206  1  0.267339  0.123249  0.749040  1
  H  H207  1  0.241022  0.803011  0.067297  1
  H  H208  1  0.740659  0.050982  0.067365  1
  H  H209  1  0.742913  0.197565  0.798110  1
  H  H210  1  0.242615  0.949333  0.798051  1
