# generated using pymatgen
data_Si31(H3O17)4
_symmetry_space_group_name_H-M   'P 1'
_cell_length_a   11.93342971
_cell_length_b   38.24605466
_cell_length_c   45.73662154
_cell_angle_alpha   128.60968990
_cell_angle_beta   120.00000000
_cell_angle_gamma   71.81984424
_symmetry_Int_Tables_number   1
_chemical_formula_structural   Si31(H3O17)4
_chemical_formula_sum   'Si62 H24 O136'
_cell_volume   14126.2975433
_cell_formula_units_Z   2
loop_
 _symmetry_equiv_pos_site_id
 _symmetry_equiv_pos_as_xyz
  1  'x, y, z'
loop_
 _atom_site_type_symbol
 _atom_site_label
 _atom_site_symmetry_multiplicity
 _atom_site_fract_x
 _atom_site_fract_y
 _atom_site_fract_z
 _atom_site_occupancy
  O  O1  1  0.224000  0.167125  0.280255  1
  O  O2  1  0.323976  0.083361  0.254747  1
  O  O3  1  0.022770  0.201302  0.243896  1
  O  O4  1  0.308114  0.015561  0.250856  1
  O  O5  1  0.011146  0.183445  0.287381  1
  O  O6  1  0.354198  0.500457  0.244778  1
  O  O7  1  0.113803  0.365808  0.290090  1
  O  O8  1  0.097128  0.649633  0.197385  1
  O  O9  1  0.074084  0.833363  0.216066  1
  O  O10  1  0.354192  0.000000  0.192838  1
  O  O11  1  0.104735  0.800920  0.256231  1
  O  O12  1  0.072009  0.916697  0.240723  1
  O  O13  1  0.144174  0.750029  0.191408  1
  O  O14  1  0.198431  0.982967  0.268752  1
  O  O15  1  0.295716  0.816299  0.258973  1
  O  O16  1  0.097137  0.850426  0.173159  1
  O  O17  1  0.230908  0.682227  0.277914  1
  O  O18  1  0.102975  0.731781  0.253110  1
  O  O19  1  0.578347  0.166268  0.187356  1
  O  O20  1  0.781016  0.032473  0.292601  1
  O  O21  1  0.894970  0.199139  0.175756  1
  O  O22  1  0.801259  0.017092  0.234746  1
  O  O23  1  0.648109  0.250031  0.257149  1
  O  O24  1  0.768793  0.182230  0.257395  1
  O  O25  1  0.768794  0.317831  0.288390  1
  O  O26  1  0.521531  0.035473  0.264682  1
  O  O27  1  0.781963  0.202141  0.215539  1
  O  O28  1  0.896728  0.268277  0.245248  1
  O  O29  1  0.000000  0.000000  0.283668  1
  O  O30  1  0.781019  0.467588  0.256377  1
  O  O31  1  0.927687  0.416696  0.278377  1
  O  O32  1  0.902575  0.350426  0.276781  1
  O  O33  1  0.925622  0.333362  0.216065  1
  O  O34  1  0.885905  0.865805  0.175900  1
  O  O35  1  0.976938  0.798758  0.288771  1
  O  O36  1  0.988554  0.683446  0.249199  1
  O  O37  1  0.859104  0.750032  0.284675  1
  O  O38  1  0.775699  0.667130  0.239296  1
  O  O39  1  0.224003  0.332932  0.384296  1
  O  O40  1  0.113794  0.134253  0.345710  1
  O  O41  1  0.022770  0.298756  0.368151  1
  O  O42  1  0.370638  0.132091  0.377927  1
  O  O43  1  0.460521  0.151162  0.321614  1
  O  O44  1  0.260273  0.131252  0.314660  1
  O  O45  1  0.241869  0.065115  0.310093  1
  O  O46  1  0.011148  0.316614  0.321635  1
  O  O47  1  0.437970  0.016779  0.314724  1
  O  O48  1  0.140601  0.250029  0.321395  1
  O  O49  1  0.354198  0.500457  0.505685  1
  O  O50  1  0.421351  0.666262  0.331294  1
  O  O51  1  0.218686  0.532472  0.347330  1
  O  O52  1  0.072013  0.583363  0.384174  1
  O  O53  1  0.097128  0.649633  0.458292  1
  O  O54  1  0.198435  0.517094  0.389134  1
  O  O55  1  0.323981  0.416695  0.435890  1
  O  O56  1  0.370645  0.367972  0.324888  1
  O  O57  1  0.347727  0.534634  0.315115  1
  O  O58  1  0.460528  0.348896  0.404649  1
  O  O59  1  0.308118  0.484498  0.435646  1
  O  O60  1  0.260278  0.368807  0.359357  1
  O  O61  1  0.478172  0.535475  0.378382  1
  O  O62  1  0.241873  0.434946  0.359125  1
  O  O63  1  0.344998  0.601611  0.382949  1
  O  O64  1  0.426677  0.649946  0.378316  1
  O  O65  1  0.437975  0.483283  0.405660  1
  O  O66  1  0.429477  0.583360  0.309797  1
  O  O67  1  0.074084  0.833363  0.476973  1
  O  O68  1  0.421361  0.833789  0.384745  1
  O  O69  1  0.354192  0.000000  0.453745  1
  O  O70  1  0.218673  0.967585  0.315837  1
  O  O71  1  0.104735  0.800920  0.517138  1
  O  O72  1  0.104730  0.699139  0.377202  1
  O  O73  1  0.072009  0.916697  0.501630  1
  O  O74  1  0.144174  0.750029  0.452315  1
  O  O75  1  0.295716  0.816299  0.519880  1
  O  O76  1  0.295711  0.683759  0.424288  1
  O  O77  1  0.097137  0.850426  0.434065  1
  O  O78  1  0.351596  0.750026  0.348919  1
  O  O79  1  0.347716  0.965421  0.381719  1
  O  O80  1  0.230916  0.817829  0.388439  1
  O  O81  1  0.217739  0.702139  0.340551  1
  O  O82  1  0.478158  0.964586  0.352488  1
  O  O83  1  0.217745  0.797917  0.322366  1
  O  O84  1  0.344996  0.898447  0.313173  1
  O  O85  1  0.102979  0.768278  0.379866  1
  O  O86  1  0.426681  0.850109  0.339114  1
  O  O87  1  0.429475  0.916693  0.408365  1
  O  O88  1  0.074079  0.666696  0.409370  1
  O  O89  1  0.645499  0.000000  0.361744  1
  O  O90  1  0.925611  0.166696  0.370635  1
  O  O91  1  0.578347  0.166268  0.448263  1
  O  O92  1  0.894971  0.300920  0.402949  1
  O  O93  1  0.894970  0.199139  0.436662  1
  O  O94  1  0.855523  0.250029  0.414659  1
  O  O95  1  0.927682  0.083363  0.308864  1
  O  O96  1  0.703990  0.316300  0.416257  1
  O  O97  1  0.902568  0.149633  0.303906  1
  O  O98  1  0.801259  0.017092  0.495653  1
  O  O99  1  0.703983  0.183759  0.373526  1
  O  O100  1  0.651974  0.034636  0.327074  1
  O  O101  1  0.781963  0.297920  0.333682  1
  O  O102  1  0.896727  0.231782  0.333915  1
  O  O103  1  0.654701  0.101610  0.329136  1
  O  O104  1  0.573019  0.149948  0.384212  1
  O  O105  1  0.570222  0.083364  0.383244  1
  O  O106  1  0.578351  0.333795  0.308742  1
  O  O107  1  0.645509  0.499602  0.412788  1
  O  O108  1  0.885900  0.634252  0.400438  1
  O  O109  1  0.781019  0.467588  0.517284  1
  O  O110  1  0.801272  0.482966  0.319514  1
  O  O111  1  0.675725  0.583365  0.438294  1
  O  O112  1  0.629057  0.632088  0.365965  1
  O  O113  1  0.651980  0.465425  0.449144  1
  O  O114  1  0.691589  0.515562  0.371428  1
  O  O115  1  0.539174  0.651165  0.442184  1
  O  O116  1  0.739424  0.631253  0.428358  1
  O  O117  1  0.521536  0.464585  0.477500  1
  O  O118  1  0.757831  0.565114  0.363904  1
  O  O119  1  0.654706  0.398449  0.447791  1
  O  O120  1  0.573026  0.350113  0.371404  1
  O  O121  1  0.561731  0.516776  0.308829  1
  O  O122  1  0.570228  0.416699  0.371645  1
  O  O123  1  0.000000  0.500029  0.322404  1
  O  O124  1  0.925622  0.333362  0.476972  1
  O  O125  1  0.775705  0.832935  0.308294  1
  O  O126  1  0.885905  0.865805  0.436807  1
  O  O127  1  0.675717  0.916698  0.344119  1
  O  O128  1  0.976932  0.701304  0.311320  1
  O  O129  1  0.629062  0.867967  0.404267  1
  O  O130  1  0.539178  0.848895  0.304600  1
  O  O131  1  0.691575  0.984498  0.415125  1
  O  O132  1  0.739426  0.868808  0.370673  1
  O  O133  1  0.757826  0.934945  0.439929  1
  O  O134  1  0.561721  0.983279  0.443840  1
  O  O135  1  0.988562  0.816616  0.353925  1
  O  O136  1  0.775699  0.667130  0.500203  1
  Si  Si137  1  0.369728  0.033346  0.238780  1
  Si  Si138  1  0.317054  0.133377  0.290976  1
  Si  Si139  1  0.104642  0.200124  0.282990  1
  Si  Si140  1  0.294407  0.017353  0.284313  1
  Si  Si141  1  0.418047  0.533456  0.293140  1
  Si  Si142  1  0.400824  0.850685  0.301957  1
  Si  Si143  1  0.106259  0.684020  0.242752  1
  Si  Si144  1  0.100828  0.784146  0.279660  1
  Si  Si145  1  0.115569  0.966444  0.276348  1
  Si  Si146  1  0.150697  0.799776  0.228733  1
  Si  Si147  1  0.034970  0.866949  0.203398  1
  Si  Si148  1  0.686937  0.200016  0.229244  1
  Si  Si149  1  0.686936  0.300047  0.295185  1
  Si  Si150  1  0.893441  0.184020  0.294427  1
  Si  Si151  1  0.893440  0.316039  0.283878  1
  Si  Si152  1  0.657672  0.049245  0.302372  1
  Si  Si153  1  0.898876  0.215913  0.217709  1
  Si  Si154  1  0.884121  0.033616  0.281206  1
  Si  Si155  1  0.964737  0.366949  0.263785  1
  Si  Si156  1  0.884129  0.466444  0.294674  1
  Si  Si157  1  0.895060  0.700128  0.270998  1
  Si  Si158  1  0.104642  0.299933  0.350419  1
  Si  Si159  1  0.241045  0.117480  0.337978  1
  Si  Si160  1  0.115577  0.533616  0.359917  1
  Si  Si161  1  0.317059  0.366680  0.397854  1
  Si  Si162  1  0.369733  0.466710  0.463796  1
  Si  Si163  1  0.476870  0.633264  0.345219  1
  Si  Si164  1  0.294414  0.482707  0.398613  1
  Si  Si165  1  0.400819  0.649372  0.408728  1
  Si  Si166  1  0.241053  0.382581  0.331024  1
  Si  Si167  1  0.342029  0.549245  0.355064  1
  Si  Si168  1  0.034963  0.633110  0.411833  1
  Si  Si169  1  0.312766  0.700011  0.324627  1
  Si  Si170  1  0.312772  0.800042  0.363082  1
  Si  Si171  1  0.418039  0.966598  0.422041  1
  Si  Si172  1  0.476875  0.866790  0.385307  1
  Si  Si173  1  0.106270  0.816039  0.391081  1
  Si  Si174  1  0.342021  0.950812  0.340284  1
  Si  Si175  1  0.100828  0.715913  0.352755  1
  Si  Si176  1  0.150697  0.799776  0.489640  1
  Si  Si177  1  0.150693  0.700282  0.416692  1
  Si  Si178  1  0.034970  0.866949  0.464305  1
  Si  Si179  1  0.849001  0.200282  0.398365  1
  Si  Si180  1  0.522826  0.133268  0.399901  1
  Si  Si181  1  0.581654  0.033460  0.347821  1
  Si  Si182  1  0.598878  0.149372  0.353201  1
  Si  Si183  1  0.898877  0.284147  0.362015  1
  Si  Si184  1  0.849008  0.299777  0.429253  1
  Si  Si185  1  0.964729  0.133109  0.333121  1
  Si  Si186  1  0.629975  0.533350  0.402066  1
  Si  Si187  1  0.682644  0.633380  0.454261  1
  Si  Si188  1  0.581659  0.466603  0.410051  1
  Si  Si189  1  0.522833  0.366795  0.342620  1
  Si  Si190  1  0.705295  0.517352  0.339839  1
  Si  Si191  1  0.598882  0.350687  0.409161  1
  Si  Si192  1  0.758652  0.617479  0.390667  1
  Si  Si193  1  0.657676  0.450814  0.475331  1
  Si  Si194  1  0.758652  0.882579  0.413379  1
  Si  Si195  1  0.682645  0.866682  0.329955  1
  Si  Si196  1  0.629961  0.966712  0.368411  1
  Si  Si197  1  0.895065  0.799936  0.307732  1
  Si  Si198  1  0.705282  0.982705  0.450287  1
  H  H199  1  0.354198  0.500457  0.225100  1
  H  H200  1  0.097128  0.649633  0.177707  1
  H  H201  1  0.354192  0.000000  0.173160  1
  H  H202  1  0.144174  0.750029  0.171730  1
  H  H203  1  0.097137  0.850426  0.153481  1
  H  H204  1  0.578347  0.166268  0.167678  1
  H  H205  1  0.894970  0.199139  0.156078  1
  H  H206  1  0.801259  0.017092  0.215069  1
  H  H207  1  0.781019  0.467588  0.236700  1
  H  H208  1  0.925622  0.333362  0.196387  1
  H  H209  1  0.885905  0.865805  0.156222  1
  H  H210  1  0.775699  0.667130  0.219618  1
  H  H211  1  0.354198  0.500457  0.525362  1
  H  H212  1  0.097128  0.649633  0.477970  1
  H  H213  1  0.354192  0.000000  0.473422  1
  H  H214  1  0.104735  0.800920  0.536816  1
  H  H215  1  0.072009  0.916697  0.521308  1
  H  H216  1  0.295716  0.816299  0.539558  1
  H  H217  1  0.578347  0.166268  0.467941  1
  H  H218  1  0.894970  0.199139  0.456340  1
  H  H219  1  0.801259  0.017092  0.515331  1
  H  H220  1  0.781019  0.467588  0.536962  1
  H  H221  1  0.925622  0.333362  0.496650  1
  H  H222  1  0.775699  0.667130  0.519881  1
