# generated using pymatgen
data_Si6H2O13
_symmetry_space_group_name_H-M   'P 1'
_cell_length_a   5.05415245
_cell_length_b   14.13088993
_cell_length_c   30.78544555
_cell_angle_alpha   100.96000000
_cell_angle_beta   90.00000000
_cell_angle_gamma   90.00000000
_symmetry_Int_Tables_number   1
_chemical_formula_structural   Si6H2O13
_chemical_formula_sum   'Si12 H4 O26'
_cell_volume   2158.58272036
_cell_formula_units_Z   2
loop_
 _symmetry_equiv_pos_site_id
 _symmetry_equiv_pos_as_xyz
  1  'x, y, z'
loop_
 _atom_site_type_symbol
 _atom_site_label
 _atom_site_symmetry_multiplicity
 _atom_site_fract_x
 _atom_site_fract_y
 _atom_site_fract_z
 _atom_site_occupancy
  O  O1  1  0.261100  0.294927  0.260101  1
  O  O2  1  0.761088  0.704959  0.408965  1
  O  O3  1  0.477716  0.136713  0.269494  1
  O  O4  1  0.978378  0.863078  0.399657  1
  O  O5  1  0.480239  0.854115  0.406608  1
  O  O6  1  0.979553  0.145957  0.262523  1
  O  O7  1  0.268006  0.141996  0.194666  1
  O  O8  1  0.768215  0.857804  0.474470  1
  O  O9  1  0.253467  0.495911  0.290103  1
  O  O10  1  0.753497  0.504019  0.379005  1
  O  O11  1  0.972953  0.378035  0.322262  1
  O  O12  1  0.470239  0.621804  0.347137  1
  O  O13  1  0.969120  0.621914  0.337438  1
  O  O14  1  0.471786  0.377862  0.331374  1
  O  O15  1  0.267066  0.692384  0.285605  1
  O  O16  1  0.766935  0.307565  0.383588  1
  O  O17  1  0.261867  0.008528  0.395291  1
  O  O18  1  0.762030  0.991439  0.273855  1
  O  O19  1  0.271239  0.861058  0.331874  1
  O  O20  1  0.770760  0.138902  0.337280  1
  O  O21  1  0.500891  0.835148  0.257318  1
  O  O22  1  0.000000  0.164638  0.411885  1
  O  O23  1  0.499560  0.169395  0.407891  1
  O  O24  1  -0.000000  0.830690  0.261222  1
  O  O25  1  0.276589  0.105306  0.472717  1
  O  O26  1  0.776709  0.894592  0.196431  1
  Si  Si27  1  0.247826  0.180891  0.245877  1
  Si  Si28  1  0.748261  0.818977  0.423248  1
  Si  Si29  1  0.242215  0.387672  0.298245  1
  Si  Si30  1  0.740766  0.612232  0.370839  1
  Si  Si31  1  0.240648  0.607619  0.312344  1
  Si  Si32  1  0.742092  0.392293  0.356791  1
  Si  Si33  1  0.247946  0.896184  0.382964  1
  Si  Si34  1  0.747510  0.103775  0.286186  1
  Si  Si35  1  0.260763  0.803464  0.283147  1
  Si  Si36  1  0.760129  0.196467  0.386014  1
  Si  Si37  1  0.259649  0.113821  0.422721  1
  Si  Si38  1  0.760253  0.886134  0.246437  1
  H  H39  1  0.268006  0.141996  0.165432  1
  H  H40  1  0.768215  0.857804  0.503704  1
  H  H41  1  0.276589  0.105306  0.501952  1
  H  H42  1  0.776709  0.894592  0.167197  1
