# generated using pymatgen
data_Si24H2O49
_symmetry_space_group_name_H-M   'P 1'
_cell_length_a   10.13906825
_cell_length_b   19.86355878
_cell_length_c   72.18338234
_cell_angle_alpha   134.96746613
_cell_angle_beta   90.00000000
_cell_angle_gamma   90.00000000
_symmetry_Int_Tables_number   1
_chemical_formula_structural   Si24H2O49
_chemical_formula_sum   'Si96 H8 O196'
_cell_volume   10285.4618887
_cell_formula_units_Z   4
loop_
 _symmetry_equiv_pos_site_id
 _symmetry_equiv_pos_as_xyz
  1  'x, y, z'
loop_
 _atom_site_type_symbol
 _atom_site_label
 _atom_site_symmetry_multiplicity
 _atom_site_fract_x
 _atom_site_fract_y
 _atom_site_fract_z
 _atom_site_occupancy
  O  O1  1  0.499990  0.326899  0.110372  1
  O  O2  1  0.000000  0.826916  0.110373  1
  O  O3  1  0.874449  0.868953  0.215688  1
  O  O4  1  0.000000  0.826900  0.237499  1
  O  O5  1  0.499994  0.673334  0.177741  1
  O  O6  1  0.125429  0.672699  0.215628  1
  O  O7  1  0.625538  0.827531  0.199608  1
  O  O8  1  0.125554  0.868951  0.215701  1
  O  O9  1  0.374457  0.827533  0.199613  1
  O  O10  1  0.874347  0.672710  0.215635  1
  O  O11  1  0.000000  0.756812  0.257540  1
  O  O12  1  0.499935  0.500117  0.157638  1
  O  O13  1  0.217092  0.500118  0.184001  1
  O  O14  1  0.782698  0.500121  0.184011  1
  O  O15  1  0.625435  0.368954  0.148541  1
  O  O16  1  0.625435  0.631286  0.199556  1
  O  O17  1  0.374330  0.368950  0.148524  1
  O  O18  1  0.374329  0.631288  0.199539  1
  O  O19  1  0.717341  0.378863  0.184048  1
  O  O20  1  0.282508  0.378860  0.184036  1
  O  O21  1  0.282514  0.621389  0.231198  1
  O  O22  1  0.717346  0.621388  0.231211  1
  O  O23  1  0.000000  0.000000  0.257606  1
  O  O24  1  0.499990  0.326899  0.304845  1
  O  O25  1  0.000000  0.173334  0.110402  1
  O  O26  1  0.125561  0.131289  0.266723  1
  O  O27  1  0.625543  0.172708  0.266737  1
  O  O28  1  0.125429  0.327534  0.148505  1
  O  O29  1  0.874455  0.131285  0.266705  1
  O  O30  1  0.874346  0.327531  0.148509  1
  O  O31  1  0.374462  0.172701  0.266741  1
  O  O32  1  0.282797  0.000000  0.231243  1
  O  O33  1  0.717190  0.000000  0.231234  1
  O  O34  1  0.000000  0.243438  0.157706  1
  O  O35  1  0.000000  0.826916  0.304845  1
  O  O36  1  0.499897  0.673351  0.110402  1
  O  O37  1  0.217389  0.878863  0.184045  1
  O  O38  1  0.125513  0.868964  0.148537  1
  O  O39  1  0.125501  0.672715  0.266736  1
  O  O40  1  0.625506  0.827526  0.148501  1
  O  O41  1  0.874407  0.868963  0.148528  1
  O  O42  1  0.374425  0.827565  0.148514  1
  O  O43  1  0.874419  0.672720  0.266743  1
  O  O44  1  0.782556  0.878860  0.184035  1
  O  O45  1  0.499971  0.743438  0.157703  1
  O  O46  1  0.499912  0.500133  0.257609  1
  O  O47  1  0.217157  0.500133  0.231236  1
  O  O48  1  0.782763  0.500129  0.231246  1
  O  O49  1  0.625517  0.631295  0.266720  1
  O  O50  1  0.625503  0.368966  0.215706  1
  O  O51  1  0.374412  0.631301  0.266707  1
  O  O52  1  0.374397  0.368961  0.215693  1
  O  O53  1  0.282742  0.000000  0.184015  1
  O  O54  1  0.000000  0.000000  0.157641  1
  O  O55  1  0.499907  0.326916  0.237505  1
  O  O56  1  0.000000  0.173351  0.177748  1
  O  O57  1  0.625470  0.172714  0.215632  1
  O  O58  1  0.125485  0.327557  0.199614  1
  O  O59  1  0.125478  0.131303  0.199560  1
  O  O60  1  0.874404  0.327535  0.199617  1
  O  O61  1  0.374389  0.172722  0.215640  1
  O  O62  1  0.874373  0.131293  0.199544  1
  O  O63  1  0.217376  0.121392  0.231215  1
  O  O64  1  0.782543  0.121385  0.231199  1
  O  O65  1  0.717136  0.000000  0.184002  1
  O  O66  1  0.499969  0.256812  0.257543  1
  O  O67  1  0.874449  0.868953  0.410161  1
  O  O68  1  0.000000  0.826900  0.431972  1
  O  O69  1  0.499994  0.673334  0.372214  1
  O  O70  1  0.125429  0.672699  0.410100  1
  O  O71  1  0.625538  0.827531  0.394081  1
  O  O72  1  0.125554  0.868951  0.410174  1
  O  O73  1  0.374457  0.827533  0.394085  1
  O  O74  1  0.874347  0.672710  0.410107  1
  O  O75  1  0.000000  0.756812  0.452013  1
  O  O76  1  0.499935  0.500117  0.352111  1
  O  O77  1  0.217092  0.500118  0.378474  1
  O  O78  1  0.782698  0.500121  0.378483  1
  O  O79  1  0.625435  0.368954  0.343014  1
  O  O80  1  0.625435  0.631286  0.394028  1
  O  O81  1  0.374330  0.368950  0.342997  1
  O  O82  1  0.374329  0.631288  0.394011  1
  O  O83  1  0.717341  0.378863  0.378521  1
  O  O84  1  0.282508  0.378860  0.378508  1
  O  O85  1  0.282514  0.621389  0.425670  1
  O  O86  1  0.717346  0.621388  0.425684  1
  O  O87  1  0.000000  0.000000  0.452078  1
  O  O88  1  0.499990  0.326899  0.499317  1
  O  O89  1  0.000000  0.173334  0.304874  1
  O  O90  1  0.125561  0.131289  0.461196  1
  O  O91  1  0.625543  0.172708  0.461210  1
  O  O92  1  0.125429  0.327534  0.342977  1
  O  O93  1  0.874455  0.131285  0.461178  1
  O  O94  1  0.874346  0.327531  0.342982  1
  O  O95  1  0.374462  0.172701  0.461214  1
  O  O96  1  0.282797  0.000000  0.425716  1
  O  O97  1  0.717190  0.000000  0.425707  1
  O  O98  1  0.000000  0.243438  0.352179  1
  O  O99  1  0.000000  0.826916  0.499318  1
  O  O100  1  0.499897  0.673351  0.304874  1
  O  O101  1  0.217389  0.878863  0.378518  1
  O  O102  1  0.125513  0.868964  0.343009  1
  O  O103  1  0.125501  0.672715  0.461208  1
  O  O104  1  0.625506  0.827526  0.342973  1
  O  O105  1  0.874407  0.868963  0.343001  1
  O  O106  1  0.374425  0.827565  0.342987  1
  O  O107  1  0.874419  0.672720  0.461216  1
  O  O108  1  0.782556  0.878860  0.378507  1
  O  O109  1  0.499971  0.743438  0.352176  1
  O  O110  1  0.499912  0.500133  0.452081  1
  O  O111  1  0.217157  0.500133  0.425709  1
  O  O112  1  0.782763  0.500129  0.425718  1
  O  O113  1  0.625517  0.631295  0.461193  1
  O  O114  1  0.625503  0.368966  0.410178  1
  O  O115  1  0.374412  0.631301  0.461180  1
  O  O116  1  0.374397  0.368961  0.410166  1
  O  O117  1  0.282742  0.000000  0.378487  1
  O  O118  1  0.000000  0.000000  0.352114  1
  O  O119  1  0.499907  0.326916  0.431978  1
  O  O120  1  0.000000  0.173351  0.372220  1
  O  O121  1  0.625470  0.172714  0.410104  1
  O  O122  1  0.125485  0.327557  0.394087  1
  O  O123  1  0.125478  0.131303  0.394032  1
  O  O124  1  0.874404  0.327535  0.394089  1
  O  O125  1  0.374389  0.172722  0.410113  1
  O  O126  1  0.874373  0.131293  0.394016  1
  O  O127  1  0.217376  0.121392  0.425687  1
  O  O128  1  0.782543  0.121385  0.425672  1
  O  O129  1  0.717136  -0.000000  0.378474  1
  O  O130  1  0.499969  0.256812  0.452016  1
  O  O131  1  0.874449  0.868953  0.604633  1
  O  O132  1  0.000000  0.826900  0.626444  1
  O  O133  1  0.499994  0.673334  0.566686  1
  O  O134  1  0.125429  0.672699  0.604573  1
  O  O135  1  0.625538  0.827531  0.588553  1
  O  O136  1  0.125554  0.868951  0.604646  1
  O  O137  1  0.374457  0.827533  0.588558  1
  O  O138  1  0.874347  0.672710  0.604580  1
  O  O139  1  0.000000  0.756812  0.646485  1
  O  O140  1  0.499935  0.500117  0.546583  1
  O  O141  1  0.217092  0.500118  0.572946  1
  O  O142  1  0.782698  0.500121  0.572956  1
  O  O143  1  0.625435  0.368954  0.537486  1
  O  O144  1  0.625435  0.631286  0.588501  1
  O  O145  1  0.374330  0.368950  0.537469  1
  O  O146  1  0.374329  0.631288  0.588484  1
  O  O147  1  0.717341  0.378863  0.572993  1
  O  O148  1  0.282508  0.378860  0.572981  1
  O  O149  1  0.282514  0.621389  0.620143  1
  O  O150  1  0.717346  0.621388  0.620156  1
  O  O151  1  0.000000  0.000000  0.646550  1
  O  O152  1  0.499990  0.326899  0.693790  1
  O  O153  1  0.000000  0.173334  0.499347  1
  O  O154  1  0.125561  0.131289  0.655668  1
  O  O155  1  0.625543  0.172708  0.655682  1
  O  O156  1  0.125429  0.327534  0.537450  1
  O  O157  1  0.874455  0.131285  0.655650  1
  O  O158  1  0.874346  0.327531  0.537454  1
  O  O159  1  0.374462  0.172701  0.655686  1
  O  O160  1  0.282797  0.000000  0.620188  1
  O  O161  1  0.717190  0.000000  0.620179  1
  O  O162  1  0.000000  0.243438  0.546651  1
  O  O163  1  -0.000000  0.826916  0.693790  1
  O  O164  1  0.499897  0.673351  0.499347  1
  O  O165  1  0.217389  0.878863  0.572990  1
  O  O166  1  0.125513  0.868964  0.537482  1
  O  O167  1  0.125501  0.672715  0.655681  1
  O  O168  1  0.625506  0.827526  0.537446  1
  O  O169  1  0.874407  0.868963  0.537473  1
  O  O170  1  0.374425  0.827565  0.537459  1
  O  O171  1  0.874419  0.672720  0.655688  1
  O  O172  1  0.782556  0.878860  0.572979  1
  O  O173  1  0.499971  0.743438  0.546648  1
  O  O174  1  0.499912  0.500133  0.646553  1
  O  O175  1  0.217157  0.500133  0.620181  1
  O  O176  1  0.782763  0.500129  0.620191  1
  O  O177  1  0.625517  0.631295  0.655665  1
  O  O178  1  0.625503  0.368966  0.604651  1
  O  O179  1  0.374412  0.631301  0.655652  1
  O  O180  1  0.374397  0.368961  0.604638  1
  O  O181  1  0.282742  0.000000  0.572960  1
  O  O182  1  0.000000  0.000000  0.546586  1
  O  O183  1  0.499907  0.326916  0.626450  1
  O  O184  1  0.000000  0.173351  0.566693  1
  O  O185  1  0.625470  0.172714  0.604577  1
  O  O186  1  0.125485  0.327557  0.588559  1
  O  O187  1  0.125478  0.131303  0.588505  1
  O  O188  1  0.874404  0.327535  0.588562  1
  O  O189  1  0.374389  0.172722  0.604585  1
  O  O190  1  0.874373  0.131293  0.588489  1
  O  O191  1  0.217376  0.121392  0.620159  1
  O  O192  1  0.782543  0.121385  0.620144  1
  O  O193  1  0.717136  0.000000  0.572947  1
  O  O194  1  0.499969  0.256812  0.646488  1
  O  O195  1  0.000000  0.173334  0.693819  1
  O  O196  1  0.499897  0.673351  0.693819  1
  Si  Si197  1  0.749920  0.890786  0.207645  1
  Si  Si198  1  0.250064  0.890785  0.207654  1
  Si  Si199  1  0.499993  0.765414  0.183353  1
  Si  Si200  1  0.000000  0.890348  0.231950  1
  Si  Si201  1  0.000000  0.734824  0.231889  1
  Si  Si202  1  0.249827  0.609453  0.207587  1
  Si  Si203  1  0.749967  0.390787  0.165076  1
  Si  Si204  1  0.499921  0.390348  0.140599  1
  Si  Si205  1  0.499925  0.609889  0.183291  1
  Si  Si206  1  0.749967  0.609456  0.207600  1
  Si  Si207  1  0.249824  0.390784  0.165065  1
  Si  Si208  1  0.250063  0.109454  0.250182  1
  Si  Si209  1  0.000000  0.109889  0.274648  1
  Si  Si210  1  0.499994  0.234824  0.274643  1
  Si  Si211  1  0.000000  0.265414  0.140604  1
  Si  Si212  1  0.749923  0.109454  0.250171  1
  Si  Si213  1  0.000000  0.890361  0.140599  1
  Si  Si214  1  0.000000  0.734837  0.274643  1
  Si  Si215  1  0.499951  0.765426  0.140604  1
  Si  Si216  1  0.749887  0.890790  0.165065  1
  Si  Si217  1  0.250027  0.890803  0.165076  1
  Si  Si218  1  0.249879  0.390797  0.207648  1
  Si  Si219  1  0.750030  0.609463  0.250182  1
  Si  Si220  1  0.499930  0.609902  0.274647  1
  Si  Si221  1  0.499923  0.390361  0.231955  1
  Si  Si222  1  0.750019  0.390795  0.207659  1
  Si  Si223  1  0.249887  0.609466  0.250171  1
  Si  Si224  1  0.749861  0.109458  0.207590  1
  Si  Si225  1  0.250004  0.109471  0.207605  1
  Si  Si226  1  0.000000  0.109902  0.183296  1
  Si  Si227  1  0.499938  0.234836  0.231894  1
  Si  Si228  1  0.000000  0.265426  0.183358  1
  Si  Si229  1  0.749920  0.890786  0.402117  1
  Si  Si230  1  0.250064  0.890785  0.402126  1
  Si  Si231  1  0.499993  0.765414  0.377825  1
  Si  Si232  1  0.000000  0.890348  0.426423  1
  Si  Si233  1  0.000000  0.734824  0.426362  1
  Si  Si234  1  0.249827  0.609453  0.402060  1
  Si  Si235  1  0.749967  0.390787  0.359548  1
  Si  Si236  1  0.499921  0.390348  0.335072  1
  Si  Si237  1  0.499925  0.609889  0.377764  1
  Si  Si238  1  0.749967  0.609456  0.402072  1
  Si  Si239  1  0.249824  0.390784  0.359537  1
  Si  Si240  1  0.250063  0.109454  0.444655  1
  Si  Si241  1  0.000000  0.109889  0.469120  1
  Si  Si242  1  0.499994  0.234824  0.469115  1
  Si  Si243  1  0.000000  0.265414  0.335077  1
  Si  Si244  1  0.749923  0.109454  0.444643  1
  Si  Si245  1  0.000000  0.890361  0.335072  1
  Si  Si246  1  0.000000  0.734837  0.469115  1
  Si  Si247  1  0.499951  0.765426  0.335077  1
  Si  Si248  1  0.749887  0.890790  0.359537  1
  Si  Si249  1  0.250027  0.890803  0.359549  1
  Si  Si250  1  0.249879  0.390797  0.402121  1
  Si  Si251  1  0.750030  0.609463  0.444655  1
  Si  Si252  1  0.499930  0.609902  0.469120  1
  Si  Si253  1  0.499923  0.390361  0.426428  1
  Si  Si254  1  0.750019  0.390795  0.402131  1
  Si  Si255  1  0.249887  0.609466  0.444643  1
  Si  Si256  1  0.749861  0.109458  0.402062  1
  Si  Si257  1  0.250004  0.109471  0.402077  1
  Si  Si258  1  0.000000  0.109902  0.377769  1
  Si  Si259  1  0.499938  0.234836  0.426366  1
  Si  Si260  1  0.000000  0.265426  0.377830  1
  Si  Si261  1  0.749920  0.890786  0.596590  1
  Si  Si262  1  0.250064  0.890785  0.596599  1
  Si  Si263  1  0.499993  0.765414  0.572298  1
  Si  Si264  1  0.000000  0.890348  0.620895  1
  Si  Si265  1  0.000000  0.734824  0.620834  1
  Si  Si266  1  0.249827  0.609453  0.596532  1
  Si  Si267  1  0.749967  0.390787  0.554021  1
  Si  Si268  1  0.499921  0.390348  0.529544  1
  Si  Si269  1  0.499925  0.609889  0.572236  1
  Si  Si270  1  0.749967  0.609456  0.596544  1
  Si  Si271  1  0.249824  0.390784  0.554009  1
  Si  Si272  1  0.250063  0.109454  0.639127  1
  Si  Si273  1  0.000000  0.109889  0.663593  1
  Si  Si274  1  0.499994  0.234824  0.663587  1
  Si  Si275  1  0.000000  0.265414  0.529549  1
  Si  Si276  1  0.749923  0.109454  0.639115  1
  Si  Si277  1  0.000000  0.890361  0.529544  1
  Si  Si278  1  0.000000  0.734837  0.663588  1
  Si  Si279  1  0.499951  0.765426  0.529549  1
  Si  Si280  1  0.749887  0.890790  0.554009  1
  Si  Si281  1  0.250027  0.890803  0.554021  1
  Si  Si282  1  0.249879  0.390797  0.596593  1
  Si  Si283  1  0.750030  0.609463  0.639127  1
  Si  Si284  1  0.499930  0.609902  0.663592  1
  Si  Si285  1  0.499923  0.390361  0.620900  1
  Si  Si286  1  0.750019  0.390795  0.596604  1
  Si  Si287  1  0.249887  0.609466  0.639116  1
  Si  Si288  1  0.749861  0.109458  0.596535  1
  Si  Si289  1  0.250004  0.109471  0.596549  1
  Si  Si290  1  -0.000000  0.109902  0.572241  1
  Si  Si291  1  0.499938  0.234836  0.620839  1
  Si  Si292  1  0.000000  0.265426  0.572302  1
  H  H293  1  0.499990  0.326899  0.097904  1
  H  H294  1  0.000000  0.826916  0.097904  1
  H  H295  1  -0.000000  0.173334  0.097934  1
  H  H296  1  0.499897  0.673351  0.097934  1
  H  H297  1  0.499990  0.326899  0.706258  1
  H  H298  1  0.000000  0.826916  0.706258  1
  H  H299  1  0.000000  0.173334  0.706287  1
  H  H300  1  0.499897  0.673351  0.706287  1
