# generated using pymatgen
data_Si21H2O43
_symmetry_space_group_name_H-M   'P 1'
_cell_length_a   13.77334602
_cell_length_b   13.77226437
_cell_length_c   53.88919169
_cell_angle_alpha   90.00000000
_cell_angle_beta   90.00000000
_cell_angle_gamma   90.00000000
_symmetry_Int_Tables_number   1
_chemical_formula_structural   Si21H2O43
_chemical_formula_sum   'Si84 H8 O172'
_cell_volume   10222.2495364
_cell_formula_units_Z   4
loop_
 _symmetry_equiv_pos_site_id
 _symmetry_equiv_pos_as_xyz
  1  'x, y, z'
loop_
 _atom_site_type_symbol
 _atom_site_label
 _atom_site_symmetry_multiplicity
 _atom_site_fract_x
 _atom_site_fract_y
 _atom_site_fract_z
 _atom_site_occupancy
  O  O1  1  0.829304  0.329253  0.109491  1
  O  O2  1  0.170769  0.329232  0.109484  1
  O  O3  1  0.691519  0.371316  0.142241  1
  O  O4  1  0.308604  0.371323  0.142226  1
  O  O5  1  0.190245  0.499970  0.127198  1
  O  O6  1  0.809864  0.499969  0.127212  1
  O  O7  1  0.327127  0.360701  0.231109  1
  O  O8  1  0.639290  0.327039  0.186370  1
  O  O9  1  0.673116  0.360688  0.231121  1
  O  O10  1  0.360857  0.327029  0.186353  1
  O  O11  1  0.500115  0.382213  0.248088  1
  O  O12  1  0.500072  0.369342  0.156012  1
  O  O13  1  0.371893  0.135089  0.260254  1
  O  O14  1  0.864913  0.371782  0.157203  1
  O  O15  1  0.628265  0.135085  0.260258  1
  O  O16  1  0.135261  0.371795  0.157200  1
  O  O17  1  0.323609  0.187138  0.216455  1
  O  O18  1  0.812917  0.323472  0.200996  1
  O  O19  1  0.676581  0.187132  0.216460  1
  O  O20  1  0.187272  0.323483  0.200994  1
  O  O21  1  0.500085  0.127828  0.226933  1
  O  O22  1  0.000000  0.366170  0.190056  1
  O  O23  1  0.872232  0.499965  0.190527  1
  O  O24  1  0.369447  0.499902  0.261450  1
  O  O25  1  0.127960  0.499967  0.190517  1
  O  O26  1  0.630780  0.499903  0.261459  1
  O  O27  1  0.808566  0.128461  0.340733  1
  O  O28  1  0.191484  0.128451  0.340712  1
  O  O29  1  0.860811  0.172725  0.384858  1
  O  O30  1  0.139228  0.172740  0.384839  1
  O  O31  1  0.000000  0.130414  0.354499  1
  O  O32  1  0.500071  0.190048  0.290264  1
  O  O33  1  0.635203  0.128022  0.355686  1
  O  O34  1  0.364818  0.128029  0.355682  1
  O  O35  1  0.329312  0.170561  0.307967  1
  O  O36  1  0.670805  0.170547  0.307973  1
  O  O37  1  0.687173  0.176349  0.399476  1
  O  O38  1  0.312813  0.176327  0.399478  1
  O  O39  1  0.499996  0.133653  0.388538  1
  O  O40  1  0.628752  0.308426  0.275247  1
  O  O41  1  0.371431  0.308436  0.275238  1
  O  O42  1  0.308584  0.628665  0.142222  1
  O  O43  1  0.829328  0.670672  0.109492  1
  O  O44  1  0.170746  0.670695  0.109485  1
  O  O45  1  0.691534  0.628670  0.142237  1
  O  O46  1  0.633880  0.000000  0.227401  1
  O  O47  1  0.617736  0.500015  0.169388  1
  O  O48  1  0.360840  0.673002  0.186343  1
  O  O49  1  0.673097  0.639145  0.231102  1
  O  O50  1  0.639309  0.672991  0.186359  1
  O  O51  1  0.327148  0.639135  0.231090  1
  O  O52  1  0.500118  0.617570  0.248071  1
  O  O53  1  0.500071  0.630691  0.156004  1
  O  O54  1  0.135261  0.628162  0.157203  1
  O  O55  1  0.628266  0.864755  0.260258  1
  O  O56  1  0.864922  0.628167  0.157207  1
  O  O57  1  0.371891  0.864770  0.260260  1
  O  O58  1  0.187264  0.676457  0.200998  1
  O  O59  1  0.676596  0.812790  0.216472  1
  O  O60  1  0.812930  0.676468  0.200999  1
  O  O61  1  0.323595  0.812784  0.216468  1
  O  O62  1  0.500099  0.872084  0.226941  1
  O  O63  1  0.000000  0.633767  0.190062  1
  O  O64  1  0.366300  0.000000  0.227399  1
  O  O65  1  0.382386  0.500015  0.169373  1
  O  O66  1  0.191514  0.871115  0.340705  1
  O  O67  1  0.808553  0.871104  0.340722  1
  O  O68  1  0.139264  0.826753  0.384823  1
  O  O69  1  0.860774  0.826776  0.384847  1
  O  O70  1  0.882353  0.000000  0.367876  1
  O  O71  1  0.000000  0.869066  0.354489  1
  O  O72  1  0.500070  0.809690  0.290252  1
  O  O73  1  0.690238  0.000000  0.325696  1
  O  O74  1  0.364835  0.871641  0.355692  1
  O  O75  1  0.635161  0.871645  0.355693  1
  O  O76  1  0.329365  0.829111  0.307971  1
  O  O77  1  0.670762  0.829123  0.307979  1
  O  O78  1  0.312832  0.823363  0.399488  1
  O  O79  1  0.687154  0.823339  0.399486  1
  O  O80  1  0.628769  0.691373  0.275219  1
  O  O81  1  0.372133  0.000000  0.389005  1
  O  O82  1  0.499994  0.866055  0.388551  1
  O  O83  1  0.371421  0.691358  0.275216  1
  O  O84  1  0.309852  0.000000  0.325685  1
  O  O85  1  0.117705  0.000000  0.367858  1
  O  O86  1  0.627862  0.000000  0.389012  1
  O  O87  1  0.128647  0.191374  0.473721  1
  O  O88  1  0.871337  0.191388  0.473731  1
  O  O89  1  0.172956  0.139101  0.429595  1
  O  O90  1  0.826948  0.139122  0.429611  1
  O  O91  1  0.000000  0.117589  0.446572  1
  O  O92  1  0.000000  0.309758  0.488746  1
  O  O93  1  0.128197  0.364682  0.458738  1
  O  O94  1  0.871821  0.364693  0.458741  1
  O  O95  1  0.829304  0.329253  0.506463  1
  O  O96  1  0.170769  0.329232  0.506455  1
  O  O97  1  0.176474  0.312659  0.414938  1
  O  O98  1  0.823527  0.312672  0.414942  1
  O  O99  1  0.000000  0.371975  0.425423  1
  O  O100  1  0.691519  0.371316  0.539212  1
  O  O101  1  0.308604  0.371323  0.539197  1
  O  O102  1  0.866219  0.499844  0.425887  1
  O  O103  1  0.133802  0.499845  0.425886  1
  O  O104  1  0.190245  0.499970  0.524169  1
  O  O105  1  0.809864  0.499969  0.524183  1
  O  O106  1  0.327127  0.360701  0.628080  1
  O  O107  1  0.639290  0.327039  0.583341  1
  O  O108  1  0.673116  0.360688  0.628092  1
  O  O109  1  0.360857  0.327029  0.583324  1
  O  O110  1  0.500115  0.382213  0.645059  1
  O  O111  1  0.500072  0.369342  0.552983  1
  O  O112  1  0.371893  0.135089  0.657225  1
  O  O113  1  0.864913  0.371782  0.554174  1
  O  O114  1  0.628265  0.135085  0.657229  1
  O  O115  1  0.135261  0.371795  0.554171  1
  O  O116  1  0.323609  0.187138  0.613426  1
  O  O117  1  0.812917  0.323472  0.597967  1
  O  O118  1  0.676581  0.187132  0.613431  1
  O  O119  1  0.187272  0.323483  0.597965  1
  O  O120  1  0.500085  0.127828  0.623904  1
  O  O121  1  0.000000  0.366170  0.587027  1
  O  O122  1  0.872232  0.499965  0.587498  1
  O  O123  1  0.369447  0.499902  0.658421  1
  O  O124  1  0.127960  0.499967  0.587488  1
  O  O125  1  0.630780  0.499903  0.658430  1
  O  O126  1  0.500071  0.190048  0.687235  1
  O  O127  1  0.329312  0.170561  0.704939  1
  O  O128  1  0.670805  0.170547  0.704944  1
  O  O129  1  0.628752  0.308426  0.672218  1
  O  O130  1  0.371431  0.308436  0.672210  1
  O  O131  1  0.871312  0.808436  0.473710  1
  O  O132  1  0.128671  0.808451  0.473700  1
  O  O133  1  0.826978  0.860653  0.429588  1
  O  O134  1  0.172913  0.860674  0.429570  1
  O  O135  1  0.000000  0.882229  0.446556  1
  O  O136  1  0.308584  0.628665  0.539193  1
  O  O137  1  0.000000  0.690127  0.488741  1
  O  O138  1  0.871840  0.635024  0.458750  1
  O  O139  1  0.128192  0.635027  0.458748  1
  O  O140  1  0.829328  0.670672  0.506463  1
  O  O141  1  0.170746  0.670695  0.506456  1
  O  O142  1  0.823484  0.687006  0.414963  1
  O  O143  1  0.176516  0.687014  0.414959  1
  O  O144  1  0.000000  0.627720  0.425427  1
  O  O145  1  0.691534  0.628670  0.539208  1
  O  O146  1  0.130625  0.000000  0.459933  1
  O  O147  1  0.869291  0.000000  0.459945  1
  O  O148  1  0.633880  0.000000  0.624372  1
  O  O149  1  0.617736  0.500015  0.566359  1
  O  O150  1  0.360840  0.673002  0.583314  1
  O  O151  1  0.673097  0.639145  0.628073  1
  O  O152  1  0.639309  0.672991  0.583330  1
  O  O153  1  0.327148  0.639135  0.628061  1
  O  O154  1  0.500118  0.617570  0.645042  1
  O  O155  1  0.500071  0.630691  0.552975  1
  O  O156  1  0.135261  0.628162  0.554174  1
  O  O157  1  0.628266  0.864755  0.657229  1
  O  O158  1  0.864922  0.628167  0.554178  1
  O  O159  1  0.371891  0.864770  0.657231  1
  O  O160  1  0.187264  0.676457  0.597969  1
  O  O161  1  0.676596  0.812790  0.613443  1
  O  O162  1  0.812930  0.676468  0.597970  1
  O  O163  1  0.323595  0.812784  0.613440  1
  O  O164  1  0.500099  0.872084  0.623912  1
  O  O165  1  0.000000  0.633767  0.587033  1
  O  O166  1  0.366300  0.000000  0.624370  1
  O  O167  1  0.382386  0.500015  0.566344  1
  O  O168  1  0.500070  0.809690  0.687223  1
  O  O169  1  0.329365  0.829111  0.704942  1
  O  O170  1  0.670762  0.829123  0.704950  1
  O  O171  1  0.628769  0.691373  0.672190  1
  O  O172  1  0.371421  0.691358  0.672187  1
  Si  Si173  1  0.200012  0.388494  0.133295  1
  Si  Si174  1  0.800103  0.388491  0.133309  1
  Si  Si175  1  0.387784  0.111715  0.231751  1
  Si  Si176  1  0.389353  0.387783  0.162744  1
  Si  Si177  1  0.612339  0.389182  0.254725  1
  Si  Si178  1  0.610769  0.387781  0.162762  1
  Si  Si179  1  0.295023  0.294896  0.208727  1
  Si  Si180  1  0.705172  0.294889  0.208733  1
  Si  Si181  1  0.111848  0.387652  0.185700  1
  Si  Si182  1  0.612399  0.111712  0.231752  1
  Si  Si183  1  0.888341  0.387656  0.185706  1
  Si  Si184  1  0.387886  0.389183  0.254717  1
  Si  Si185  1  0.388598  0.199833  0.284162  1
  Si  Si186  1  0.699999  0.111300  0.331791  1
  Si  Si187  1  0.889318  0.111979  0.361250  1
  Si  Si188  1  0.110735  0.111976  0.361232  1
  Si  Si189  1  0.611752  0.112162  0.384186  1
  Si  Si190  1  0.388243  0.112168  0.384184  1
  Si  Si191  1  0.611546  0.199822  0.284163  1
  Si  Si192  1  0.300069  0.111303  0.331780  1
  Si  Si193  1  0.200000  0.611448  0.133298  1
  Si  Si194  1  0.800119  0.611448  0.133311  1
  Si  Si195  1  0.612400  0.888199  0.231762  1
  Si  Si196  1  0.295017  0.705040  0.208728  1
  Si  Si197  1  0.888345  0.612278  0.185709  1
  Si  Si198  1  0.387784  0.888203  0.231759  1
  Si  Si199  1  0.705181  0.705046  0.208734  1
  Si  Si200  1  0.389355  0.612242  0.162738  1
  Si  Si201  1  0.612342  0.610614  0.254707  1
  Si  Si202  1  0.610772  0.612243  0.162754  1
  Si  Si203  1  0.387887  0.610609  0.254698  1
  Si  Si204  1  0.111849  0.612274  0.185704  1
  Si  Si205  1  0.110737  0.887517  0.361220  1
  Si  Si206  1  0.889319  0.887519  0.361240  1
  Si  Si207  1  0.388242  0.887546  0.384191  1
  Si  Si208  1  0.611746  0.887540  0.384196  1
  Si  Si209  1  0.699972  0.888346  0.331799  1
  Si  Si210  1  0.388596  0.799936  0.284152  1
  Si  Si211  1  0.300099  0.888348  0.331784  1
  Si  Si212  1  0.611550  0.799947  0.284157  1
  Si  Si213  1  0.111496  0.299970  0.482647  1
  Si  Si214  1  0.112186  0.110618  0.453201  1
  Si  Si215  1  0.887735  0.110620  0.453212  1
  Si  Si216  1  0.112322  0.388087  0.430236  1
  Si  Si217  1  0.887706  0.388086  0.430239  1
  Si  Si218  1  0.200012  0.388494  0.530267  1
  Si  Si219  1  0.888549  0.299983  0.482651  1
  Si  Si220  1  0.800103  0.388491  0.530280  1
  Si  Si221  1  0.794921  0.204912  0.407217  1
  Si  Si222  1  0.205059  0.204898  0.407211  1
  Si  Si223  1  0.387784  0.111715  0.628722  1
  Si  Si224  1  0.389353  0.387783  0.559715  1
  Si  Si225  1  0.612339  0.389182  0.651696  1
  Si  Si226  1  0.610769  0.387781  0.559733  1
  Si  Si227  1  0.295023  0.294896  0.605698  1
  Si  Si228  1  0.705172  0.294889  0.605705  1
  Si  Si229  1  0.111848  0.387652  0.582671  1
  Si  Si230  1  0.612399  0.111712  0.628723  1
  Si  Si231  1  0.888341  0.387656  0.582677  1
  Si  Si232  1  0.387886  0.389183  0.651688  1
  Si  Si233  1  0.388598  0.199833  0.681133  1
  Si  Si234  1  0.611546  0.199822  0.681134  1
  Si  Si235  1  0.888547  0.699858  0.482642  1
  Si  Si236  1  0.794895  0.794745  0.407222  1
  Si  Si237  1  0.200000  0.611448  0.530269  1
  Si  Si238  1  0.887729  0.889196  0.453192  1
  Si  Si239  1  0.112185  0.889198  0.453180  1
  Si  Si240  1  0.887702  0.611597  0.430247  1
  Si  Si241  1  0.112317  0.611596  0.430245  1
  Si  Si242  1  0.111498  0.699873  0.482638  1
  Si  Si243  1  0.800119  0.611448  0.530282  1
  Si  Si244  1  0.205080  0.794757  0.407214  1
  Si  Si245  1  0.612400  0.888199  0.628733  1
  Si  Si246  1  0.295017  0.705040  0.605699  1
  Si  Si247  1  0.888345  0.612278  0.582680  1
  Si  Si248  1  0.387784  0.888203  0.628730  1
  Si  Si249  1  0.705181  0.705046  0.605705  1
  Si  Si250  1  0.389355  0.612242  0.559709  1
  Si  Si251  1  0.612342  0.610614  0.651678  1
  Si  Si252  1  0.610772  0.612243  0.559725  1
  Si  Si253  1  0.387887  0.610609  0.651669  1
  Si  Si254  1  0.111849  0.612274  0.582675  1
  Si  Si255  1  0.388596  0.799936  0.681123  1
  Si  Si256  1  0.611550  0.799947  0.681128  1
  H  H257  1  0.829304  0.329253  0.092791  1
  H  H258  1  0.170769  0.329232  0.092783  1
  H  H259  1  0.829328  0.670672  0.092791  1
  H  H260  1  0.170746  0.670695  0.092784  1
  H  H261  1  0.329312  0.170561  0.721640  1
  H  H262  1  0.670805  0.170547  0.721645  1
  H  H263  1  0.329365  0.829111  0.721643  1
  H  H264  1  0.670762  0.829123  0.721651  1
