# generated using pymatgen
data_Si8H2O17
_symmetry_space_group_name_H-M   'P 1'
_cell_length_a   10.13906825
_cell_length_b   19.86355878
_cell_length_c   44.10802354
_cell_angle_alpha   134.96746613
_cell_angle_beta   90.00000000
_cell_angle_gamma   90.00000000
_symmetry_Int_Tables_number   1
_chemical_formula_structural   Si8H2O17
_chemical_formula_sum   'Si32 H8 O68'
_cell_volume   6284.98388968
_cell_formula_units_Z   4
loop_
 _symmetry_equiv_pos_site_id
 _symmetry_equiv_pos_as_xyz
  1  'x, y, z'
loop_
 _atom_site_type_symbol
 _atom_site_label
 _atom_site_symmetry_multiplicity
 _atom_site_fract_x
 _atom_site_fract_y
 _atom_site_fract_z
 _atom_site_occupancy
  O  O1  1  0.499990  0.326899  0.180626  1
  O  O2  1  0.000000  0.826916  0.180626  1
  O  O3  1  0.874449  0.868953  0.352977  1
  O  O4  1  0.000000  0.826900  0.388670  1
  O  O5  1  0.499994  0.673334  0.290876  1
  O  O6  1  0.125429  0.672699  0.352878  1
  O  O7  1  0.625538  0.827531  0.326662  1
  O  O8  1  0.125554  0.868951  0.352998  1
  O  O9  1  0.374457  0.827533  0.326669  1
  O  O10  1  0.874347  0.672710  0.352890  1
  O  O11  1  0.000000  0.756812  0.421468  1
  O  O12  1  0.499935  0.500117  0.257977  1
  O  O13  1  0.217092  0.500118  0.301120  1
  O  O14  1  0.782698  0.500121  0.301136  1
  O  O15  1  0.625435  0.368954  0.243090  1
  O  O16  1  0.625435  0.631286  0.326576  1
  O  O17  1  0.374330  0.368950  0.243062  1
  O  O18  1  0.374329  0.631288  0.326548  1
  O  O19  1  0.717341  0.378863  0.301198  1
  O  O20  1  0.282508  0.378860  0.301177  1
  O  O21  1  0.282514  0.621389  0.378359  1
  O  O22  1  0.717346  0.621388  0.378381  1
  O  O23  1  0.000000  0.000000  0.421575  1
  O  O24  1  0.499990  0.326899  0.498883  1
  O  O25  1  0.000000  0.173334  0.180674  1
  O  O26  1  0.125561  0.131289  0.436497  1
  O  O27  1  0.625543  0.172708  0.436519  1
  O  O28  1  0.125429  0.327534  0.243030  1
  O  O29  1  0.874455  0.131285  0.436467  1
  O  O30  1  0.874346  0.327531  0.243037  1
  O  O31  1  0.374462  0.172701  0.436525  1
  O  O32  1  0.282797  -0.000000  0.378432  1
  O  O33  1  0.717190  0.000000  0.378418  1
  O  O34  1  0.000000  0.243438  0.258088  1
  O  O35  1  0.000000  0.826916  0.498883  1
  O  O36  1  0.499897  0.673351  0.180674  1
  O  O37  1  0.217389  0.878863  0.301193  1
  O  O38  1  0.125513  0.868964  0.243083  1
  O  O39  1  0.125501  0.672715  0.436517  1
  O  O40  1  0.625506  0.827526  0.243023  1
  O  O41  1  0.874407  0.868963  0.243069  1
  O  O42  1  0.374425  0.827565  0.243045  1
  O  O43  1  0.874419  0.672720  0.436529  1
  O  O44  1  0.782556  0.878860  0.301175  1
  O  O45  1  0.499971  0.743438  0.258084  1
  O  O46  1  0.499912  0.500133  0.421580  1
  O  O47  1  0.217157  0.500133  0.378421  1
  O  O48  1  0.782763  0.500129  0.378437  1
  O  O49  1  0.625517  0.631295  0.436491  1
  O  O50  1  0.625503  0.368966  0.353005  1
  O  O51  1  0.374412  0.631301  0.436470  1
  O  O52  1  0.374397  0.368961  0.352985  1
  O  O53  1  0.282742  -0.000000  0.301143  1
  O  O54  1  0.000000  -0.000000  0.257982  1
  O  O55  1  0.499907  0.326916  0.388681  1
  O  O56  1  0.000000  0.173351  0.290887  1
  O  O57  1  0.625470  0.172714  0.352885  1
  O  O58  1  0.125485  0.327557  0.326672  1
  O  O59  1  0.125478  0.131303  0.326583  1
  O  O60  1  0.874404  0.327535  0.326675  1
  O  O61  1  0.374389  0.172722  0.352898  1
  O  O62  1  0.874373  0.131293  0.326556  1
  O  O63  1  0.217376  0.121392  0.378386  1
  O  O64  1  0.782543  0.121385  0.378361  1
  O  O65  1  0.717136  0.000000  0.301121  1
  O  O66  1  0.499969  0.256812  0.421473  1
  O  O67  1  0.000000  0.173334  0.498931  1
  O  O68  1  0.499897  0.673351  0.498931  1
  Si  Si69  1  0.749920  0.890786  0.339814  1
  Si  Si70  1  0.250064  0.890785  0.339829  1
  Si  Si71  1  0.499993  0.765414  0.300060  1
  Si  Si72  1  0.000000  0.890348  0.379590  1
  Si  Si73  1  0.000000  0.734824  0.379490  1
  Si  Si74  1  0.249827  0.609453  0.339719  1
  Si  Si75  1  0.749967  0.390787  0.270149  1
  Si  Si76  1  0.499921  0.390348  0.230092  1
  Si  Si77  1  0.499925  0.609889  0.299959  1
  Si  Si78  1  0.749967  0.609456  0.339739  1
  Si  Si79  1  0.249824  0.390784  0.270130  1
  Si  Si80  1  0.250063  0.109454  0.409427  1
  Si  Si81  1  0.000000  0.109889  0.449465  1
  Si  Si82  1  0.499994  0.234824  0.449456  1
  Si  Si83  1  0.000000  0.265414  0.230101  1
  Si  Si84  1  0.749923  0.109454  0.409407  1
  Si  Si85  1  0.000000  0.890361  0.230093  1
  Si  Si86  1  0.000000  0.734837  0.449457  1
  Si  Si87  1  0.499951  0.765426  0.230101  1
  Si  Si88  1  0.749887  0.890790  0.270130  1
  Si  Si89  1  0.250027  0.890803  0.270150  1
  Si  Si90  1  0.249879  0.390797  0.339819  1
  Si  Si91  1  0.750030  0.609463  0.409427  1
  Si  Si92  1  0.499930  0.609902  0.449464  1
  Si  Si93  1  0.499923  0.390361  0.379598  1
  Si  Si94  1  0.750019  0.390795  0.339836  1
  Si  Si95  1  0.249887  0.609466  0.409408  1
  Si  Si96  1  0.749861  0.109458  0.339724  1
  Si  Si97  1  0.250004  0.109471  0.339748  1
  Si  Si98  1  0.000000  0.109902  0.299967  1
  Si  Si99  1  0.499938  0.234836  0.379498  1
  Si  Si100  1  0.000000  0.265426  0.300067  1
  H  H101  1  0.499990  0.326899  0.160222  1
  H  H102  1  0.000000  0.826916  0.160222  1
  H  H103  1  0.499990  0.326899  0.519287  1
  H  H104  1  0.000000  0.173334  0.160270  1
  H  H105  1  0.000000  0.826916  0.519288  1
  H  H106  1  0.499897  0.673351  0.160270  1
  H  H107  1  0.000000  0.173334  0.519335  1
  H  H108  1  0.499897  0.673351  0.519335  1
