# generated using pymatgen
data_Si54H2O109
_symmetry_space_group_name_H-M   'P 1'
_cell_length_a   13.73003562
_cell_length_b   17.33827655
_cell_length_c   74.99103551
_cell_angle_alpha   90.00000000
_cell_angle_beta   90.00000000
_cell_angle_gamma   90.00000000
_symmetry_Int_Tables_number   1
_chemical_formula_structural   Si54H2O109
_chemical_formula_sum   'Si216 H8 O436'
_cell_volume   17852.0025547
_cell_formula_units_Z   4
loop_
 _symmetry_equiv_pos_site_id
 _symmetry_equiv_pos_as_xyz
  1  'x, y, z'
loop_
 _atom_site_type_symbol
 _atom_site_label
 _atom_site_symmetry_multiplicity
 _atom_site_fract_x
 _atom_site_fract_y
 _atom_site_fract_z
 _atom_site_occupancy
  O  O1  1  0.000000  0.141976  0.122003  1
  O  O2  1  0.500125  0.357878  0.122007  1
  O  O3  1  0.000000  0.357907  0.153574  1
  O  O4  1  0.500106  0.141976  0.153581  1
  O  O5  1  0.124492  0.071924  0.140739  1
  O  O6  1  0.875674  0.071945  0.140731  1
  O  O7  1  0.624533  0.427927  0.140735  1
  O  O8  1  0.375716  0.427923  0.140745  1
  O  O9  1  0.875695  0.427925  0.134845  1
  O  O10  1  0.124541  0.427952  0.134836  1
  O  O11  1  0.375670  0.071957  0.134854  1
  O  O12  1  0.624511  0.071945  0.134841  1
  O  O13  1  0.180548  0.196423  0.126453  1
  O  O14  1  0.819678  0.196430  0.126455  1
  O  O15  1  0.680565  0.303436  0.126457  1
  O  O16  1  0.319714  0.303403  0.126457  1
  O  O17  1  0.819709  0.303435  0.149133  1
  O  O18  1  0.180560  0.303442  0.149127  1
  O  O19  1  0.319657  0.196411  0.149139  1
  O  O20  1  0.680557  0.196432  0.149135  1
  O  O21  1  0.149026  0.071827  0.107798  1
  O  O22  1  0.851158  0.071832  0.107795  1
  O  O23  1  0.649044  0.428031  0.107800  1
  O  O24  1  0.351164  0.428013  0.107804  1
  O  O25  1  0.809419  0.499936  0.107066  1
  O  O26  1  0.190786  0.499950  0.107065  1
  O  O27  1  0.000000  0.499932  0.116559  1
  O  O28  1  0.696288  0.499907  0.078682  1
  O  O29  1  0.303862  0.499887  0.078684  1
  O  O30  1  0.648927  0.071806  0.226007  1
  O  O31  1  0.351041  0.071790  0.226008  1
  O  O32  1  0.148941  0.428022  0.226015  1
  O  O33  1  0.851091  0.428033  0.226012  1
  O  O34  1  0.851203  0.428051  0.167783  1
  O  O35  1  0.149069  0.428057  0.167776  1
  O  O36  1  0.351181  0.071790  0.167788  1
  O  O37  1  0.649031  0.071805  0.167781  1
  O  O38  1  0.196276  0.499906  0.196897  1
  O  O39  1  0.500083  0.499951  0.159018  1
  O  O40  1  0.690685  0.499879  0.225282  1
  O  O41  1  0.500050  0.499847  0.234779  1
  O  O42  1  0.690796  0.499935  0.168510  1
  O  O43  1  0.309349  0.499872  0.225282  1
  O  O44  1  0.309449  0.499948  0.168518  1
  O  O45  1  0.803819  0.499928  0.196898  1
  O  O46  1  0.499983  0.141955  0.240212  1
  O  O47  1  0.000000  0.357878  0.240220  1
  O  O48  1  0.500001  0.357825  0.271797  1
  O  O49  1  0.000000  0.141915  0.271781  1
  O  O50  1  0.624405  0.071918  0.258948  1
  O  O51  1  0.375573  0.071906  0.258947  1
  O  O52  1  0.124411  0.427920  0.258958  1
  O  O53  1  0.875591  0.427914  0.258948  1
  O  O54  1  0.375577  0.427838  0.253065  1
  O  O55  1  0.624420  0.427856  0.253063  1
  O  O56  1  0.875589  0.071862  0.253044  1
  O  O57  1  0.124392  0.071864  0.253047  1
  O  O58  1  0.680418  0.196419  0.244659  1
  O  O59  1  0.319543  0.196404  0.244661  1
  O  O60  1  0.180424  0.303415  0.244669  1
  O  O61  1  0.819563  0.303425  0.244664  1
  O  O62  1  0.319554  0.303373  0.267347  1
  O  O63  1  0.680447  0.303381  0.267347  1
  O  O64  1  0.819569  0.196381  0.267332  1
  O  O65  1  0.180410  0.196374  0.267338  1
  O  O66  1  0.351063  0.427986  0.285999  1
  O  O67  1  0.648940  0.427994  0.286002  1
  O  O68  1  0.851057  0.071775  0.285984  1
  O  O69  1  0.148911  0.071768  0.285989  1
  O  O70  1  0.809330  0.499911  0.286726  1
  O  O71  1  -0.000000  0.499929  0.277235  1
  O  O72  1  0.190678  0.499900  0.286735  1
  O  O73  1  0.500094  0.641986  0.122003  1
  O  O74  1  -0.000000  0.857918  0.121990  1
  O  O75  1  0.500096  0.857873  0.153568  1
  O  O76  1  -0.000000  0.641982  0.153579  1
  O  O77  1  0.624533  0.571960  0.140731  1
  O  O78  1  0.375688  0.571924  0.140738  1
  O  O79  1  0.124498  0.927918  0.140731  1
  O  O80  1  0.875661  0.927909  0.140725  1
  O  O81  1  0.375671  0.927914  0.134843  1
  O  O82  1  0.624499  0.927931  0.134836  1
  O  O83  1  0.875686  0.571952  0.134846  1
  O  O84  1  0.124494  0.571949  0.134839  1
  O  O85  1  0.680546  0.696431  0.126441  1
  O  O86  1  0.319633  0.696408  0.126444  1
  O  O87  1  0.180516  0.803430  0.126443  1
  O  O88  1  0.819686  0.803430  0.126441  1
  O  O89  1  0.319663  0.803422  0.149119  1
  O  O90  1  0.680541  0.803431  0.149118  1
  O  O91  1  0.819665  0.696433  0.149124  1
  O  O92  1  0.180519  0.696445  0.149126  1
  O  O93  1  0.649011  0.571812  0.107795  1
  O  O94  1  0.351202  0.571790  0.107797  1
  O  O95  1  0.149056  0.928053  0.107793  1
  O  O96  1  0.851129  0.928054  0.107790  1
  O  O97  1  0.309429  -0.000000  0.107065  1
  O  O98  1  0.690754  0.000000  0.107062  1
  O  O99  1  0.500132  0.000000  0.116560  1
  O  O100  1  0.196289  0.000000  0.078680  1
  O  O101  1  0.803816  0.000000  0.078676  1
  O  O102  1  0.148970  0.571792  0.226013  1
  O  O103  1  0.851066  0.571809  0.226012  1
  O  O104  1  0.648887  0.928026  0.226010  1
  O  O105  1  0.351103  0.928007  0.226012  1
  O  O106  1  0.351156  0.928010  0.167778  1
  O  O107  1  0.649018  0.928027  0.167773  1
  O  O108  1  0.851167  0.571830  0.167783  1
  O  O109  1  0.149049  0.571833  0.167781  1
  O  O110  1  -0.000000  -0.000000  0.159016  1
  O  O111  1  0.303809  -0.000000  0.196896  1
  O  O112  1  0.809415  -0.000000  0.168511  1
  O  O113  1  0.190678  0.000000  0.225278  1
  O  O114  1  -0.000000  -0.000000  0.234770  1
  O  O115  1  0.696244  0.000000  0.196892  1
  O  O116  1  0.809303  0.000000  0.225277  1
  O  O117  1  0.190767  -0.000000  0.168510  1
  O  O118  1  0.000000  0.641947  0.240215  1
  O  O119  1  0.500006  0.857834  0.240222  1
  O  O120  1  -0.000000  0.857838  0.271795  1
  O  O121  1  0.500001  0.641915  0.271791  1
  O  O122  1  0.124426  0.571919  0.258953  1
  O  O123  1  0.875586  0.571953  0.258947  1
  O  O124  1  0.624405  0.927919  0.258952  1
  O  O125  1  0.375592  0.927904  0.258951  1
  O  O126  1  0.875562  0.927846  0.253059  1
  O  O127  1  0.124412  0.927855  0.253061  1
  O  O128  1  0.375595  0.571881  0.253060  1
  O  O129  1  0.624410  0.571863  0.253057  1
  O  O130  1  0.180448  0.696400  0.244666  1
  O  O131  1  0.819576  0.696416  0.244662  1
  O  O132  1  0.680449  0.803414  0.244664  1
  O  O133  1  0.319562  0.803398  0.244666  1
  O  O134  1  0.819554  0.803381  0.267347  1
  O  O135  1  0.180439  0.803386  0.267348  1
  O  O136  1  0.319581  0.696380  0.267343  1
  O  O137  1  0.680418  0.696383  0.267338  1
  O  O138  1  0.851050  0.928000  0.285995  1
  O  O139  1  0.148935  0.927997  0.286000  1
  O  O140  1  0.351072  0.571768  0.285995  1
  O  O141  1  0.648937  0.571777  0.285997  1
  O  O142  1  0.690663  0.000000  0.286726  1
  O  O143  1  0.499993  -0.000000  0.277226  1
  O  O144  1  0.309320  -0.000000  0.286722  1
  O  O145  1  0.000000  0.141976  0.358433  1
  O  O146  1  0.500125  0.357878  0.358437  1
  O  O147  1  0.000000  0.357907  0.390004  1
  O  O148  1  0.500106  0.141976  0.390012  1
  O  O149  1  0.124492  0.071924  0.377169  1
  O  O150  1  0.875674  0.071945  0.377162  1
  O  O151  1  0.624533  0.427927  0.377165  1
  O  O152  1  0.375716  0.427923  0.377175  1
  O  O153  1  0.875695  0.427925  0.371275  1
  O  O154  1  0.124541  0.427952  0.371267  1
  O  O155  1  0.375670  0.071957  0.371284  1
  O  O156  1  0.624511  0.071945  0.371271  1
  O  O157  1  0.180548  0.196423  0.362884  1
  O  O158  1  0.819678  0.196430  0.362885  1
  O  O159  1  0.680565  0.303436  0.362888  1
  O  O160  1  0.319714  0.303403  0.362888  1
  O  O161  1  0.819709  0.303435  0.385564  1
  O  O162  1  0.180560  0.303442  0.385557  1
  O  O163  1  0.319657  0.196411  0.385569  1
  O  O164  1  0.680557  0.196432  0.385565  1
  O  O165  1  0.149026  0.071827  0.344228  1
  O  O166  1  0.851158  0.071832  0.344226  1
  O  O167  1  0.649044  0.428031  0.344230  1
  O  O168  1  0.351164  0.428013  0.344234  1
  O  O169  1  0.809419  0.499936  0.343496  1
  O  O170  1  0.190786  0.499950  0.343495  1
  O  O171  1  -0.000000  0.499932  0.352989  1
  O  O172  1  0.696288  0.499907  0.315112  1
  O  O173  1  0.303862  0.499887  0.315114  1
  O  O174  1  0.648927  0.071806  0.462437  1
  O  O175  1  0.351041  0.071790  0.462439  1
  O  O176  1  0.148941  0.428022  0.462445  1
  O  O177  1  0.851091  0.428033  0.462443  1
  O  O178  1  0.851203  0.428051  0.404213  1
  O  O179  1  0.149069  0.428057  0.404206  1
  O  O180  1  0.351181  0.071790  0.404218  1
  O  O181  1  0.649031  0.071805  0.404211  1
  O  O182  1  0.196276  0.499906  0.433327  1
  O  O183  1  0.500083  0.499951  0.395449  1
  O  O184  1  0.690685  0.499879  0.461713  1
  O  O185  1  0.500050  0.499847  0.471209  1
  O  O186  1  0.690796  0.499935  0.404940  1
  O  O187  1  0.309349  0.499872  0.461713  1
  O  O188  1  0.309449  0.499948  0.404948  1
  O  O189  1  0.803819  0.499928  0.433328  1
  O  O190  1  0.499983  0.141955  0.476642  1
  O  O191  1  0.000000  0.357878  0.476650  1
  O  O192  1  0.500001  0.357825  0.508227  1
  O  O193  1  0.000000  0.141915  0.508211  1
  O  O194  1  0.624405  0.071918  0.495378  1
  O  O195  1  0.375573  0.071906  0.495377  1
  O  O196  1  0.124411  0.427920  0.495388  1
  O  O197  1  0.875591  0.427914  0.495379  1
  O  O198  1  0.375577  0.427838  0.489496  1
  O  O199  1  0.624420  0.427856  0.489493  1
  O  O200  1  0.875589  0.071862  0.489474  1
  O  O201  1  0.124392  0.071864  0.489477  1
  O  O202  1  0.680418  0.196419  0.481089  1
  O  O203  1  0.319543  0.196404  0.481091  1
  O  O204  1  0.180424  0.303415  0.481099  1
  O  O205  1  0.819563  0.303425  0.481094  1
  O  O206  1  0.319554  0.303373  0.503778  1
  O  O207  1  0.680447  0.303381  0.503777  1
  O  O208  1  0.819569  0.196381  0.503762  1
  O  O209  1  0.180410  0.196374  0.503768  1
  O  O210  1  0.351063  0.427986  0.522429  1
  O  O211  1  0.648940  0.427994  0.522432  1
  O  O212  1  0.851057  0.071775  0.522414  1
  O  O213  1  0.148911  0.071768  0.522419  1
  O  O214  1  0.809330  0.499911  0.523156  1
  O  O215  1  0.000000  0.499929  0.513665  1
  O  O216  1  0.190678  0.499900  0.523165  1
  O  O217  1  0.500094  0.641986  0.358434  1
  O  O218  1  -0.000000  0.857918  0.358420  1
  O  O219  1  0.500096  0.857873  0.389998  1
  O  O220  1  -0.000000  0.641982  0.390010  1
  O  O221  1  0.624533  0.571960  0.377162  1
  O  O222  1  0.375688  0.571924  0.377169  1
  O  O223  1  0.124498  0.927918  0.377161  1
  O  O224  1  0.875661  0.927909  0.377156  1
  O  O225  1  0.375671  0.927914  0.371273  1
  O  O226  1  0.624499  0.927931  0.371266  1
  O  O227  1  0.875686  0.571952  0.371277  1
  O  O228  1  0.124494  0.571949  0.371270  1
  O  O229  1  0.680546  0.696431  0.362872  1
  O  O230  1  0.319633  0.696408  0.362875  1
  O  O231  1  0.180516  0.803430  0.362874  1
  O  O232  1  0.819686  0.803430  0.362872  1
  O  O233  1  0.319663  0.803422  0.385550  1
  O  O234  1  0.680541  0.803431  0.385548  1
  O  O235  1  0.819665  0.696433  0.385555  1
  O  O236  1  0.180519  0.696445  0.385556  1
  O  O237  1  0.649011  0.571812  0.344225  1
  O  O238  1  0.351202  0.571790  0.344227  1
  O  O239  1  0.149056  0.928053  0.344224  1
  O  O240  1  0.851129  0.928054  0.344220  1
  O  O241  1  0.309429  -0.000000  0.343496  1
  O  O242  1  0.690754  -0.000000  0.343492  1
  O  O243  1  0.500132  -0.000000  0.352991  1
  O  O244  1  0.196289  0.000000  0.315110  1
  O  O245  1  0.803816  -0.000000  0.315106  1
  O  O246  1  0.148970  0.571792  0.462443  1
  O  O247  1  0.851066  0.571809  0.462443  1
  O  O248  1  0.648887  0.928026  0.462440  1
  O  O249  1  0.351103  0.928007  0.462442  1
  O  O250  1  0.351156  0.928010  0.404208  1
  O  O251  1  0.649018  0.928027  0.404204  1
  O  O252  1  0.851167  0.571830  0.404213  1
  O  O253  1  0.149049  0.571833  0.404212  1
  O  O254  1  0.000000  -0.000000  0.395447  1
  O  O255  1  0.303809  -0.000000  0.433326  1
  O  O256  1  0.809415  -0.000000  0.404941  1
  O  O257  1  0.190678  0.000000  0.461708  1
  O  O258  1  0.000000  -0.000000  0.471200  1
  O  O259  1  0.696244  -0.000000  0.433323  1
  O  O260  1  0.809303  0.000000  0.461707  1
  O  O261  1  0.190767  -0.000000  0.404940  1
  O  O262  1  -0.000000  0.641947  0.476645  1
  O  O263  1  0.500006  0.857834  0.476652  1
  O  O264  1  0.000000  0.857838  0.508225  1
  O  O265  1  0.500001  0.641915  0.508222  1
  O  O266  1  0.124426  0.571919  0.495384  1
  O  O267  1  0.875586  0.571953  0.495377  1
  O  O268  1  0.624405  0.927919  0.495382  1
  O  O269  1  0.375592  0.927904  0.495381  1
  O  O270  1  0.875562  0.927846  0.489489  1
  O  O271  1  0.124412  0.927855  0.489492  1
  O  O272  1  0.375595  0.571881  0.489490  1
  O  O273  1  0.624410  0.571863  0.489487  1
  O  O274  1  0.180448  0.696400  0.481096  1
  O  O275  1  0.819576  0.696416  0.481093  1
  O  O276  1  0.680449  0.803414  0.481094  1
  O  O277  1  0.319562  0.803398  0.481097  1
  O  O278  1  0.819554  0.803381  0.503777  1
  O  O279  1  0.180439  0.803386  0.503779  1
  O  O280  1  0.319581  0.696380  0.503773  1
  O  O281  1  0.680418  0.696383  0.503769  1
  O  O282  1  0.851050  0.928000  0.522426  1
  O  O283  1  0.148935  0.927997  0.522430  1
  O  O284  1  0.351072  0.571768  0.522426  1
  O  O285  1  0.648937  0.571777  0.522427  1
  O  O286  1  0.690663  0.000000  0.523156  1
  O  O287  1  0.499993  -0.000000  0.513656  1
  O  O288  1  0.309320  -0.000000  0.523153  1
  O  O289  1  0.000000  0.141976  0.594863  1
  O  O290  1  0.500125  0.357878  0.594868  1
  O  O291  1  -0.000000  0.357907  0.626434  1
  O  O292  1  0.500106  0.141976  0.626442  1
  O  O293  1  0.124492  0.071924  0.613599  1
  O  O294  1  0.875674  0.071945  0.613592  1
  O  O295  1  0.624533  0.427927  0.613596  1
  O  O296  1  0.375716  0.427923  0.613606  1
  O  O297  1  0.875695  0.427925  0.607706  1
  O  O298  1  0.124541  0.427952  0.607697  1
  O  O299  1  0.375670  0.071957  0.607714  1
  O  O300  1  0.624511  0.071945  0.607702  1
  O  O301  1  0.180548  0.196423  0.599314  1
  O  O302  1  0.819678  0.196430  0.599315  1
  O  O303  1  0.680565  0.303436  0.599318  1
  O  O304  1  0.319714  0.303403  0.599318  1
  O  O305  1  0.819709  0.303435  0.621994  1
  O  O306  1  0.180560  0.303442  0.621987  1
  O  O307  1  0.319657  0.196411  0.622000  1
  O  O308  1  0.680557  0.196432  0.621996  1
  O  O309  1  0.149026  0.071827  0.580658  1
  O  O310  1  0.851158  0.071832  0.580656  1
  O  O311  1  0.649044  0.428031  0.580661  1
  O  O312  1  0.351164  0.428013  0.580664  1
  O  O313  1  0.809419  0.499936  0.579927  1
  O  O314  1  0.190786  0.499950  0.579926  1
  O  O315  1  -0.000000  0.499932  0.589419  1
  O  O316  1  0.696288  0.499907  0.551543  1
  O  O317  1  0.303862  0.499887  0.551544  1
  O  O318  1  0.648927  0.071806  0.698867  1
  O  O319  1  0.351041  0.071790  0.698869  1
  O  O320  1  0.148941  0.428022  0.698875  1
  O  O321  1  0.851091  0.428033  0.698873  1
  O  O322  1  0.851203  0.428051  0.640644  1
  O  O323  1  0.149069  0.428057  0.640637  1
  O  O324  1  0.351181  0.071790  0.640649  1
  O  O325  1  0.649031  0.071805  0.640641  1
  O  O326  1  0.196276  0.499906  0.669758  1
  O  O327  1  0.500083  0.499951  0.631879  1
  O  O328  1  0.690685  0.499879  0.698143  1
  O  O329  1  0.500050  0.499847  0.707639  1
  O  O330  1  0.690796  0.499935  0.641371  1
  O  O331  1  0.309349  0.499872  0.698143  1
  O  O332  1  0.309449  0.499948  0.641378  1
  O  O333  1  0.803819  0.499928  0.669758  1
  O  O334  1  0.499983  0.141955  0.713073  1
  O  O335  1  -0.000000  0.357878  0.713081  1
  O  O336  1  0.500001  0.357825  0.744658  1
  O  O337  1  0.000000  0.141915  0.744641  1
  O  O338  1  0.624405  0.071918  0.731809  1
  O  O339  1  0.375573  0.071906  0.731808  1
  O  O340  1  0.124411  0.427920  0.731818  1
  O  O341  1  0.875591  0.427914  0.731809  1
  O  O342  1  0.375577  0.427838  0.725926  1
  O  O343  1  0.624420  0.427856  0.725924  1
  O  O344  1  0.875589  0.071862  0.725905  1
  O  O345  1  0.124392  0.071864  0.725908  1
  O  O346  1  0.680418  0.196419  0.717519  1
  O  O347  1  0.319543  0.196404  0.717522  1
  O  O348  1  0.180424  0.303415  0.717529  1
  O  O349  1  0.819563  0.303425  0.717524  1
  O  O350  1  0.319554  0.303373  0.740208  1
  O  O351  1  0.680447  0.303381  0.740208  1
  O  O352  1  0.819569  0.196381  0.740192  1
  O  O353  1  0.180410  0.196374  0.740198  1
  O  O354  1  0.351063  0.427986  0.758859  1
  O  O355  1  0.648940  0.427994  0.758862  1
  O  O356  1  0.851057  0.071775  0.758845  1
  O  O357  1  0.148911  0.071768  0.758850  1
  O  O358  1  0.809330  0.499911  0.759586  1
  O  O359  1  -0.000000  0.499929  0.750096  1
  O  O360  1  0.190678  0.499900  0.759595  1
  O  O361  1  0.500094  0.641986  0.594864  1
  O  O362  1  -0.000000  0.857918  0.594851  1
  O  O363  1  0.500096  0.857873  0.626428  1
  O  O364  1  -0.000000  0.641982  0.626440  1
  O  O365  1  0.624533  0.571960  0.613592  1
  O  O366  1  0.375688  0.571924  0.613599  1
  O  O367  1  0.124498  0.927918  0.613591  1
  O  O368  1  0.875661  0.927909  0.613586  1
  O  O369  1  0.375671  0.927914  0.607704  1
  O  O370  1  0.624499  0.927931  0.607696  1
  O  O371  1  0.875686  0.571952  0.607707  1
  O  O372  1  0.124494  0.571949  0.607700  1
  O  O373  1  0.680546  0.696431  0.599302  1
  O  O374  1  0.319633  0.696408  0.599305  1
  O  O375  1  0.180516  0.803430  0.599304  1
  O  O376  1  0.819686  0.803430  0.599302  1
  O  O377  1  0.319663  0.803422  0.621980  1
  O  O378  1  0.680541  0.803431  0.621979  1
  O  O379  1  0.819665  0.696433  0.621985  1
  O  O380  1  0.180519  0.696445  0.621987  1
  O  O381  1  0.649011  0.571812  0.580656  1
  O  O382  1  0.351202  0.571790  0.580658  1
  O  O383  1  0.149056  0.928053  0.580654  1
  O  O384  1  0.851129  0.928054  0.580651  1
  O  O385  1  0.309429  0.000000  0.579926  1
  O  O386  1  0.690754  0.000000  0.579922  1
  O  O387  1  0.500132  0.000000  0.589421  1
  O  O388  1  0.196289  -0.000000  0.551541  1
  O  O389  1  0.803816  -0.000000  0.551537  1
  O  O390  1  0.148970  0.571792  0.698874  1
  O  O391  1  0.851066  0.571809  0.698873  1
  O  O392  1  0.648887  0.928026  0.698871  1
  O  O393  1  0.351103  0.928007  0.698872  1
  O  O394  1  0.351156  0.928010  0.640638  1
  O  O395  1  0.649018  0.928027  0.640634  1
  O  O396  1  0.851167  0.571830  0.640644  1
  O  O397  1  0.149049  0.571833  0.640642  1
  O  O398  1  -0.000000  0.000000  0.631877  1
  O  O399  1  0.303809  -0.000000  0.669757  1
  O  O400  1  0.809415  -0.000000  0.641372  1
  O  O401  1  0.190678  -0.000000  0.698138  1
  O  O402  1  0.000000  -0.000000  0.707630  1
  O  O403  1  0.696244  -0.000000  0.669753  1
  O  O404  1  0.809303  -0.000000  0.698138  1
  O  O405  1  0.190767  -0.000000  0.641370  1
  O  O406  1  -0.000000  0.641947  0.713075  1
  O  O407  1  0.500006  0.857834  0.713083  1
  O  O408  1  -0.000000  0.857838  0.744656  1
  O  O409  1  0.500001  0.641915  0.744652  1
  O  O410  1  0.124426  0.571919  0.731814  1
  O  O411  1  0.875586  0.571953  0.731807  1
  O  O412  1  0.624405  0.927919  0.731812  1
  O  O413  1  0.375592  0.927904  0.731812  1
  O  O414  1  0.875562  0.927846  0.725920  1
  O  O415  1  0.124412  0.927855  0.725922  1
  O  O416  1  0.375595  0.571881  0.725920  1
  O  O417  1  0.624410  0.571863  0.725917  1
  O  O418  1  0.180448  0.696400  0.717527  1
  O  O419  1  0.819576  0.696416  0.717523  1
  O  O420  1  0.680449  0.803414  0.717524  1
  O  O421  1  0.319562  0.803398  0.717527  1
  O  O422  1  0.819554  0.803381  0.740207  1
  O  O423  1  0.180439  0.803386  0.740209  1
  O  O424  1  0.319581  0.696380  0.740203  1
  O  O425  1  0.680418  0.696383  0.740199  1
  O  O426  1  0.851050  0.928000  0.758856  1
  O  O427  1  0.148935  0.927997  0.758861  1
  O  O428  1  0.351072  0.571768  0.758856  1
  O  O429  1  0.648937  0.571777  0.758857  1
  O  O430  1  0.690663  0.000000  0.759586  1
  O  O431  1  0.499993  -0.000000  0.750086  1
  O  O432  1  0.309320  -0.000000  0.759583  1
  O  O433  1  0.696288  0.499907  0.787973  1
  O  O434  1  0.303862  0.499887  0.787975  1
  O  O435  1  0.196289  -0.000000  0.787971  1
  O  O436  1  0.803816  0.000000  0.787967  1
  Si  Si437  1  0.750131  0.249934  0.137797  1
  Si  Si438  1  0.112556  0.123974  0.123676  1
  Si  Si439  1  0.887637  0.123961  0.123677  1
  Si  Si440  1  0.612583  0.375888  0.123680  1
  Si  Si441  1  0.387664  0.375878  0.123682  1
  Si  Si442  1  0.887674  0.375904  0.151904  1
  Si  Si443  1  0.112596  0.375909  0.151899  1
  Si  Si444  1  0.387645  0.123954  0.151911  1
  Si  Si445  1  0.612565  0.123977  0.151906  1
  Si  Si446  1  0.297807  0.499904  0.099438  1
  Si  Si447  1  0.250122  0.249914  0.137794  1
  Si  Si448  1  0.388824  0.499935  0.153286  1
  Si  Si449  1  0.702405  0.499924  0.099436  1
  Si  Si450  1  0.611436  0.499949  0.153283  1
  Si  Si451  1  0.888783  0.499933  0.122294  1
  Si  Si452  1  0.111397  0.499954  0.122293  1
  Si  Si453  1  0.202422  0.499943  0.176143  1
  Si  Si454  1  0.797800  0.499933  0.176144  1
  Si  Si455  1  0.797699  0.499915  0.217651  1
  Si  Si456  1  0.202333  0.499898  0.217650  1
  Si  Si457  1  0.249980  0.249893  0.256004  1
  Si  Si458  1  0.750003  0.249905  0.255999  1
  Si  Si459  1  0.388701  0.499858  0.240509  1
  Si  Si460  1  0.297705  0.499883  0.294361  1
  Si  Si461  1  0.612446  0.123957  0.241884  1
  Si  Si462  1  0.387522  0.123949  0.241884  1
  Si  Si463  1  0.112462  0.375881  0.241894  1
  Si  Si464  1  0.887544  0.375884  0.241892  1
  Si  Si465  1  0.387539  0.375833  0.270121  1
  Si  Si466  1  0.612460  0.375839  0.270124  1
  Si  Si467  1  0.887528  0.123916  0.270106  1
  Si  Si468  1  0.112445  0.123909  0.270109  1
  Si  Si469  1  0.888695  0.499928  0.271501  1
  Si  Si470  1  0.111302  0.499913  0.271505  1
  Si  Si471  1  0.611307  0.499863  0.240512  1
  Si  Si472  1  0.702320  0.499892  0.294360  1
  Si  Si473  1  0.250085  0.749930  0.137782  1
  Si  Si474  1  0.612556  0.623976  0.123672  1
  Si  Si475  1  0.387637  0.623960  0.123675  1
  Si  Si476  1  0.112553  0.875905  0.123670  1
  Si  Si477  1  0.887630  0.875912  0.123668  1
  Si  Si478  1  0.387635  0.875884  0.151895  1
  Si  Si479  1  0.612552  0.875888  0.151892  1
  Si  Si480  1  0.887637  0.623972  0.151903  1
  Si  Si481  1  0.112555  0.623981  0.151904  1
  Si  Si482  1  0.202414  -0.000000  0.099433  1
  Si  Si483  1  0.750116  0.749932  0.137781  1
  Si  Si484  1  0.797767  -0.000000  0.099431  1
  Si  Si485  1  0.888772  -0.000000  0.153285  1
  Si  Si486  1  0.611381  -0.000000  0.122293  1
  Si  Si487  1  0.111377  -0.000000  0.153282  1
  Si  Si488  1  0.388775  -0.000000  0.122292  1
  Si  Si489  1  0.702391  -0.000000  0.176141  1
  Si  Si490  1  0.297777  -0.000000  0.176143  1
  Si  Si491  1  0.297697  0.000000  0.217649  1
  Si  Si492  1  0.702288  -0.000000  0.217647  1
  Si  Si493  1  0.749990  0.749894  0.256003  1
  Si  Si494  1  0.250012  0.749893  0.256007  1
  Si  Si495  1  0.111296  -0.000000  0.240506  1
  Si  Si496  1  0.112478  0.623932  0.241892  1
  Si  Si497  1  0.887557  0.623955  0.241890  1
  Si  Si498  1  0.612461  0.875865  0.241890  1
  Si  Si499  1  0.387547  0.875849  0.241890  1
  Si  Si500  1  0.887534  0.875846  0.270118  1
  Si  Si501  1  0.112455  0.875845  0.270122  1
  Si  Si502  1  0.387541  0.623911  0.270116  1
  Si  Si503  1  0.612459  0.623918  0.270117  1
  Si  Si504  1  0.202314  0.000000  0.294356  1
  Si  Si505  1  0.888683  -0.000000  0.240503  1
  Si  Si506  1  0.388682  0.000000  0.271493  1
  Si  Si507  1  0.611303  0.000000  0.271494  1
  Si  Si508  1  0.797684  -0.000000  0.294354  1
  Si  Si509  1  0.750131  0.249934  0.374227  1
  Si  Si510  1  0.112556  0.123974  0.360107  1
  Si  Si511  1  0.887637  0.123961  0.360107  1
  Si  Si512  1  0.612583  0.375888  0.360110  1
  Si  Si513  1  0.387664  0.375878  0.360112  1
  Si  Si514  1  0.887674  0.375904  0.388335  1
  Si  Si515  1  0.112596  0.375909  0.388329  1
  Si  Si516  1  0.387645  0.123954  0.388341  1
  Si  Si517  1  0.612565  0.123977  0.388337  1
  Si  Si518  1  0.297807  0.499904  0.335868  1
  Si  Si519  1  0.250122  0.249914  0.374224  1
  Si  Si520  1  0.388824  0.499935  0.389716  1
  Si  Si521  1  0.702405  0.499924  0.335866  1
  Si  Si522  1  0.611436  0.499949  0.389713  1
  Si  Si523  1  0.888783  0.499933  0.358724  1
  Si  Si524  1  0.111397  0.499954  0.358723  1
  Si  Si525  1  0.202422  0.499943  0.412574  1
  Si  Si526  1  0.797800  0.499933  0.412574  1
  Si  Si527  1  0.797699  0.499915  0.454081  1
  Si  Si528  1  0.202333  0.499898  0.454080  1
  Si  Si529  1  0.249980  0.249893  0.492434  1
  Si  Si530  1  0.750003  0.249905  0.492429  1
  Si  Si531  1  0.388701  0.499858  0.476940  1
  Si  Si532  1  0.297705  0.499883  0.530792  1
  Si  Si533  1  0.612446  0.123957  0.478315  1
  Si  Si534  1  0.387522  0.123949  0.478314  1
  Si  Si535  1  0.112462  0.375881  0.478324  1
  Si  Si536  1  0.887544  0.375884  0.478323  1
  Si  Si537  1  0.387539  0.375833  0.506552  1
  Si  Si538  1  0.612460  0.375839  0.506554  1
  Si  Si539  1  0.887528  0.123916  0.506536  1
  Si  Si540  1  0.112445  0.123909  0.506540  1
  Si  Si541  1  0.888695  0.499928  0.507931  1
  Si  Si542  1  0.111302  0.499913  0.507935  1
  Si  Si543  1  0.611307  0.499863  0.476943  1
  Si  Si544  1  0.702320  0.499892  0.530790  1
  Si  Si545  1  0.250085  0.749930  0.374212  1
  Si  Si546  1  0.612556  0.623976  0.360102  1
  Si  Si547  1  0.387637  0.623960  0.360105  1
  Si  Si548  1  0.112553  0.875905  0.360100  1
  Si  Si549  1  0.887630  0.875912  0.360098  1
  Si  Si550  1  0.387635  0.875884  0.388326  1
  Si  Si551  1  0.612552  0.875888  0.388323  1
  Si  Si552  1  0.887637  0.623972  0.388333  1
  Si  Si553  1  0.112555  0.623981  0.388335  1
  Si  Si554  1  0.202414  -0.000000  0.335863  1
  Si  Si555  1  0.750116  0.749932  0.374211  1
  Si  Si556  1  0.797767  -0.000000  0.335861  1
  Si  Si557  1  0.888772  0.000000  0.389716  1
  Si  Si558  1  0.611381  -0.000000  0.358723  1
  Si  Si559  1  0.111377  -0.000000  0.389712  1
  Si  Si560  1  0.388775  -0.000000  0.358723  1
  Si  Si561  1  0.702391  -0.000000  0.412571  1
  Si  Si562  1  0.297777  -0.000000  0.412573  1
  Si  Si563  1  0.297697  0.000000  0.454080  1
  Si  Si564  1  0.702288  0.000000  0.454078  1
  Si  Si565  1  0.749990  0.749894  0.492433  1
  Si  Si566  1  0.250012  0.749893  0.492438  1
  Si  Si567  1  0.111296  -0.000000  0.476936  1
  Si  Si568  1  0.112478  0.623932  0.478322  1
  Si  Si569  1  0.887557  0.623955  0.478320  1
  Si  Si570  1  0.612461  0.875865  0.478320  1
  Si  Si571  1  0.387547  0.875849  0.478320  1
  Si  Si572  1  0.887534  0.875846  0.506549  1
  Si  Si573  1  0.112455  0.875845  0.506552  1
  Si  Si574  1  0.387541  0.623911  0.506546  1
  Si  Si575  1  0.612459  0.623918  0.506547  1
  Si  Si576  1  0.202314  0.000000  0.530786  1
  Si  Si577  1  0.888683  -0.000000  0.476933  1
  Si  Si578  1  0.388682  -0.000000  0.507923  1
  Si  Si579  1  0.611303  -0.000000  0.507924  1
  Si  Si580  1  0.797684  -0.000000  0.530784  1
  Si  Si581  1  0.750131  0.249934  0.610658  1
  Si  Si582  1  0.112556  0.123974  0.596537  1
  Si  Si583  1  0.887637  0.123961  0.596538  1
  Si  Si584  1  0.612583  0.375888  0.596540  1
  Si  Si585  1  0.387664  0.375878  0.596542  1
  Si  Si586  1  0.887674  0.375904  0.624765  1
  Si  Si587  1  0.112596  0.375909  0.624759  1
  Si  Si588  1  0.387645  0.123954  0.624772  1
  Si  Si589  1  0.612565  0.123977  0.624767  1
  Si  Si590  1  0.297807  0.499904  0.572299  1
  Si  Si591  1  0.250122  0.249914  0.610655  1
  Si  Si592  1  0.388824  0.499935  0.626147  1
  Si  Si593  1  0.702405  0.499924  0.572297  1
  Si  Si594  1  0.611436  0.499949  0.626143  1
  Si  Si595  1  0.888783  0.499933  0.595154  1
  Si  Si596  1  0.111397  0.499954  0.595154  1
  Si  Si597  1  0.202422  0.499943  0.649004  1
  Si  Si598  1  0.797800  0.499933  0.649004  1
  Si  Si599  1  0.797699  0.499915  0.690511  1
  Si  Si600  1  0.202333  0.499898  0.690511  1
  Si  Si601  1  0.249980  0.249893  0.728865  1
  Si  Si602  1  0.750003  0.249905  0.728860  1
  Si  Si603  1  0.388701  0.499858  0.713370  1
  Si  Si604  1  0.297705  0.499883  0.767222  1
  Si  Si605  1  0.612446  0.123957  0.714745  1
  Si  Si606  1  0.387522  0.123949  0.714745  1
  Si  Si607  1  0.112462  0.375881  0.714755  1
  Si  Si608  1  0.887544  0.375884  0.714753  1
  Si  Si609  1  0.387539  0.375833  0.742982  1
  Si  Si610  1  0.612460  0.375839  0.742985  1
  Si  Si611  1  0.887528  0.123916  0.742966  1
  Si  Si612  1  0.112445  0.123909  0.742970  1
  Si  Si613  1  0.888695  0.499928  0.744362  1
  Si  Si614  1  0.111302  0.499913  0.744365  1
  Si  Si615  1  0.611307  0.499863  0.713373  1
  Si  Si616  1  0.702320  0.499892  0.767221  1
  Si  Si617  1  0.250085  0.749930  0.610643  1
  Si  Si618  1  0.612556  0.623976  0.596533  1
  Si  Si619  1  0.387637  0.623960  0.596535  1
  Si  Si620  1  0.112553  0.875905  0.596531  1
  Si  Si621  1  0.887630  0.875912  0.596528  1
  Si  Si622  1  0.387635  0.875884  0.624756  1
  Si  Si623  1  0.612552  0.875888  0.624753  1
  Si  Si624  1  0.887637  0.623972  0.624763  1
  Si  Si625  1  0.112555  0.623981  0.624765  1
  Si  Si626  1  0.202414  -0.000000  0.572293  1
  Si  Si627  1  0.750116  0.749932  0.610641  1
  Si  Si628  1  0.797767  0.000000  0.572291  1
  Si  Si629  1  0.888772  0.000000  0.626146  1
  Si  Si630  1  0.611381  -0.000000  0.595153  1
  Si  Si631  1  0.111377  -0.000000  0.626143  1
  Si  Si632  1  0.388775  -0.000000  0.595153  1
  Si  Si633  1  0.702391  -0.000000  0.649001  1
  Si  Si634  1  0.297777  0.000000  0.649003  1
  Si  Si635  1  0.297697  -0.000000  0.690510  1
  Si  Si636  1  0.702288  -0.000000  0.690508  1
  Si  Si637  1  0.749990  0.749894  0.728864  1
  Si  Si638  1  0.250012  0.749893  0.728868  1
  Si  Si639  1  0.111296  -0.000000  0.713366  1
  Si  Si640  1  0.112478  0.623932  0.714753  1
  Si  Si641  1  0.887557  0.623955  0.714750  1
  Si  Si642  1  0.612461  0.875865  0.714750  1
  Si  Si643  1  0.387547  0.875849  0.714751  1
  Si  Si644  1  0.887534  0.875846  0.742979  1
  Si  Si645  1  0.112455  0.875845  0.742982  1
  Si  Si646  1  0.387541  0.623911  0.742977  1
  Si  Si647  1  0.612459  0.623918  0.742978  1
  Si  Si648  1  0.202314  -0.000000  0.767216  1
  Si  Si649  1  0.888683  0.000000  0.713364  1
  Si  Si650  1  0.388682  -0.000000  0.744353  1
  Si  Si651  1  0.611303  0.000000  0.744354  1
  Si  Si652  1  0.797684  0.000000  0.767214  1
  H  H653  1  0.696288  0.499907  0.066681  1
  H  H654  1  0.303862  0.499887  0.066682  1
  H  H655  1  0.196289  -0.000000  0.066678  1
  H  H656  1  0.803816  0.000000  0.066675  1
  H  H657  1  0.696288  0.499907  0.799974  1
  H  H658  1  0.303862  0.499887  0.799976  1
  H  H659  1  0.196289  0.000000  0.799972  1
  H  H660  1  0.803816  -0.000000  0.799969  1
