# generated using pymatgen
data_Si12H2O25
_symmetry_space_group_name_H-M   'P 1'
_cell_length_a   23.54425957
_cell_length_b   24.66038491
_cell_length_c   64.72804805
_cell_angle_alpha   51.49964411
_cell_angle_beta   77.08305236
_cell_angle_gamma   38.67887552
_symmetry_Int_Tables_number   1
_chemical_formula_structural   Si12H2O25
_chemical_formula_sum   'Si120 H20 O250'
_cell_volume   15510.7425038
_cell_formula_units_Z   10
loop_
 _symmetry_equiv_pos_site_id
 _symmetry_equiv_pos_as_xyz
  1  'x, y, z'
loop_
 _atom_site_type_symbol
 _atom_site_label
 _atom_site_symmetry_multiplicity
 _atom_site_fract_x
 _atom_site_fract_y
 _atom_site_fract_z
 _atom_site_occupancy
  O  O1  1  0.093321  0.813304  0.130968  1
  O  O2  1  0.507193  0.318748  0.130873  1
  O  O3  1  0.497708  0.998803  0.148436  1
  O  O4  1  0.594205  0.812921  0.131114  1
  O  O5  1  0.007276  0.318756  0.130874  1
  O  O6  1  0.298515  0.542402  0.240884  1
  O  O7  1  0.388859  0.336452  0.281051  1
  O  O8  1  0.110866  0.663720  0.173284  1
  O  O9  1  0.123725  0.648929  0.230042  1
  O  O10  1  0.376006  0.351234  0.224296  1
  O  O11  1  0.093321  0.813304  0.286828  1
  O  O12  1  0.286460  0.556641  0.182504  1
  O  O13  1  0.155449  0.706539  0.186475  1
  O  O14  1  0.107675  0.795080  0.205590  1
  O  O15  1  0.068612  0.617046  0.215295  1
  O  O16  1  0.431118  0.383120  0.239043  1
  O  O17  1  0.026313  0.970406  0.194350  1
  O  O18  1  0.007197  0.666751  0.247821  1
  O  O19  1  0.492541  0.333393  0.206521  1
  O  O20  1  0.701216  0.139684  0.225724  1
  O  O21  1  0.888864  0.885714  0.216617  1
  O  O22  1  0.610868  0.114426  0.237727  1
  O  O23  1  0.623726  0.103508  0.184975  1
  O  O24  1  0.876002  0.896633  0.269367  1
  O  O25  1  0.906405  0.000000  0.179769  1
  O  O26  1  0.713272  0.129823  0.171100  1
  O  O27  1  0.844284  0.017694  0.215912  1
  O  O28  1  0.892052  0.010683  0.249922  1
  O  O29  1  0.568613  0.245613  0.182546  1
  O  O30  1  0.931119  0.754525  0.271799  1
  O  O31  1  0.973382  0.023335  0.264031  1
  O  O32  1  0.507193  0.318748  0.286734  1
  O  O33  1  0.992537  0.681405  0.167608  1
  O  O34  1  0.201024  0.139766  0.225820  1
  O  O35  1  0.201213  0.457767  0.213453  1
  O  O36  1  0.406419  0.186855  0.167508  1
  O  O37  1  0.405440  0.001696  0.179619  1
  O  O38  1  0.213272  0.443520  0.271833  1
  O  O39  1  0.213445  0.129745  0.171153  1
  O  O40  1  0.344283  0.293620  0.267863  1
  O  O41  1  0.343949  0.017723  0.216004  1
  O  O42  1  0.392032  0.205109  0.248737  1
  O  O43  1  0.393199  0.009350  0.250021  1
  O  O44  1  0.473373  0.029829  0.259955  1
  O  O45  1  0.497708  0.998803  0.304296  1
  O  O46  1  0.798519  0.860454  0.228619  1
  O  O47  1  0.798617  0.542154  0.241037  1
  O  O48  1  0.594205  0.812921  0.286974  1
  O  O49  1  0.593305  0.000000  0.274568  1
  O  O50  1  0.786194  0.556989  0.182495  1
  O  O51  1  0.786456  0.870317  0.283243  1
  O  O52  1  0.655691  0.705970  0.186668  1
  O  O53  1  0.655448  0.982445  0.238431  1
  O  O54  1  0.501996  0.994520  0.227033  1
  O  O55  1  0.606445  0.796085  0.205336  1
  O  O56  1  0.607695  0.989440  0.204420  1
  O  O57  1  0.526304  0.976895  0.190276  1
  O  O58  1  0.298616  0.860496  0.228498  1
  O  O59  1  0.389164  0.885586  0.216609  1
  O  O60  1  0.110479  0.114673  0.237708  1
  O  O61  1  0.123876  0.103613  0.184900  1
  O  O62  1  0.375764  0.896646  0.269419  1
  O  O63  1  0.094196  0.998572  0.274698  1
  O  O64  1  0.286194  0.870515  0.283164  1
  O  O65  1  0.155687  0.982537  0.238313  1
  O  O66  1  0.001942  0.001403  0.150020  1
  O  O67  1  0.106455  0.990898  0.204295  1
  O  O68  1  0.068620  0.245666  0.182557  1
  O  O69  1  0.431019  0.754598  0.271760  1
  O  O70  1  0.007276  0.318756  0.286735  1
  O  O71  1  0.492358  0.681497  0.167585  1
  O  O72  1  0.701021  0.458084  0.213287  1
  O  O73  1  0.889165  0.335969  0.281147  1
  O  O74  1  0.610476  0.664266  0.173177  1
  O  O75  1  0.623880  0.648511  0.230166  1
  O  O76  1  0.875765  0.351717  0.224159  1
  O  O77  1  0.905451  0.187300  0.167351  1
  O  O78  1  0.713448  0.443242  0.271830  1
  O  O79  1  0.843951  0.294263  0.267656  1
  O  O80  1  0.893188  0.204157  0.248986  1
  O  O81  1  0.568620  0.616982  0.215281  1
  O  O82  1  0.931019  0.383253  0.239044  1
  O  O83  1  0.507277  0.666572  0.247843  1
  O  O84  1  0.992360  0.333678  0.206479  1
  O  O85  1  0.997724  0.005615  0.227294  1
  O  O86  1  0.298515  0.542402  0.396744  1
  O  O87  1  0.388859  0.336452  0.436911  1
  O  O88  1  0.110866  0.663720  0.329144  1
  O  O89  1  0.123725  0.648929  0.385903  1
  O  O90  1  0.376006  0.351234  0.380156  1
  O  O91  1  0.093321  0.813304  0.442688  1
  O  O92  1  0.286460  0.556641  0.338364  1
  O  O93  1  0.155449  0.706539  0.342335  1
  O  O94  1  0.107675  0.795080  0.361450  1
  O  O95  1  0.068612  0.617046  0.371155  1
  O  O96  1  0.431118  0.383120  0.394903  1
  O  O97  1  0.026313  0.970406  0.350210  1
  O  O98  1  0.007197  0.666751  0.403681  1
  O  O99  1  0.492541  0.333393  0.362381  1
  O  O100  1  0.701216  0.139684  0.381584  1
  O  O101  1  0.888864  0.885714  0.372477  1
  O  O102  1  0.610868  0.114426  0.393587  1
  O  O103  1  0.623726  0.103508  0.340835  1
  O  O104  1  0.876002  0.896633  0.425228  1
  O  O105  1  0.906405  0.000000  0.335629  1
  O  O106  1  0.713272  0.129823  0.326961  1
  O  O107  1  0.844284  0.017694  0.371772  1
  O  O108  1  0.892052  0.010683  0.405782  1
  O  O109  1  0.568613  0.245613  0.338406  1
  O  O110  1  0.931119  0.754525  0.427659  1
  O  O111  1  0.973382  0.023335  0.419891  1
  O  O112  1  0.507193  0.318748  0.442594  1
  O  O113  1  0.992537  0.681405  0.323468  1
  O  O114  1  0.201024  0.139766  0.381680  1
  O  O115  1  0.201213  0.457767  0.369313  1
  O  O116  1  0.406419  0.186855  0.323369  1
  O  O117  1  0.405440  0.001696  0.335479  1
  O  O118  1  0.213272  0.443520  0.427693  1
  O  O119  1  0.213445  0.129745  0.327013  1
  O  O120  1  0.344283  0.293620  0.423723  1
  O  O121  1  0.343949  0.017723  0.371865  1
  O  O122  1  0.392032  0.205109  0.404598  1
  O  O123  1  0.393199  0.009350  0.405881  1
  O  O124  1  0.473373  0.029829  0.415816  1
  O  O125  1  0.497708  0.998803  0.460156  1
  O  O126  1  0.798519  0.860454  0.384479  1
  O  O127  1  0.798617  0.542154  0.396897  1
  O  O128  1  0.594205  0.812921  0.442834  1
  O  O129  1  0.593305  0.000000  0.430428  1
  O  O130  1  0.786194  0.556989  0.338355  1
  O  O131  1  0.786456  0.870317  0.439104  1
  O  O132  1  0.655691  0.705970  0.342528  1
  O  O133  1  0.655448  0.982445  0.394291  1
  O  O134  1  0.501996  0.994520  0.382894  1
  O  O135  1  0.606445  0.796085  0.361196  1
  O  O136  1  0.607695  0.989440  0.360280  1
  O  O137  1  0.526304  0.976895  0.346136  1
  O  O138  1  0.298616  0.860496  0.384358  1
  O  O139  1  0.389164  0.885586  0.372469  1
  O  O140  1  0.110479  0.114673  0.393568  1
  O  O141  1  0.123876  0.103613  0.340760  1
  O  O142  1  0.375764  0.896646  0.425279  1
  O  O143  1  0.094196  0.998572  0.430558  1
  O  O144  1  0.286194  0.870515  0.439025  1
  O  O145  1  0.155687  0.982537  0.394174  1
  O  O146  1  0.001942  0.001403  0.305880  1
  O  O147  1  0.106455  0.990898  0.360156  1
  O  O148  1  0.068620  0.245666  0.338417  1
  O  O149  1  0.431019  0.754598  0.427621  1
  O  O150  1  0.007276  0.318756  0.442595  1
  O  O151  1  0.492358  0.681497  0.323445  1
  O  O152  1  0.701021  0.458084  0.369147  1
  O  O153  1  0.889165  0.335969  0.437008  1
  O  O154  1  0.610476  0.664266  0.329037  1
  O  O155  1  0.623880  0.648511  0.386026  1
  O  O156  1  0.875765  0.351717  0.380019  1
  O  O157  1  0.905451  0.187300  0.323211  1
  O  O158  1  0.713448  0.443242  0.427690  1
  O  O159  1  0.843951  0.294263  0.423517  1
  O  O160  1  0.893188  0.204157  0.404846  1
  O  O161  1  0.568620  0.616982  0.371141  1
  O  O162  1  0.931019  0.383253  0.394904  1
  O  O163  1  0.507277  0.666572  0.403703  1
  O  O164  1  0.992360  0.333678  0.362339  1
  O  O165  1  0.997724  0.005615  0.383154  1
  O  O166  1  0.298515  0.542402  0.552604  1
  O  O167  1  0.388859  0.336452  0.592771  1
  O  O168  1  0.110866  0.663720  0.485004  1
  O  O169  1  0.123725  0.648929  0.541763  1
  O  O170  1  0.376006  0.351234  0.536016  1
  O  O171  1  0.093321  0.813304  0.598548  1
  O  O172  1  0.286460  0.556641  0.494225  1
  O  O173  1  0.155449  0.706539  0.498195  1
  O  O174  1  0.107675  0.795080  0.517311  1
  O  O175  1  0.068612  0.617046  0.527015  1
  O  O176  1  0.431118  0.383120  0.550763  1
  O  O177  1  0.026313  0.970406  0.506070  1
  O  O178  1  0.007197  0.666751  0.559542  1
  O  O179  1  0.492541  0.333393  0.518241  1
  O  O180  1  0.701216  0.139684  0.537445  1
  O  O181  1  0.888864  0.885714  0.528337  1
  O  O182  1  0.610868  0.114426  0.549447  1
  O  O183  1  0.623726  0.103508  0.496695  1
  O  O184  1  0.876002  0.896633  0.581088  1
  O  O185  1  0.906405  0.000000  0.491489  1
  O  O186  1  0.713272  0.129823  0.482821  1
  O  O187  1  0.844284  0.017694  0.527632  1
  O  O188  1  0.892052  0.010683  0.561642  1
  O  O189  1  0.568613  0.245613  0.494266  1
  O  O190  1  0.931119  0.754525  0.583519  1
  O  O191  1  0.973382  0.023335  0.575751  1
  O  O192  1  0.507193  0.318748  0.598454  1
  O  O193  1  0.992537  0.681405  0.479328  1
  O  O194  1  0.201024  0.139766  0.537541  1
  O  O195  1  0.201213  0.457767  0.525173  1
  O  O196  1  0.406419  0.186855  0.479229  1
  O  O197  1  0.405440  0.001696  0.491339  1
  O  O198  1  0.213272  0.443520  0.583554  1
  O  O199  1  0.213445  0.129745  0.482873  1
  O  O200  1  0.344283  0.293620  0.579583  1
  O  O201  1  0.343949  0.017723  0.527725  1
  O  O202  1  0.392032  0.205109  0.560458  1
  O  O203  1  0.393199  0.009350  0.561741  1
  O  O204  1  0.473373  0.029829  0.571676  1
  O  O205  1  0.497708  0.998803  0.616016  1
  O  O206  1  0.798519  0.860454  0.540339  1
  O  O207  1  0.798617  0.542154  0.552757  1
  O  O208  1  0.594205  0.812921  0.598694  1
  O  O209  1  0.593305  0.000000  0.586288  1
  O  O210  1  0.786194  0.556989  0.494216  1
  O  O211  1  0.786456  0.870317  0.594964  1
  O  O212  1  0.655691  0.705970  0.498388  1
  O  O213  1  0.655448  0.982445  0.550151  1
  O  O214  1  0.501996  0.994520  0.538754  1
  O  O215  1  0.606445  0.796085  0.517056  1
  O  O216  1  0.607695  0.989440  0.516141  1
  O  O217  1  0.526304  0.976895  0.501996  1
  O  O218  1  0.298616  0.860496  0.540218  1
  O  O219  1  0.389164  0.885586  0.528329  1
  O  O220  1  0.110479  0.114673  0.549428  1
  O  O221  1  0.123876  0.103613  0.496620  1
  O  O222  1  0.375764  0.896646  0.581140  1
  O  O223  1  0.094196  0.998572  0.586418  1
  O  O224  1  0.286194  0.870515  0.594885  1
  O  O225  1  0.155687  0.982537  0.550034  1
  O  O226  1  0.001942  0.001403  0.461741  1
  O  O227  1  0.106455  0.990898  0.516016  1
  O  O228  1  0.068620  0.245666  0.494277  1
  O  O229  1  0.431019  0.754598  0.583481  1
  O  O230  1  0.007276  0.318756  0.598455  1
  O  O231  1  0.492358  0.681497  0.479306  1
  O  O232  1  0.701021  0.458084  0.525007  1
  O  O233  1  0.889165  0.335969  0.592868  1
  O  O234  1  0.610476  0.664266  0.484897  1
  O  O235  1  0.623880  0.648511  0.541886  1
  O  O236  1  0.875765  0.351717  0.535879  1
  O  O237  1  0.905451  0.187300  0.479071  1
  O  O238  1  0.713448  0.443242  0.583550  1
  O  O239  1  0.843951  0.294263  0.579377  1
  O  O240  1  0.893188  0.204157  0.560706  1
  O  O241  1  0.568620  0.616982  0.527001  1
  O  O242  1  0.931019  0.383253  0.550764  1
  O  O243  1  0.507277  0.666572  0.559563  1
  O  O244  1  0.992360  0.333678  0.518199  1
  O  O245  1  0.997724  0.005615  0.539014  1
  O  O246  1  0.992537  0.681405  0.635189  1
  O  O247  1  0.406419  0.186855  0.635089  1
  O  O248  1  0.001942  0.001403  0.617601  1
  O  O249  1  0.492358  0.681497  0.635166  1
  O  O250  1  0.905451  0.187300  0.634932  1
  Si  Si251  1  0.009955  0.943496  0.181959  1
  Si  Si252  1  0.100108  0.593129  0.241979  1
  Si  Si253  1  0.399624  0.407032  0.212360  1
  Si  Si254  1  0.410436  0.394513  0.261957  1
  Si  Si255  1  0.089291  0.605656  0.192380  1
  Si  Si256  1  0.161493  0.687164  0.166665  1
  Si  Si257  1  0.172523  0.674198  0.216381  1
  Si  Si258  1  0.600108  0.206541  0.165679  1
  Si  Si259  1  0.899621  0.793598  0.288665  1
  Si  Si260  1  0.910441  0.784498  0.242436  1
  Si  Si261  1  0.589293  0.215641  0.211907  1
  Si  Si262  1  0.838238  0.010412  0.194217  1
  Si  Si263  1  0.827208  0.019496  0.240497  1
  Si  Si264  1  0.989754  0.963694  0.256742  1
  Si  Si265  1  0.338239  0.312998  0.287672  1
  Si  Si266  1  0.338395  0.010349  0.194295  1
  Si  Si267  1  0.327205  0.325968  0.237955  1
  Si  Si268  1  0.327013  0.019482  0.240594  1
  Si  Si269  1  0.489732  0.056702  0.272362  1
  Si  Si270  1  0.491590  0.962001  0.255888  1
  Si  Si271  1  0.509980  0.036457  0.197587  1
  Si  Si272  1  0.661245  0.687491  0.166689  1
  Si  Si273  1  0.661490  0.989732  0.260125  1
  Si  Si274  1  0.672628  0.673849  0.216538  1
  Si  Si275  1  0.672525  0.980641  0.213846  1
  Si  Si276  1  0.508073  0.945515  0.180528  1
  Si  Si277  1  0.100192  0.206660  0.165667  1
  Si  Si278  1  0.399446  0.793602  0.288650  1
  Si  Si279  1  0.410527  0.784515  0.242392  1
  Si  Si280  1  0.089113  0.215746  0.211925  1
  Si  Si281  1  0.161244  0.989912  0.260022  1
  Si  Si282  1  0.172629  0.980776  0.213724  1
  Si  Si283  1  0.008087  0.038210  0.198431  1
  Si  Si284  1  0.600195  0.592835  0.242013  1
  Si  Si285  1  0.899448  0.407396  0.212311  1
  Si  Si286  1  0.910527  0.394316  0.262025  1
  Si  Si287  1  0.589112  0.605922  0.192299  1
  Si  Si288  1  0.838397  0.312743  0.287635  1
  Si  Si289  1  0.827010  0.326388  0.237786  1
  Si  Si290  1  0.991572  0.054729  0.273786  1
  Si  Si291  1  0.009955  0.943496  0.337819  1
  Si  Si292  1  0.100108  0.593129  0.397839  1
  Si  Si293  1  0.399624  0.407032  0.368220  1
  Si  Si294  1  0.410436  0.394513  0.417817  1
  Si  Si295  1  0.089291  0.605656  0.348240  1
  Si  Si296  1  0.161493  0.687164  0.322525  1
  Si  Si297  1  0.172523  0.674198  0.372241  1
  Si  Si298  1  0.600108  0.206541  0.321539  1
  Si  Si299  1  0.899621  0.793598  0.444525  1
  Si  Si300  1  0.910441  0.784498  0.398297  1
  Si  Si301  1  0.589293  0.215641  0.367768  1
  Si  Si302  1  0.838238  0.010412  0.350077  1
  Si  Si303  1  0.827208  0.019496  0.396357  1
  Si  Si304  1  0.989754  0.963694  0.412602  1
  Si  Si305  1  0.338239  0.312998  0.443532  1
  Si  Si306  1  0.338395  0.010349  0.350155  1
  Si  Si307  1  0.327205  0.325968  0.393815  1
  Si  Si308  1  0.327013  0.019482  0.396454  1
  Si  Si309  1  0.489732  0.056702  0.428222  1
  Si  Si310  1  0.491590  0.962001  0.411748  1
  Si  Si311  1  0.509980  0.036457  0.353448  1
  Si  Si312  1  0.661245  0.687491  0.322549  1
  Si  Si313  1  0.661490  0.989732  0.415985  1
  Si  Si314  1  0.672628  0.673849  0.372398  1
  Si  Si315  1  0.672525  0.980641  0.369706  1
  Si  Si316  1  0.508073  0.945515  0.336388  1
  Si  Si317  1  0.100192  0.206660  0.321528  1
  Si  Si318  1  0.399446  0.793602  0.444510  1
  Si  Si319  1  0.410527  0.784515  0.398252  1
  Si  Si320  1  0.089113  0.215746  0.367786  1
  Si  Si321  1  0.161244  0.989912  0.415883  1
  Si  Si322  1  0.172629  0.980776  0.369584  1
  Si  Si323  1  0.008087  0.038210  0.354291  1
  Si  Si324  1  0.600195  0.592835  0.397874  1
  Si  Si325  1  0.899448  0.407396  0.368171  1
  Si  Si326  1  0.910527  0.394316  0.417885  1
  Si  Si327  1  0.589112  0.605922  0.348159  1
  Si  Si328  1  0.838397  0.312743  0.443495  1
  Si  Si329  1  0.827010  0.326388  0.393646  1
  Si  Si330  1  0.991572  0.054729  0.429647  1
  Si  Si331  1  0.009955  0.943496  0.493679  1
  Si  Si332  1  0.100108  0.593129  0.553699  1
  Si  Si333  1  0.399624  0.407032  0.524080  1
  Si  Si334  1  0.410436  0.394513  0.573678  1
  Si  Si335  1  0.089291  0.605656  0.504100  1
  Si  Si336  1  0.161493  0.687164  0.478385  1
  Si  Si337  1  0.172523  0.674198  0.528101  1
  Si  Si338  1  0.600108  0.206541  0.477399  1
  Si  Si339  1  0.899621  0.793598  0.600386  1
  Si  Si340  1  0.910441  0.784498  0.554157  1
  Si  Si341  1  0.589293  0.215641  0.523628  1
  Si  Si342  1  0.838238  0.010412  0.505937  1
  Si  Si343  1  0.827208  0.019496  0.552217  1
  Si  Si344  1  0.989754  0.963694  0.568463  1
  Si  Si345  1  0.338239  0.312998  0.599392  1
  Si  Si346  1  0.338395  0.010349  0.506015  1
  Si  Si347  1  0.327205  0.325968  0.549676  1
  Si  Si348  1  0.327013  0.019482  0.552314  1
  Si  Si349  1  0.489732  0.056702  0.584083  1
  Si  Si350  1  0.491590  0.962001  0.567608  1
  Si  Si351  1  0.509980  0.036457  0.509308  1
  Si  Si352  1  0.661245  0.687491  0.478409  1
  Si  Si353  1  0.661490  0.989732  0.571846  1
  Si  Si354  1  0.672628  0.673849  0.528258  1
  Si  Si355  1  0.672525  0.980641  0.525566  1
  Si  Si356  1  0.508073  0.945515  0.492249  1
  Si  Si357  1  0.100192  0.206660  0.477388  1
  Si  Si358  1  0.399446  0.793602  0.600371  1
  Si  Si359  1  0.410527  0.784515  0.554113  1
  Si  Si360  1  0.089113  0.215746  0.523646  1
  Si  Si361  1  0.161244  0.989912  0.571743  1
  Si  Si362  1  0.172629  0.980776  0.525445  1
  Si  Si363  1  0.008087  0.038210  0.510151  1
  Si  Si364  1  0.600195  0.592835  0.553734  1
  Si  Si365  1  0.899448  0.407396  0.524032  1
  Si  Si366  1  0.910527  0.394316  0.573745  1
  Si  Si367  1  0.589112  0.605922  0.504019  1
  Si  Si368  1  0.838397  0.312743  0.599355  1
  Si  Si369  1  0.827010  0.326388  0.549506  1
  Si  Si370  1  0.991572  0.054729  0.585507  1
  H  H371  1  0.093321  0.813304  0.117063  1
  H  H372  1  0.507193  0.318748  0.116969  1
  H  H373  1  0.497708  0.998803  0.134532  1
  H  H374  1  0.594205  0.812921  0.117209  1
  H  H375  1  0.007276  0.318756  0.116970  1
  H  H376  1  0.992537  0.681405  0.153704  1
  H  H377  1  0.406419  0.186855  0.153604  1
  H  H378  1  0.001942  0.001403  0.136116  1
  H  H379  1  0.492358  0.681497  0.153681  1
  H  H380  1  0.905451  0.187300  0.153447  1
  H  H381  1  0.093321  0.813304  0.612452  1
  H  H382  1  0.507193  0.318748  0.612358  1
  H  H383  1  0.497708  0.998803  0.629921  1
  H  H384  1  0.594205  0.812921  0.612598  1
  H  H385  1  0.007276  0.318756  0.612359  1
  H  H386  1  0.992537  0.681405  0.649093  1
  H  H387  1  0.406419  0.186855  0.648993  1
  H  H388  1  0.001942  0.001403  0.631505  1
  H  H389  1  0.492358  0.681497  0.649070  1
  H  H390  1  0.905451  0.187300  0.648836  1
