# generated using pymatgen
data_Si42H2O85
_symmetry_space_group_name_H-M   'P 1'
_cell_length_a   17.25289407
_cell_length_b   17.25278161
_cell_length_c   96.35843480
_cell_angle_alpha   90.00000000
_cell_angle_beta   90.00000000
_cell_angle_gamma   120.00000000
_symmetry_Int_Tables_number   1
_chemical_formula_structural   Si42H2O85
_chemical_formula_sum   'Si252 H12 O510'
_cell_volume   24839.4199157
_cell_formula_units_Z   6
loop_
 _symmetry_equiv_pos_site_id
 _symmetry_equiv_pos_as_xyz
  1  'x, y, z'
loop_
 _atom_site_type_symbol
 _atom_site_label
 _atom_site_symmetry_multiplicity
 _atom_site_fract_x
 _atom_site_fract_y
 _atom_site_fract_z
 _atom_site_occupancy
  O  O1  1  0.242447  0.484856  0.107470  1
  O  O2  1  0.100609  0.413726  0.061238  1
  O  O3  1  0.313249  0.413779  0.061237  1
  O  O4  1  0.353471  0.433930  0.115789  1
  O  O5  1  0.080477  0.433859  0.115802  1
  O  O6  1  0.128514  0.461758  0.088519  1
  O  O7  1  0.333356  0.461863  0.088515  1
  O  O8  1  0.343097  0.457072  0.142216  1
  O  O9  1  0.114124  0.457085  0.142224  1
  O  O10  1  0.258817  0.030173  0.153049  1
  O  O11  1  0.970093  0.228459  0.153070  1
  O  O12  1  0.258822  0.228460  0.153068  1
  O  O13  1  0.771900  0.030070  0.153074  1
  O  O14  1  0.663946  0.041262  0.135498  1
  O  O15  1  0.377419  0.336181  0.135513  1
  O  O16  1  0.958891  0.336173  0.135542  1
  O  O17  1  0.377389  0.041151  0.135478  1
  O  O18  1  0.811026  0.189074  0.145858  1
  O  O19  1  0.378544  0.189244  0.145826  1
  O  O20  1  0.237412  0.474596  0.159684  1
  O  O21  1  0.666987  0.082585  0.160427  1
  O  O22  1  0.416433  0.082810  0.160373  1
  O  O23  1  0.416338  0.333488  0.160425  1
  O  O24  1  0.091256  0.181152  0.213391  1
  O  O25  1  0.182649  0.090891  0.251311  1
  O  O26  1  0.909566  0.090928  0.251304  1
  O  O27  1  0.157790  0.078253  0.215311  1
  O  O28  1  0.921851  0.078352  0.215293  1
  O  O29  1  0.079005  0.156719  0.249419  1
  O  O30  1  0.253753  0.020225  0.205056  1
  O  O31  1  0.980606  0.232656  0.205073  1
  O  O32  1  0.253250  0.232572  0.205070  1
  O  O33  1  0.767604  0.020132  0.205082  1
  O  O34  1  0.233221  0.252767  0.259628  1
  O  O35  1  0.020715  0.252818  0.259609  1
  O  O36  1  -0.000000  0.204632  0.232342  1
  O  O37  1  0.205284  0.204598  0.232352  1
  O  O38  1  0.192461  0.096016  0.303537  1
  O  O39  1  0.210041  0.219246  0.286055  1
  O  O40  1  0.010078  0.219251  0.286035  1
  O  O41  1  0.219714  0.009737  0.178633  1
  O  O42  1  0.990720  0.209641  0.178644  1
  O  O43  1  0.219553  0.209595  0.178643  1
  O  O44  1  0.790742  0.009820  0.178662  1
  O  O45  1  0.076331  0.151872  0.301796  1
  O  O46  1  0.152203  0.075951  0.162891  1
  O  O47  1  0.924343  0.075998  0.162897  1
  O  O48  1  0.363636  0.438291  0.167795  1
  O  O49  1  0.074953  0.438249  0.167806  1
  O  O50  1  0.438522  0.074645  0.296939  1
  O  O51  1  0.925303  0.363298  0.296912  1
  O  O52  1  0.636860  0.074819  0.296935  1
  O  O53  1  0.438492  0.363444  0.296912  1
  O  O54  1  0.375071  0.044244  0.185290  1
  O  O55  1  0.956465  0.330529  0.185375  1
  O  O56  1  0.374752  0.330599  0.185336  1
  O  O57  1  0.669979  0.044290  0.185357  1
  O  O58  1  0.330871  0.374439  0.279355  1
  O  O59  1  0.044434  0.374466  0.279335  1
  O  O60  1  0.904334  0.096003  0.303502  1
  O  O61  1  0.096325  0.192101  0.161168  1
  O  O62  1  0.522705  0.477703  0.175029  1
  O  O63  1  0.522921  0.045057  0.174975  1
  O  O64  1  0.955232  0.477471  0.175037  1
  O  O65  1  0.320182  0.159979  0.189632  1
  O  O66  1  0.840656  0.159994  0.189703  1
  O  O67  1  0.160323  0.319691  0.275028  1
  O  O68  1  0.917426  0.333235  0.160468  1
  O  O69  1  0.082786  0.415872  0.304260  1
  O  O70  1  0.333591  0.416083  0.304261  1
  O  O71  1  0.484980  0.242461  0.357247  1
  O  O72  1  0.757785  0.242424  0.357240  1
  O  O73  1  0.848555  0.424255  0.395146  1
  O  O74  1  0.575805  0.424258  0.395148  1
  O  O75  1  0.575908  0.151580  0.395158  1
  O  O76  1  0.588383  0.176440  0.359143  1
  O  O77  1  0.823773  0.411803  0.359134  1
  O  O78  1  0.588245  0.411830  0.359140  1
  O  O79  1  0.745195  0.490294  0.393252  1
  O  O80  1  0.509794  0.254880  0.393259  1
  O  O81  1  0.745293  0.254884  0.393253  1
  O  O82  1  0.434110  0.080498  0.348938  1
  O  O83  1  0.919762  0.353479  0.348921  1
  O  O84  1  0.646693  0.080432  0.348936  1
  O  O85  1  0.434016  0.353447  0.348913  1
  O  O86  1  0.413882  0.313206  0.403475  1
  O  O87  1  0.686921  0.100622  0.403473  1
  O  O88  1  0.413929  0.100595  0.403477  1
  O  O89  1  0.899536  0.313300  0.403474  1
  O  O90  1  0.462047  0.128593  0.376204  1
  O  O91  1  0.871630  0.333375  0.376194  1
  O  O92  1  0.666814  0.128573  0.376200  1
  O  O93  1  0.461919  0.333328  0.376196  1
  O  O94  1  0.292222  0.002797  0.423197  1
  O  O95  1  0.710936  0.002895  0.423185  1
  O  O96  1  0.447446  0.323593  0.429904  1
  O  O97  1  0.676462  0.123679  0.429898  1
  O  O98  1  0.447442  0.123689  0.429903  1
  O  O99  1  0.876357  0.323681  0.429904  1
  O  O100  1  0.457204  0.113962  0.322513  1
  O  O101  1  0.886241  0.343029  0.322500  1
  O  O102  1  0.657137  0.113928  0.322517  1
  O  O103  1  0.457225  0.342980  0.322492  1
  O  O104  1  0.742653  0.485208  0.445661  1
  O  O105  1  0.514792  0.257310  0.445661  1
  O  O106  1  0.742677  0.257313  0.445654  1
  O  O107  1  0.590904  0.181360  0.306767  1
  O  O108  1  0.818778  0.409233  0.306748  1
  O  O109  1  0.590897  0.409227  0.306740  1
  O  O110  1  0.228712  0.258573  0.311630  1
  O  O111  1  0.030400  0.258438  0.311616  1
  O  O112  1  0.104955  0.408053  0.440747  1
  O  O113  1  0.303248  0.408039  0.440744  1
  O  O114  1  0.041501  0.377502  0.329192  1
  O  O115  1  0.336322  0.377347  0.329174  1
  O  O116  1  0.292230  0.289275  0.423200  1
  O  O117  1  0.997250  0.289358  0.423199  1
  O  O118  1  0.762910  0.237227  0.305061  1
  O  O119  1  0.474745  0.237196  0.305037  1
  O  O120  1  0.570673  0.141163  0.447360  1
  O  O121  1  0.189329  0.378307  0.318834  1
  O  O122  1  0.144226  0.288290  0.433527  1
  O  O123  1  0.986597  0.493229  0.333525  1
  O  O124  1  0.506934  0.493178  0.333502  1
  O  O125  1  0.506939  0.013527  0.333538  1
  O  O126  1  0.346996  0.173431  0.418877  1
  O  O127  1  0.826668  0.173525  0.418875  1
  O  O128  1  0.858781  0.429326  0.447373  1
  O  O129  1  0.570650  0.429324  0.447371  1
  O  O130  1  0.151476  0.575641  0.069565  1
  O  O131  1  0.424264  0.575720  0.069562  1
  O  O132  1  0.424283  0.848368  0.069552  1
  O  O133  1  0.515328  0.757564  0.107470  1
  O  O134  1  0.242443  0.757441  0.107463  1
  O  O135  1  0.254849  0.509639  0.071458  1
  O  O136  1  0.490379  0.745093  0.071459  1
  O  O137  1  0.254859  0.745022  0.071450  1
  O  O138  1  0.411881  0.823500  0.105566  1
  O  O139  1  0.176291  0.588072  0.105574  1
  O  O140  1  0.411889  0.588186  0.105576  1
  O  O141  1  0.586223  0.686703  0.061239  1
  O  O142  1  0.313257  0.899300  0.061230  1
  O  O143  1  0.586252  0.899348  0.061236  1
  O  O144  1  0.100614  0.686695  0.061236  1
  O  O145  1  0.566177  0.919536  0.115780  1
  O  O146  1  0.080465  0.646500  0.115797  1
  O  O147  1  0.353516  0.919421  0.115767  1
  O  O148  1  0.566183  0.646476  0.115794  1
  O  O149  1  0.538199  0.666588  0.088518  1
  O  O150  1  0.333367  0.871308  0.088504  1
  O  O151  1  0.538202  0.871411  0.088512  1
  O  O152  1  0.128522  0.666589  0.088515  1
  O  O153  1  0.543102  0.886044  0.142199  1
  O  O154  1  0.114097  0.656981  0.142218  1
  O  O155  1  0.343105  0.885937  0.142193  1
  O  O156  1  0.543087  0.656931  0.142216  1
  O  O157  1  0.409435  0.818606  0.157945  1
  O  O158  1  0.181549  0.590741  0.157971  1
  O  O159  1  0.409417  0.590721  0.157966  1
  O  O160  1  0.771837  0.741548  0.153099  1
  O  O161  1  0.970027  0.741407  0.153080  1
  O  O162  1  0.958879  0.622626  0.135537  1
  O  O163  1  0.663876  0.622460  0.135526  1
  O  O164  1  0.810908  0.621680  0.145881  1
  O  O165  1  0.013622  0.506769  0.131207  1
  O  O166  1  0.493248  0.506732  0.131191  1
  O  O167  1  0.493303  0.986431  0.131172  1
  O  O168  1  0.525559  0.762731  0.159655  1
  O  O169  1  0.237432  0.762769  0.159671  1
  O  O170  1  0.818630  0.909107  0.213404  1
  O  O171  1  0.091917  0.908994  0.213411  1
  O  O172  1  0.909926  0.818574  0.251318  1
  O  O173  1  0.922398  0.843391  0.215290  1
  O  O174  1  0.843562  0.921623  0.249420  1
  O  O175  1  0.079339  0.921599  0.249406  1
  O  O176  1  0.767931  0.747235  0.205102  1
  O  O177  1  0.980403  0.747217  0.205081  1
  O  O178  1  0.747587  0.979885  0.259641  1
  O  O179  1  0.020635  0.767313  0.259642  1
  O  O180  1  0.747860  0.767320  0.259634  1
  O  O181  1  0.233390  0.979779  0.259668  1
  O  O182  1  0.796052  0.795393  0.232360  1
  O  O183  1  -0.000000  0.795291  0.232357  1
  O  O184  1  0.096346  0.903954  0.161180  1
  O  O185  1  0.781039  0.990199  0.286062  1
  O  O186  1  0.009987  0.790343  0.286070  1
  O  O187  1  0.781153  0.790346  0.286066  1
  O  O188  1  0.209987  0.990200  0.286088  1
  O  O189  1  0.790737  0.780718  0.178680  1
  O  O190  1  0.990683  0.780761  0.178655  1
  O  O191  1  0.848439  0.923974  0.301821  1
  O  O192  1  0.076292  0.923989  0.301832  1
  O  O193  1  0.924346  0.848118  0.162914  1
  O  O194  1  0.561943  0.925141  0.167783  1
  O  O195  1  0.074933  0.636531  0.167797  1
  O  O196  1  0.363783  0.925341  0.167761  1
  O  O197  1  0.561877  0.636665  0.167805  1
  O  O198  1  0.636798  0.561734  0.296909  1
  O  O199  1  0.925415  0.561657  0.296914  1
  O  O200  1  0.669858  0.625523  0.185384  1
  O  O201  1  0.956334  0.625533  0.185356  1
  O  O202  1  0.625798  0.955736  0.279362  1
  O  O203  1  0.044211  0.669372  0.279373  1
  O  O204  1  0.625985  0.669473  0.279345  1
  O  O205  1  0.330854  0.955772  0.279411  1
  O  O206  1  0.666807  0.584116  0.160459  1
  O  O207  1  0.205818  0.000000  0.232368  1
  O  O208  1  0.477850  0.522511  0.289679  1
  O  O209  1  0.477934  0.954930  0.289727  1
  O  O210  1  0.045082  0.522262  0.289682  1
  O  O211  1  0.840540  0.680297  0.189683  1
  O  O212  1  0.680737  0.840027  0.275022  1
  O  O213  1  0.160223  0.839995  0.275075  1
  O  O214  1  0.904278  0.807835  0.303546  1
  O  O215  1  0.808196  0.903979  0.161221  1
  O  O216  1  0.584275  0.666735  0.304254  1
  O  O217  1  0.917393  0.583895  0.160451  1
  O  O218  1  0.795586  0.000000  0.232361  1
  O  O219  1  0.757629  0.515086  0.357241  1
  O  O220  1  0.646656  0.566062  0.348912  1
  O  O221  1  0.919607  0.566056  0.348921  1
  O  O222  1  0.899432  0.586162  0.403475  1
  O  O223  1  0.686826  0.586170  0.403475  1
  O  O224  1  0.666746  0.538152  0.376194  1
  O  O225  1  0.871519  0.538120  0.376194  1
  O  O226  1  0.762901  0.525362  0.305028  1
  O  O227  1  0.876275  0.552551  0.429903  1
  O  O228  1  0.676370  0.552560  0.429903  1
  O  O229  1  0.657136  0.542874  0.322490  1
  O  O230  1  0.886122  0.542895  0.322494  1
  O  O231  1  0.741917  0.969907  0.311647  1
  O  O232  1  0.030436  0.771473  0.311644  1
  O  O233  1  0.741721  0.771515  0.311644  1
  O  O234  1  0.228712  0.969767  0.311665  1
  O  O235  1  0.591936  0.696750  0.440747  1
  O  O236  1  0.303241  0.895047  0.440740  1
  O  O237  1  0.591851  0.894955  0.440751  1
  O  O238  1  0.104907  0.696730  0.440744  1
  O  O239  1  0.336351  0.958782  0.329222  1
  O  O240  1  0.622830  0.663802  0.329177  1
  O  O241  1  0.041343  0.663770  0.329197  1
  O  O242  1  0.622760  0.958702  0.329218  1
  O  O243  1  0.997174  0.707778  0.423202  1
  O  O244  1  0.710700  0.707789  0.423203  1
  O  O245  1  0.333700  0.917165  0.304321  1
  O  O246  1  0.082922  0.666457  0.304283  1
  O  O247  1  0.584462  0.917375  0.304289  1
  O  O248  1  0.189403  0.810688  0.318874  1
  O  O249  1  0.622046  0.810903  0.318862  1
  O  O250  1  0.144207  0.855778  0.433525  1
  O  O251  1  0.711665  0.855788  0.433524  1
  O  O252  1  0.826549  0.653009  0.418885  1
  O  O253  1  0.242447  0.484856  0.538984  1
  O  O254  1  0.100609  0.413726  0.492752  1
  O  O255  1  0.313249  0.413779  0.492751  1
  O  O256  1  0.353471  0.433930  0.547303  1
  O  O257  1  0.080477  0.433859  0.547316  1
  O  O258  1  0.128514  0.461758  0.520033  1
  O  O259  1  0.333356  0.461863  0.520029  1
  O  O260  1  0.343097  0.457072  0.573730  1
  O  O261  1  0.114124  0.457085  0.573738  1
  O  O262  1  0.123783  0.447334  0.466325  1
  O  O263  1  0.323680  0.447332  0.466324  1
  O  O264  1  0.408143  0.303148  0.455482  1
  O  O265  1  0.696835  0.104832  0.455475  1
  O  O266  1  0.408152  0.104826  0.455480  1
  O  O267  1  0.895144  0.303147  0.455481  1
  O  O268  1  0.258817  0.030173  0.584563  1
  O  O269  1  0.970093  0.228459  0.584584  1
  O  O270  1  0.258822  0.228460  0.584581  1
  O  O271  1  0.771900  0.030070  0.584587  1
  O  O272  1  0.002879  0.292102  0.473023  1
  O  O273  1  0.289367  0.292118  0.473026  1
  O  O274  1  0.663946  0.041262  0.567012  1
  O  O275  1  0.377419  0.336181  0.567027  1
  O  O276  1  0.958891  0.336173  0.567056  1
  O  O277  1  0.377389  0.041151  0.566992  1
  O  O278  1  0.855867  0.144095  0.462690  1
  O  O279  1  0.288392  0.144115  0.462697  1
  O  O280  1  0.811026  0.189074  0.577372  1
  O  O281  1  0.378544  0.189244  0.577340  1
  O  O282  1  0.173501  0.346879  0.477345  1
  O  O283  1  0.237412  0.474596  0.591198  1
  O  O284  1  0.666987  0.082585  0.591940  1
  O  O285  1  0.416433  0.082810  0.591887  1
  O  O286  1  0.416338  0.333488  0.591939  1
  O  O287  1  0.250654  0.250550  0.448113  1
  O  O288  1  -0.000000  0.250554  0.448110  1
  O  O289  1  0.091256  0.181152  0.644905  1
  O  O290  1  0.182649  0.090891  0.682825  1
  O  O291  1  0.909566  0.090928  0.682818  1
  O  O292  1  0.157790  0.078253  0.646825  1
  O  O293  1  0.921851  0.078352  0.646807  1
  O  O294  1  0.079005  0.156719  0.680933  1
  O  O295  1  0.253753  0.020225  0.636570  1
  O  O296  1  0.980606  0.232656  0.636587  1
  O  O297  1  0.253250  0.232572  0.636584  1
  O  O298  1  0.767604  0.020132  0.636596  1
  O  O299  1  0.233221  0.252767  0.691142  1
  O  O300  1  0.020715  0.252818  0.691123  1
  O  O301  1  -0.000000  0.204632  0.663856  1
  O  O302  1  0.205284  0.204598  0.663866  1
  O  O303  1  0.192461  0.096016  0.735051  1
  O  O304  1  0.210041  0.219246  0.717569  1
  O  O305  1  0.010078  0.219251  0.717549  1
  O  O306  1  0.219714  0.009737  0.610147  1
  O  O307  1  0.990720  0.209641  0.610158  1
  O  O308  1  0.219553  0.209595  0.610157  1
  O  O309  1  0.790742  0.009820  0.610176  1
  O  O310  1  0.076331  0.151872  0.733310  1
  O  O311  1  0.152203  0.075951  0.594404  1
  O  O312  1  0.924343  0.075998  0.594411  1
  O  O313  1  0.363636  0.438291  0.599309  1
  O  O314  1  0.074953  0.438249  0.599320  1
  O  O315  1  0.438522  0.074645  0.728453  1
  O  O316  1  0.925303  0.363298  0.728426  1
  O  O317  1  0.636860  0.074819  0.728449  1
  O  O318  1  0.438492  0.363444  0.728426  1
  O  O319  1  0.375071  0.044244  0.616804  1
  O  O320  1  0.956465  0.330529  0.616889  1
  O  O321  1  0.374752  0.330599  0.616850  1
  O  O322  1  0.669979  0.044290  0.616871  1
  O  O323  1  0.330871  0.374439  0.710869  1
  O  O324  1  0.044434  0.374466  0.710848  1
  O  O325  1  0.904334  0.096003  0.735016  1
  O  O326  1  0.096325  0.192101  0.592682  1
  O  O327  1  0.522705  0.477703  0.606543  1
  O  O328  1  0.522921  0.045057  0.606489  1
  O  O329  1  0.955232  0.477471  0.606551  1
  O  O330  1  0.320182  0.159979  0.621146  1
  O  O331  1  0.840656  0.159994  0.621217  1
  O  O332  1  0.160323  0.319691  0.706542  1
  O  O333  1  0.917426  0.333235  0.591981  1
  O  O334  1  0.082786  0.415872  0.735774  1
  O  O335  1  0.333591  0.416083  0.735774  1
  O  O336  1  0.484980  0.242461  0.788761  1
  O  O337  1  0.757785  0.242424  0.788754  1
  O  O338  1  0.848555  0.424255  0.826660  1
  O  O339  1  0.575805  0.424258  0.826662  1
  O  O340  1  0.575908  0.151580  0.826672  1
  O  O341  1  0.588383  0.176440  0.790656  1
  O  O342  1  0.823773  0.411803  0.790647  1
  O  O343  1  0.588245  0.411830  0.790654  1
  O  O344  1  0.745195  0.490294  0.824766  1
  O  O345  1  0.509794  0.254880  0.824773  1
  O  O346  1  0.745293  0.254884  0.824767  1
  O  O347  1  0.434110  0.080498  0.780452  1
  O  O348  1  0.919762  0.353479  0.780435  1
  O  O349  1  0.646693  0.080432  0.780450  1
  O  O350  1  0.434016  0.353447  0.780427  1
  O  O351  1  0.413882  0.313206  0.834989  1
  O  O352  1  0.686921  0.100622  0.834987  1
  O  O353  1  0.413929  0.100595  0.834991  1
  O  O354  1  0.899536  0.313300  0.834988  1
  O  O355  1  0.462047  0.128593  0.807718  1
  O  O356  1  0.871630  0.333375  0.807708  1
  O  O357  1  0.666814  0.128573  0.807714  1
  O  O358  1  0.461919  0.333328  0.807710  1
  O  O359  1  0.457204  0.113962  0.754027  1
  O  O360  1  0.886241  0.343029  0.754014  1
  O  O361  1  0.657137  0.113928  0.754031  1
  O  O362  1  0.457225  0.342980  0.754005  1
  O  O363  1  0.590904  0.181360  0.738281  1
  O  O364  1  0.818778  0.409233  0.738262  1
  O  O365  1  0.590897  0.409227  0.738254  1
  O  O366  1  0.228712  0.258573  0.743144  1
  O  O367  1  0.030400  0.258438  0.743130  1
  O  O368  1  0.041501  0.377502  0.760706  1
  O  O369  1  0.336322  0.377347  0.760688  1
  O  O370  1  0.762910  0.237227  0.736575  1
  O  O371  1  0.474745  0.237196  0.736551  1
  O  O372  1  0.189329  0.378307  0.750348  1
  O  O373  1  0.986597  0.493229  0.765039  1
  O  O374  1  0.506934  0.493178  0.765016  1
  O  O375  1  0.506939  0.013527  0.765052  1
  O  O376  1  0.151476  0.575641  0.501079  1
  O  O377  1  0.424264  0.575720  0.501076  1
  O  O378  1  0.424283  0.848368  0.501066  1
  O  O379  1  0.515328  0.757564  0.538984  1
  O  O380  1  0.242443  0.757441  0.538977  1
  O  O381  1  0.254849  0.509639  0.502972  1
  O  O382  1  0.490379  0.745093  0.502973  1
  O  O383  1  0.254859  0.745022  0.502964  1
  O  O384  1  0.411881  0.823500  0.537080  1
  O  O385  1  0.176291  0.588072  0.537088  1
  O  O386  1  0.411889  0.588186  0.537089  1
  O  O387  1  0.586223  0.686703  0.492753  1
  O  O388  1  0.313257  0.899300  0.492744  1
  O  O389  1  0.586252  0.899348  0.492750  1
  O  O390  1  0.100614  0.686695  0.492750  1
  O  O391  1  0.566177  0.919536  0.547293  1
  O  O392  1  0.080465  0.646500  0.547311  1
  O  O393  1  0.353516  0.919421  0.547281  1
  O  O394  1  0.566183  0.646476  0.547308  1
  O  O395  1  0.538199  0.666588  0.520032  1
  O  O396  1  0.333367  0.871308  0.520017  1
  O  O397  1  0.538202  0.871411  0.520026  1
  O  O398  1  0.128522  0.666589  0.520029  1
  O  O399  1  0.707876  0.997092  0.473020  1
  O  O400  1  0.289358  0.997089  0.473022  1
  O  O401  1  0.543102  0.886044  0.573712  1
  O  O402  1  0.114097  0.656981  0.573732  1
  O  O403  1  0.343105  0.885937  0.573707  1
  O  O404  1  0.543087  0.656931  0.573730  1
  O  O405  1  0.552645  0.676273  0.466327  1
  O  O406  1  0.323652  0.876178  0.466318  1
  O  O407  1  0.552638  0.876183  0.466328  1
  O  O408  1  0.123771  0.676286  0.466322  1
  O  O409  1  0.409435  0.818606  0.589459  1
  O  O410  1  0.181549  0.590741  0.589485  1
  O  O411  1  0.409417  0.590721  0.589480  1
  O  O412  1  0.257420  0.514695  0.450567  1
  O  O413  1  0.485254  0.742521  0.450575  1
  O  O414  1  0.257382  0.742558  0.450561  1
  O  O415  1  0.895135  0.591848  0.455482  1
  O  O416  1  0.696824  0.591858  0.455481  1
  O  O417  1  0.771837  0.741548  0.584613  1
  O  O418  1  0.970027  0.741407  0.584594  1
  O  O419  1  0.707870  0.710614  0.473027  1
  O  O420  1  0.002874  0.710606  0.473026  1
  O  O421  1  0.958879  0.622626  0.567051  1
  O  O422  1  0.663876  0.622460  0.567040  1
  O  O423  1  0.749430  0.749366  0.448115  1
  O  O424  1  0.855864  0.711609  0.462699  1
  O  O425  1  0.810908  0.621680  0.577395  1
  O  O426  1  0.653100  0.826460  0.477345  1
  O  O427  1  0.173493  0.826459  0.477345  1
  O  O428  1  0.013622  0.506769  0.562721  1
  O  O429  1  0.493248  0.506732  0.562705  1
  O  O430  1  0.493303  0.986431  0.562686  1
  O  O431  1  0.525559  0.762731  0.591168  1
  O  O432  1  0.237432  0.762769  0.591185  1
  O  O433  1  0.000000  0.749348  0.448114  1
  O  O434  1  0.141260  0.570553  0.448856  1
  O  O435  1  0.429429  0.570539  0.448857  1
  O  O436  1  0.429392  0.858673  0.448859  1
  O  O437  1  0.250655  0.000000  0.448109  1
  O  O438  1  0.749370  0.000000  0.448105  1
  O  O439  1  0.818630  0.909107  0.644918  1
  O  O440  1  0.091917  0.908994  0.644925  1
  O  O441  1  0.909926  0.818574  0.682832  1
  O  O442  1  0.922398  0.843391  0.646804  1
  O  O443  1  0.843562  0.921623  0.680934  1
  O  O444  1  0.079339  0.921599  0.680919  1
  O  O445  1  0.767931  0.747235  0.636616  1
  O  O446  1  0.980403  0.747217  0.636595  1
  O  O447  1  0.747587  0.979885  0.691155  1
  O  O448  1  0.020635  0.767313  0.691155  1
  O  O449  1  0.747860  0.767320  0.691148  1
  O  O450  1  0.233390  0.979779  0.691182  1
  O  O451  1  0.796052  0.795393  0.663874  1
  O  O452  1  -0.000000  0.795291  0.663871  1
  O  O453  1  0.096346  0.903954  0.592693  1
  O  O454  1  0.781039  0.990199  0.717576  1
  O  O455  1  0.009987  0.790343  0.717584  1
  O  O456  1  0.781153  0.790346  0.717580  1
  O  O457  1  0.209987  0.990200  0.717602  1
  O  O458  1  0.790737  0.780718  0.610193  1
  O  O459  1  0.990683  0.780761  0.610168  1
  O  O460  1  0.848439  0.923974  0.733335  1
  O  O461  1  0.076292  0.923989  0.733345  1
  O  O462  1  0.924346  0.848118  0.594428  1
  O  O463  1  0.561943  0.925141  0.599297  1
  O  O464  1  0.074933  0.636531  0.599311  1
  O  O465  1  0.363783  0.925341  0.599275  1
  O  O466  1  0.561877  0.636665  0.599319  1
  O  O467  1  0.636798  0.561734  0.728423  1
  O  O468  1  0.925415  0.561657  0.728427  1
  O  O469  1  0.669858  0.625523  0.616897  1
  O  O470  1  0.956334  0.625533  0.616870  1
  O  O471  1  0.625798  0.955736  0.710876  1
  O  O472  1  0.044211  0.669372  0.710887  1
  O  O473  1  0.625985  0.669473  0.710859  1
  O  O474  1  0.330854  0.955772  0.710925  1
  O  O475  1  0.666807  0.584116  0.591973  1
  O  O476  1  0.205818  -0.000000  0.663882  1
  O  O477  1  0.477850  0.522511  0.721193  1
  O  O478  1  0.477934  0.954930  0.721241  1
  O  O479  1  0.045082  0.522262  0.721196  1
  O  O480  1  0.840540  0.680297  0.621197  1
  O  O481  1  0.680737  0.840027  0.706536  1
  O  O482  1  0.160223  0.839995  0.706589  1
  O  O483  1  0.904278  0.807835  0.735060  1
  O  O484  1  0.808196  0.903979  0.592734  1
  O  O485  1  0.584275  0.666735  0.735768  1
  O  O486  1  0.917393  0.583895  0.591965  1
  O  O487  1  0.795586  0.000000  0.663875  1
  O  O488  1  0.757629  0.515086  0.788755  1
  O  O489  1  0.646656  0.566062  0.780426  1
  O  O490  1  0.919607  0.566056  0.780435  1
  O  O491  1  0.899432  0.586162  0.834989  1
  O  O492  1  0.686826  0.586170  0.834989  1
  O  O493  1  0.666746  0.538152  0.807708  1
  O  O494  1  0.871519  0.538120  0.807708  1
  O  O495  1  0.762901  0.525362  0.736542  1
  O  O496  1  0.657136  0.542874  0.754004  1
  O  O497  1  0.886122  0.542895  0.754008  1
  O  O498  1  0.741917  0.969907  0.743161  1
  O  O499  1  0.030436  0.771473  0.743158  1
  O  O500  1  0.741721  0.771515  0.743158  1
  O  O501  1  0.228712  0.969767  0.743179  1
  O  O502  1  0.336351  0.958782  0.760736  1
  O  O503  1  0.622830  0.663802  0.760690  1
  O  O504  1  0.041343  0.663770  0.760711  1
  O  O505  1  0.622760  0.958702  0.760731  1
  O  O506  1  0.333700  0.917165  0.735835  1
  O  O507  1  0.082922  0.666457  0.735796  1
  O  O508  1  0.584462  0.917375  0.735803  1
  O  O509  1  0.189403  0.810688  0.750388  1
  O  O510  1  0.622046  0.810903  0.750376  1
  Si  Si511  1  0.154807  0.488644  0.157228  1
  Si  Si512  1  0.334055  0.488630  0.157224  1
  Si  Si513  1  0.391162  0.430541  0.130670  1
  Si  Si514  1  0.039462  0.430530  0.130688  1
  Si  Si515  1  0.154453  0.487522  0.072658  1
  Si  Si516  1  0.333175  0.487589  0.072654  1
  Si  Si517  1  0.333538  0.487821  0.104375  1
  Si  Si518  1  0.154257  0.487707  0.104380  1
  Si  Si519  1  0.731237  0.089985  0.148055  1
  Si  Si520  1  0.359389  0.269099  0.148067  1
  Si  Si521  1  0.910012  0.268983  0.148091  1
  Si  Si522  1  0.359345  0.090191  0.148032  1
  Si  Si523  1  0.822261  0.000000  0.163661  1
  Si  Si524  1  0.821457  -0.000000  0.216497  1
  Si  Si525  1  0.178966  0.000000  0.163634  1
  Si  Si526  1  -0.000000  0.178096  0.163633  1
  Si  Si527  1  0.178913  0.178039  0.163637  1
  Si  Si528  1  -0.000000  0.178611  0.216483  1
  Si  Si529  1  0.179552  0.178529  0.216494  1
  Si  Si530  1  0.179427  0.178883  0.248216  1
  Si  Si531  1  -0.000000  0.178917  0.248206  1
  Si  Si532  1  0.423926  0.025946  0.172738  1
  Si  Si533  1  0.974419  0.397614  0.172823  1
  Si  Si534  1  0.423713  0.397801  0.172791  1
  Si  Si535  1  0.602712  0.025742  0.172796  1
  Si  Si536  1  0.397986  0.423486  0.291907  1
  Si  Si537  1  0.025873  0.423208  0.291890  1
  Si  Si538  1  0.294245  0.236147  0.190175  1
  Si  Si539  1  0.764299  0.057964  0.190207  1
  Si  Si540  1  0.942761  0.236153  0.190209  1
  Si  Si541  1  0.294469  0.057934  0.190156  1
  Si  Si542  1  0.058261  0.293896  0.274496  1
  Si  Si543  1  0.236541  0.293826  0.274508  1
  Si  Si544  1  0.178430  0.178623  0.301063  1
  Si  Si545  1  -0.000000  0.178602  0.301039  1
  Si  Si546  1  0.180055  0.000000  0.216503  1
  Si  Si547  1  0.488805  0.333866  0.307488  1
  Si  Si548  1  0.487996  0.154365  0.360345  1
  Si  Si549  1  0.845905  0.333532  0.360331  1
  Si  Si550  1  0.666672  0.154326  0.360340  1
  Si  Si551  1  0.487867  0.333521  0.360336  1
  Si  Si552  1  0.487683  0.333163  0.392056  1
  Si  Si553  1  0.666976  0.154505  0.392059  1
  Si  Si554  1  0.487760  0.154508  0.392065  1
  Si  Si555  1  0.845667  0.333203  0.392052  1
  Si  Si556  1  0.090254  0.359031  0.316629  1
  Si  Si557  1  0.269203  0.359155  0.316619  1
  Si  Si558  1  0.243254  0.307462  0.435748  1
  Si  Si559  1  0.064384  0.307482  0.435748  1
  Si  Si560  1  0.430682  0.391108  0.334025  1
  Si  Si561  1  0.608994  0.039302  0.334058  1
  Si  Si562  1  0.430716  0.039387  0.334060  1
  Si  Si563  1  0.960863  0.391182  0.334041  1
  Si  Si564  1  0.372832  0.097183  0.418358  1
  Si  Si565  1  0.902892  0.275614  0.418357  1
  Si  Si566  1  0.724623  0.097244  0.418353  1
  Si  Si567  1  0.372837  0.275509  0.418358  1
  Si  Si568  1  0.488056  0.332668  0.444912  1
  Si  Si569  1  0.667328  0.155220  0.444903  1
  Si  Si570  1  0.488069  0.155221  0.444909  1
  Si  Si571  1  0.844763  0.332689  0.444911  1
  Si  Si572  1  0.488804  0.154603  0.307506  1
  Si  Si573  1  0.845523  0.333885  0.307501  1
  Si  Si574  1  0.666264  0.154629  0.307516  1
  Si  Si575  1  0.512428  0.666771  0.072658  1
  Si  Si576  1  0.333188  0.845402  0.072643  1
  Si  Si577  1  0.512440  0.845472  0.072652  1
  Si  Si578  1  0.154463  0.666744  0.072655  1
  Si  Si579  1  0.512296  0.845652  0.104372  1
  Si  Si580  1  0.154248  0.666395  0.104376  1
  Si  Si581  1  0.333547  0.845541  0.104363  1
  Si  Si582  1  0.512304  0.666439  0.104380  1
  Si  Si583  1  0.909936  0.640824  0.148092  1
  Si  Si584  1  0.731106  0.640950  0.148089  1
  Si  Si585  1  0.569561  0.608779  0.130676  1
  Si  Si586  1  0.391204  0.960546  0.130645  1
  Si  Si587  1  0.569583  0.960660  0.130657  1
  Si  Si588  1  0.039447  0.608846  0.130684  1
  Si  Si589  1  0.511528  0.845340  0.157200  1
  Si  Si590  1  0.154818  0.666102  0.157221  1
  Si  Si591  1  0.334087  0.845353  0.157200  1
  Si  Si592  1  0.511509  0.666070  0.157215  1
  Si  Si593  1  -0.000000  0.821361  0.163647  1
  Si  Si594  1  0.179755  0.000000  0.248224  1
  Si  Si595  1  0.821676  0.821872  0.301079  1
  Si  Si596  1  0.821946  0.821165  0.216498  1
  Si  Si597  1  -0.000000  0.821108  0.216495  1
  Si  Si598  1  0.822259  0.821387  0.163675  1
  Si  Si599  1  -0.000000  0.821290  0.248217  1
  Si  Si600  1  0.821687  0.821315  0.248223  1
  Si  Si601  1  0.178391  0.000000  0.301089  1
  Si  Si602  1  0.602548  0.576769  0.172828  1
  Si  Si603  1  0.974387  0.576490  0.172804  1
  Si  Si604  1  0.577026  0.974226  0.291921  1
  Si  Si605  1  0.025980  0.602158  0.291916  1
  Si  Si606  1  0.576888  0.602370  0.291897  1
  Si  Si607  1  0.398047  0.974050  0.291958  1
  Si  Si608  1  0.942629  0.706168  0.190201  1
  Si  Si609  1  0.764279  0.706089  0.190218  1
  Si  Si610  1  0.706641  0.763844  0.274508  1
  Si  Si611  1  0.236523  0.942046  0.274558  1
  Si  Si612  1  0.058118  0.763804  0.274535  1
  Si  Si613  1  0.706456  0.942073  0.274515  1
  Si  Si614  1  0.821724  0.000000  0.301063  1
  Si  Si615  1  -0.000000  0.821896  0.301079  1
  Si  Si616  1  0.821397  -0.000000  0.248220  1
  Si  Si617  1  0.960708  0.569425  0.334042  1
  Si  Si618  1  0.667292  0.511938  0.444912  1
  Si  Si619  1  0.844741  0.511932  0.444912  1
  Si  Si620  1  0.902794  0.627177  0.418361  1
  Si  Si621  1  0.845508  0.511325  0.307487  1
  Si  Si622  1  0.666254  0.511323  0.307486  1
  Si  Si623  1  0.724476  0.627186  0.418361  1
  Si  Si624  1  0.609015  0.569423  0.334025  1
  Si  Si625  1  0.666573  0.512201  0.360334  1
  Si  Si626  1  0.845778  0.512164  0.360334  1
  Si  Si627  1  0.845582  0.512377  0.392055  1
  Si  Si628  1  0.666896  0.512385  0.392055  1
  Si  Si629  1  0.269249  0.909743  0.316667  1
  Si  Si630  1  0.641130  0.730998  0.316629  1
  Si  Si631  1  0.090381  0.730844  0.316642  1
  Si  Si632  1  0.641327  0.909983  0.316660  1
  Si  Si633  1  0.064349  0.756750  0.435748  1
  Si  Si634  1  0.692442  0.935613  0.435739  1
  Si  Si635  1  0.243242  0.935628  0.435744  1
  Si  Si636  1  0.692510  0.756769  0.435750  1
  Si  Si637  1  0.154807  0.488644  0.588742  1
  Si  Si638  1  0.334055  0.488630  0.588738  1
  Si  Si639  1  0.391162  0.430541  0.562184  1
  Si  Si640  1  0.039462  0.430530  0.562202  1
  Si  Si641  1  0.332770  0.487949  0.451316  1
  Si  Si642  1  0.155328  0.487965  0.451317  1
  Si  Si643  1  0.097256  0.372705  0.477867  1
  Si  Si644  1  0.275584  0.372718  0.477868  1
  Si  Si645  1  0.154453  0.487522  0.504172  1
  Si  Si646  1  0.333175  0.487589  0.504168  1
  Si  Si647  1  0.333538  0.487821  0.535889  1
  Si  Si648  1  0.154257  0.487707  0.535894  1
  Si  Si649  1  0.935715  0.243137  0.460475  1
  Si  Si650  1  0.307572  0.064264  0.460475  1
  Si  Si651  1  0.756829  0.064243  0.460470  1
  Si  Si652  1  0.307567  0.243148  0.460479  1
  Si  Si653  1  0.731237  0.089985  0.579569  1
  Si  Si654  1  0.359389  0.269099  0.579581  1
  Si  Si655  1  0.910012  0.268983  0.579605  1
  Si  Si656  1  0.359345  0.090191  0.579546  1
  Si  Si657  1  0.822261  0.000000  0.595175  1
  Si  Si658  1  0.821457  -0.000000  0.648011  1
  Si  Si659  1  0.178966  -0.000000  0.595147  1
  Si  Si660  1  -0.000000  0.178096  0.595147  1
  Si  Si661  1  0.178913  0.178039  0.595150  1
  Si  Si662  1  -0.000000  0.178611  0.647997  1
  Si  Si663  1  0.179552  0.178529  0.648008  1
  Si  Si664  1  0.179427  0.178883  0.679730  1
  Si  Si665  1  -0.000000  0.178917  0.679720  1
  Si  Si666  1  0.423926  0.025946  0.604252  1
  Si  Si667  1  0.974419  0.397614  0.604337  1
  Si  Si668  1  0.423713  0.397801  0.604305  1
  Si  Si669  1  0.602712  0.025742  0.604310  1
  Si  Si670  1  0.397986  0.423486  0.723421  1
  Si  Si671  1  0.025873  0.423208  0.723404  1
  Si  Si672  1  0.294245  0.236147  0.621689  1
  Si  Si673  1  0.764299  0.057964  0.621721  1
  Si  Si674  1  0.942761  0.236153  0.621723  1
  Si  Si675  1  0.294469  0.057934  0.621670  1
  Si  Si676  1  0.058261  0.293896  0.706010  1
  Si  Si677  1  0.236541  0.293826  0.706022  1
  Si  Si678  1  0.178430  0.178623  0.732577  1
  Si  Si679  1  -0.000000  0.178602  0.732553  1
  Si  Si680  1  0.180055  0.000000  0.648017  1
  Si  Si681  1  0.488805  0.333866  0.739002  1
  Si  Si682  1  0.487996  0.154365  0.791859  1
  Si  Si683  1  0.845905  0.333532  0.791845  1
  Si  Si684  1  0.666672  0.154326  0.791854  1
  Si  Si685  1  0.487867  0.333521  0.791850  1
  Si  Si686  1  0.487683  0.333163  0.823570  1
  Si  Si687  1  0.666976  0.154505  0.823573  1
  Si  Si688  1  0.487760  0.154508  0.823579  1
  Si  Si689  1  0.845667  0.333203  0.823566  1
  Si  Si690  1  0.090254  0.359031  0.748142  1
  Si  Si691  1  0.269203  0.359155  0.748133  1
  Si  Si692  1  0.430682  0.391108  0.765539  1
  Si  Si693  1  0.608994  0.039302  0.765572  1
  Si  Si694  1  0.430716  0.039387  0.765573  1
  Si  Si695  1  0.960863  0.391182  0.765554  1
  Si  Si696  1  0.488804  0.154603  0.739020  1
  Si  Si697  1  0.845523  0.333885  0.739015  1
  Si  Si698  1  0.666264  0.154629  0.739030  1
  Si  Si699  1  0.512428  0.666771  0.504172  1
  Si  Si700  1  0.333188  0.845402  0.504157  1
  Si  Si701  1  0.512440  0.845472  0.504166  1
  Si  Si702  1  0.154463  0.666744  0.504169  1
  Si  Si703  1  0.512296  0.845652  0.535886  1
  Si  Si704  1  0.154248  0.666395  0.535890  1
  Si  Si705  1  0.333547  0.845541  0.535876  1
  Si  Si706  1  0.512304  0.666439  0.535894  1
  Si  Si707  1  0.756836  0.692434  0.460477  1
  Si  Si708  1  0.935713  0.692425  0.460478  1
  Si  Si709  1  0.909936  0.640824  0.579606  1
  Si  Si710  1  0.731106  0.640950  0.579603  1
  Si  Si711  1  0.627287  0.902717  0.477866  1
  Si  Si712  1  0.097252  0.724378  0.477867  1
  Si  Si713  1  0.275570  0.902704  0.477863  1
  Si  Si714  1  0.627263  0.724380  0.477870  1
  Si  Si715  1  0.569561  0.608779  0.562190  1
  Si  Si716  1  0.391204  0.960546  0.562159  1
  Si  Si717  1  0.569583  0.960660  0.562171  1
  Si  Si718  1  0.039447  0.608846  0.562198  1
  Si  Si719  1  0.511528  0.845340  0.588714  1
  Si  Si720  1  0.154818  0.666102  0.588735  1
  Si  Si721  1  0.334087  0.845353  0.588714  1
  Si  Si722  1  0.511509  0.666070  0.588729  1
  Si  Si723  1  0.512024  0.667188  0.451319  1
  Si  Si724  1  0.332746  0.844646  0.451311  1
  Si  Si725  1  0.511981  0.844612  0.451323  1
  Si  Si726  1  0.155293  0.667199  0.451314  1
  Si  Si727  1  -0.000000  0.821361  0.595160  1
  Si  Si728  1  0.179755  0.000000  0.679738  1
  Si  Si729  1  0.821676  0.821872  0.732593  1
  Si  Si730  1  0.821946  0.821165  0.648012  1
  Si  Si731  1  -0.000000  0.821108  0.648009  1
  Si  Si732  1  0.822259  0.821387  0.595188  1
  Si  Si733  1  -0.000000  0.821290  0.679731  1
  Si  Si734  1  0.821687  0.821315  0.679737  1
  Si  Si735  1  0.178391  0.000000  0.732603  1
  Si  Si736  1  0.602548  0.576769  0.604342  1
  Si  Si737  1  0.974387  0.576490  0.604318  1
  Si  Si738  1  0.577026  0.974226  0.723434  1
  Si  Si739  1  0.025980  0.602158  0.723430  1
  Si  Si740  1  0.576888  0.602370  0.723411  1
  Si  Si741  1  0.398047  0.974050  0.723472  1
  Si  Si742  1  0.942629  0.706168  0.621715  1
  Si  Si743  1  0.764279  0.706089  0.621732  1
  Si  Si744  1  0.706641  0.763844  0.706022  1
  Si  Si745  1  0.236523  0.942046  0.706072  1
  Si  Si746  1  0.058118  0.763804  0.706049  1
  Si  Si747  1  0.706456  0.942073  0.706029  1
  Si  Si748  1  0.821724  0.000000  0.732577  1
  Si  Si749  1  -0.000000  0.821896  0.732593  1
  Si  Si750  1  0.821397  -0.000000  0.679734  1
  Si  Si751  1  0.960708  0.569425  0.765556  1
  Si  Si752  1  0.845508  0.511325  0.739001  1
  Si  Si753  1  0.666254  0.511323  0.739000  1
  Si  Si754  1  0.609015  0.569423  0.765539  1
  Si  Si755  1  0.666573  0.512201  0.791848  1
  Si  Si756  1  0.845778  0.512164  0.791848  1
  Si  Si757  1  0.845582  0.512377  0.823568  1
  Si  Si758  1  0.666896  0.512385  0.823568  1
  Si  Si759  1  0.269249  0.909743  0.748181  1
  Si  Si760  1  0.641130  0.730998  0.748143  1
  Si  Si761  1  0.090381  0.730844  0.748156  1
  Si  Si762  1  0.641327  0.909983  0.748174  1
  H  H763  1  0.100609  0.413726  0.051898  1
  H  H764  1  0.313249  0.413779  0.051897  1
  H  H765  1  0.586223  0.686703  0.051899  1
  H  H766  1  0.313257  0.899300  0.051890  1
  H  H767  1  0.586252  0.899348  0.051896  1
  H  H768  1  0.100614  0.686695  0.051896  1
  H  H769  1  0.413882  0.313206  0.844329  1
  H  H770  1  0.686921  0.100622  0.844327  1
  H  H771  1  0.413929  0.100595  0.844331  1
  H  H772  1  0.899536  0.313300  0.844328  1
  H  H773  1  0.899432  0.586162  0.844329  1
  H  H774  1  0.686826  0.586170  0.844329  1
