# generated using pymatgen
data_Si9H2O19
_symmetry_space_group_name_H-M   'P 1'
_cell_length_a   8.73685056
_cell_length_b   12.35561169
_cell_length_c   56.29424336
_cell_angle_alpha   134.99932688
_cell_angle_beta   90.00000000
_cell_angle_gamma   90.00000000
_symmetry_Int_Tables_number   1
_chemical_formula_structural   Si9H2O19
_chemical_formula_sum   'Si36 H8 O76'
_cell_volume   4297.07811578
_cell_formula_units_Z   4
loop_
 _symmetry_equiv_pos_site_id
 _symmetry_equiv_pos_as_xyz
  1  'x, y, z'
loop_
 _atom_site_type_symbol
 _atom_site_label
 _atom_site_symmetry_multiplicity
 _atom_site_fract_x
 _atom_site_fract_y
 _atom_site_fract_z
 _atom_site_occupancy
  O  O1  1  0.145398  0.500107  0.196672  1
  O  O2  1  0.645398  0.000000  0.196672  1
  O  O3  1  0.500284  0.854912  0.141595  1
  O  O4  1  0.000000  0.354913  0.141595  1
  O  O5  1  0.855105  0.145253  0.241723  1
  O  O6  1  0.355105  0.645254  0.241723  1
  O  O7  1  0.855079  0.500013  0.196658  1
  O  O8  1  0.355079  0.000000  0.196658  1
  O  O9  1  0.145410  0.145218  0.241716  1
  O  O10  1  0.645409  0.645217  0.241716  1
  O  O11  1  0.145399  0.500143  0.241733  1
  O  O12  1  0.645399  -0.000000  0.241733  1
  O  O13  1  0.500276  0.854933  0.251738  1
  O  O14  1  0.000000  0.354934  0.251738  1
  O  O15  1  0.855081  0.500073  0.241723  1
  O  O16  1  0.355081  -0.000000  0.241723  1
  O  O17  1  0.145374  0.854914  0.196672  1
  O  O18  1  0.645373  0.354914  0.196672  1
  O  O19  1  0.500207  0.145256  0.141602  1
  O  O20  1  -0.000000  0.645255  0.141602  1
  O  O21  1  0.855069  0.854950  0.196675  1
  O  O22  1  0.355069  0.354950  0.196675  1
  O  O23  1  0.500191  0.145235  0.186655  1
  O  O24  1  0.000000  0.645234  0.186655  1
  O  O25  1  0.145398  0.500107  0.351868  1
  O  O26  1  0.645398  0.000000  0.351868  1
  O  O27  1  0.500284  0.854912  0.296791  1
  O  O28  1  0.000000  0.354913  0.296791  1
  O  O29  1  0.855105  0.145253  0.396919  1
  O  O30  1  0.355105  0.645254  0.396919  1
  O  O31  1  0.855079  0.500013  0.351854  1
  O  O32  1  0.355079  0.000000  0.351853  1
  O  O33  1  0.145410  0.145218  0.396912  1
  O  O34  1  0.645409  0.645217  0.396912  1
  O  O35  1  0.145399  0.500143  0.396929  1
  O  O36  1  0.645399  0.000000  0.396929  1
  O  O37  1  0.500276  0.854933  0.406934  1
  O  O38  1  0.000000  0.354934  0.406934  1
  O  O39  1  0.855081  0.500073  0.396919  1
  O  O40  1  0.355081  0.000000  0.396919  1
  O  O41  1  0.145374  0.854914  0.351868  1
  O  O42  1  0.645373  0.354914  0.351868  1
  O  O43  1  0.500207  0.145256  0.296798  1
  O  O44  1  -0.000000  0.645255  0.296798  1
  O  O45  1  0.855069  0.854950  0.351871  1
  O  O46  1  0.355069  0.354950  0.351871  1
  O  O47  1  0.500191  0.145235  0.341851  1
  O  O48  1  0.000000  0.645234  0.341851  1
  O  O49  1  0.145398  0.500107  0.507064  1
  O  O50  1  0.645398  0.000000  0.507064  1
  O  O51  1  0.500284  0.854912  0.451987  1
  O  O52  1  0.000000  0.354913  0.451987  1
  O  O53  1  0.855105  0.145253  0.552115  1
  O  O54  1  0.355105  0.645254  0.552115  1
  O  O55  1  0.855079  0.500013  0.507049  1
  O  O56  1  0.355079  0.000000  0.507049  1
  O  O57  1  0.145410  0.145218  0.552108  1
  O  O58  1  0.645409  0.645217  0.552108  1
  O  O59  1  0.145399  0.500143  0.552125  1
  O  O60  1  0.645399  0.000000  0.552125  1
  O  O61  1  0.500276  0.854933  0.562130  1
  O  O62  1  0.000000  0.354934  0.562130  1
  O  O63  1  0.855081  0.500073  0.552114  1
  O  O64  1  0.355081  0.000000  0.552115  1
  O  O65  1  0.145374  0.854914  0.507063  1
  O  O66  1  0.645373  0.354914  0.507063  1
  O  O67  1  0.500207  0.145256  0.451994  1
  O  O68  1  0.000000  0.645255  0.451994  1
  O  O69  1  0.855069  0.854950  0.507067  1
  O  O70  1  0.355069  0.354950  0.507067  1
  O  O71  1  0.500191  0.145235  0.497047  1
  O  O72  1  0.000000  0.645234  0.497047  1
  O  O73  1  0.500284  0.854912  0.607183  1
  O  O74  1  0.000000  0.354913  0.607183  1
  O  O75  1  0.500207  0.145256  0.607190  1
  O  O76  1  0.000000  0.645255  0.607189  1
  Si  Si77  1  -0.000000  0.500066  0.180395  1
  Si  Si78  1  0.500238  0.000000  0.180395  1
  Si  Si79  1  0.500271  0.750082  0.257992  1
  Si  Si80  1  0.000000  0.250081  0.257992  1
  Si  Si81  1  0.750242  -0.000000  0.219201  1
  Si  Si82  1  0.250241  0.500114  0.219201  1
  Si  Si83  1  0.250237  0.000000  0.219192  1
  Si  Si84  1  0.750238  0.500053  0.219192  1
  Si  Si85  1  0.000000  0.500102  0.257998  1
  Si  Si86  1  0.500241  -0.000000  0.257998  1
  Si  Si87  1  -0.000000  0.750086  0.180401  1
  Si  Si88  1  0.500208  0.250086  0.180401  1
  Si  Si89  1  0.000000  0.500066  0.335591  1
  Si  Si90  1  0.500238  0.000000  0.335590  1
  Si  Si91  1  0.500271  0.750082  0.413188  1
  Si  Si92  1  -0.000000  0.250081  0.413188  1
  Si  Si93  1  0.750242  0.000000  0.374397  1
  Si  Si94  1  0.250241  0.500114  0.374397  1
  Si  Si95  1  0.250237  0.000000  0.374388  1
  Si  Si96  1  0.750238  0.500053  0.374388  1
  Si  Si97  1  0.000000  0.500102  0.413194  1
  Si  Si98  1  0.500241  -0.000000  0.413194  1
  Si  Si99  1  -0.000000  0.750086  0.335597  1
  Si  Si100  1  0.500208  0.250086  0.335596  1
  Si  Si101  1  0.000000  0.500066  0.490787  1
  Si  Si102  1  0.500238  0.000000  0.490786  1
  Si  Si103  1  0.500271  0.750082  0.568384  1
  Si  Si104  1  0.000000  0.250081  0.568384  1
  Si  Si105  1  0.750242  0.000000  0.529593  1
  Si  Si106  1  0.250241  0.500114  0.529593  1
  Si  Si107  1  0.250237  0.000000  0.529584  1
  Si  Si108  1  0.750238  0.500053  0.529584  1
  Si  Si109  1  0.000000  0.500102  0.568390  1
  Si  Si110  1  0.500241  0.000000  0.568390  1
  Si  Si111  1  -0.000000  0.750086  0.490792  1
  Si  Si112  1  0.500208  0.250086  0.490792  1
  H  H113  1  0.500284  0.854912  0.125608  1
  H  H114  1  -0.000000  0.354913  0.125608  1
  H  H115  1  0.500207  0.145256  0.125615  1
  H  H116  1  -0.000000  0.645255  0.125614  1
  H  H117  1  0.500284  0.854912  0.623170  1
  H  H118  1  0.000000  0.354913  0.623170  1
  H  H119  1  0.500207  0.145256  0.623177  1
  H  H120  1  0.000000  0.645255  0.623177  1
