# generated using pymatgen
data_Si16H2O33
_symmetry_space_group_name_H-M   'P 1'
_cell_length_a   8.29678981
_cell_length_b   31.32088306
_cell_length_c   54.65521053
_cell_angle_alpha   117.84520996
_cell_angle_beta   90.00000000
_cell_angle_gamma   90.00000000
_symmetry_Int_Tables_number   1
_chemical_formula_structural   Si16H2O33
_chemical_formula_sum   'Si128 H16 O264'
_cell_volume   12558.3447673
_cell_formula_units_Z   8
loop_
 _symmetry_equiv_pos_site_id
 _symmetry_equiv_pos_as_xyz
  1  'x, y, z'
loop_
 _atom_site_type_symbol
 _atom_site_label
 _atom_site_symmetry_multiplicity
 _atom_site_fract_x
 _atom_site_fract_y
 _atom_site_fract_z
 _atom_site_occupancy
  O  O1  1  0.249931  0.795071  0.207831  1
  O  O2  1  0.749946  0.295071  0.207839  1
  O  O3  1  0.749940  0.795070  0.207830  1
  O  O4  1  0.249912  0.295072  0.207840  1
  O  O5  1  0.230270  0.820226  0.170229  1
  O  O6  1  0.730228  0.320225  0.170238  1
  O  O7  1  0.769525  0.320221  0.258909  1
  O  O8  1  0.269569  0.820219  0.258900  1
  O  O9  1  0.769601  0.820226  0.170229  1
  O  O10  1  0.269630  0.320226  0.170238  1
  O  O11  1  0.230334  0.320222  0.258909  1
  O  O12  1  0.730301  0.820219  0.258900  1
  O  O13  1  0.257832  0.730761  0.158753  1
  O  O14  1  0.757837  0.230761  0.158762  1
  O  O15  1  0.742079  0.230756  0.222482  1
  O  O16  1  0.242074  0.730755  0.222472  1
  O  O17  1  0.742038  0.730760  0.158753  1
  O  O18  1  0.242022  0.230762  0.158762  1
  O  O19  1  0.257778  0.230756  0.222482  1
  O  O20  1  0.757798  0.730755  0.222472  1
  O  O21  1  0.499935  0.788038  0.178298  1
  O  O22  1  0.000000  0.288046  0.178304  1
  O  O23  1  0.499929  0.288011  0.233594  1
  O  O24  1  -0.000000  0.788019  0.233593  1
  O  O25  1  0.755249  0.355584  0.137809  1
  O  O26  1  0.255332  0.855583  0.137799  1
  O  O27  1  0.755254  0.644533  0.119929  1
  O  O28  1  0.255327  0.144535  0.119939  1
  O  O29  1  0.244479  0.144533  0.215144  1
  O  O30  1  0.744400  0.644532  0.215134  1
  O  O31  1  0.244617  0.644533  0.119929  1
  O  O32  1  0.744531  0.144534  0.119939  1
  O  O33  1  0.244610  0.355585  0.137809  1
  O  O34  1  0.744539  0.855582  0.137799  1
  O  O35  1  0.755380  0.144533  0.215144  1
  O  O36  1  0.255470  0.644533  0.215135  1
  O  O37  1  0.750028  0.665472  0.173134  1
  O  O38  1  0.249976  0.165473  0.173145  1
  O  O39  1  0.249844  0.665472  0.173134  1
  O  O40  1  0.749882  0.165473  0.173145  1
  O  O41  1  -0.000000  0.682991  0.151909  1
  O  O42  1  0.499929  0.183004  0.151937  1
  O  O43  1  0.000000  0.182982  0.203712  1
  O  O44  1  0.499936  0.682994  0.203690  1
  O  O45  1  0.499930  0.370797  0.167018  1
  O  O46  1  0.000000  0.870752  0.166977  1
  O  O47  1  0.499929  0.129409  0.236200  1
  O  O48  1  -0.000000  0.629456  0.236182  1
  O  O49  1  0.240664  0.410511  0.192383  1
  O  O50  1  0.740842  0.910521  0.192378  1
  O  O51  1  0.758884  0.089594  0.240314  1
  O  O52  1  0.258698  0.589580  0.240302  1
  O  O53  1  0.759198  0.410510  0.192383  1
  O  O54  1  0.259025  0.910521  0.192378  1
  O  O55  1  0.240976  0.089594  0.240314  1
  O  O56  1  0.741172  0.589580  0.240303  1
  O  O57  1  0.249175  0.434741  0.245222  1
  O  O58  1  0.749717  0.934739  0.245218  1
  O  O59  1  0.750687  0.434740  0.245222  1
  O  O60  1  0.250150  0.934740  0.245218  1
  O  O61  1  0.499933  0.551289  0.251650  1
  O  O62  1  -0.000000  0.050959  0.251475  1
  O  O63  1  0.499933  0.949418  0.224216  1
  O  O64  1  0.000000  0.449743  0.224211  1
  O  O65  1  0.251017  0.500042  0.230668  1
  O  O66  1  0.750239  -0.000000  0.230670  1
  O  O67  1  0.748846  0.500041  0.230667  1
  O  O68  1  0.249626  -0.000000  0.230670  1
  O  O69  1  0.249935  0.205047  0.317577  1
  O  O70  1  0.749953  0.705046  0.317567  1
  O  O71  1  0.249931  0.795071  0.475500  1
  O  O72  1  0.749946  0.295071  0.475508  1
  O  O73  1  0.749940  0.795070  0.475499  1
  O  O74  1  0.249912  0.295072  0.475508  1
  O  O75  1  0.749923  0.205046  0.317576  1
  O  O76  1  0.249917  0.705046  0.317567  1
  O  O77  1  0.230261  0.179891  0.355177  1
  O  O78  1  0.730235  0.679891  0.355168  1
  O  O79  1  0.230270  0.820226  0.437898  1
  O  O80  1  0.730228  0.320225  0.437907  1
  O  O81  1  0.769530  0.679895  0.266497  1
  O  O82  1  0.269561  0.179898  0.266506  1
  O  O83  1  0.769525  0.320221  0.526578  1
  O  O84  1  0.269569  0.820219  0.526569  1
  O  O85  1  0.769601  0.820226  0.437898  1
  O  O86  1  0.269630  0.320226  0.437907  1
  O  O87  1  0.769597  0.179891  0.355177  1
  O  O88  1  0.269637  0.679892  0.355168  1
  O  O89  1  0.230334  0.320222  0.526578  1
  O  O90  1  0.730301  0.820219  0.526569  1
  O  O91  1  0.230340  0.679896  0.266497  1
  O  O92  1  0.730298  0.179898  0.266507  1
  O  O93  1  0.257820  0.269357  0.366654  1
  O  O94  1  0.757842  0.769356  0.366644  1
  O  O95  1  0.257832  0.730761  0.426421  1
  O  O96  1  0.757837  0.230761  0.426431  1
  O  O97  1  0.742086  0.769361  0.302925  1
  O  O98  1  0.242060  0.269362  0.302935  1
  O  O99  1  0.742079  0.230756  0.490150  1
  O  O100  1  0.242074  0.730755  0.490141  1
  O  O101  1  0.742038  0.730760  0.426421  1
  O  O102  1  0.242022  0.230762  0.426431  1
  O  O103  1  0.742039  0.269357  0.366654  1
  O  O104  1  0.242028  0.769356  0.366644  1
  O  O105  1  0.257778  0.230756  0.490150  1
  O  O106  1  0.757798  0.730755  0.490141  1
  O  O107  1  0.257786  0.769361  0.302925  1
  O  O108  1  0.757797  0.269361  0.302935  1
  O  O109  1  0.499929  0.212082  0.347111  1
  O  O110  1  -0.000000  0.712071  0.347103  1
  O  O111  1  0.499935  0.788038  0.445967  1
  O  O112  1  0.000000  0.288046  0.445972  1
  O  O113  1  0.499936  0.712106  0.291813  1
  O  O114  1  -0.000000  0.212096  0.291815  1
  O  O115  1  0.499929  0.288011  0.501263  1
  O  O116  1  0.000000  0.788019  0.501262  1
  O  O117  1  0.755249  0.355584  0.405477  1
  O  O118  1  0.255332  0.855583  0.405468  1
  O  O119  1  0.755254  0.644533  0.387598  1
  O  O120  1  0.255327  0.144535  0.387608  1
  O  O121  1  0.244484  0.855584  0.310263  1
  O  O122  1  0.744395  0.355584  0.310272  1
  O  O123  1  0.244479  0.144533  0.482813  1
  O  O124  1  0.744400  0.644532  0.482803  1
  O  O125  1  0.244617  0.644533  0.387598  1
  O  O126  1  0.744531  0.144534  0.387608  1
  O  O127  1  0.244610  0.355585  0.405478  1
  O  O128  1  0.744539  0.855582  0.405468  1
  O  O129  1  0.755380  0.144533  0.482813  1
  O  O130  1  0.255470  0.644533  0.482803  1
  O  O131  1  0.755386  0.855584  0.310263  1
  O  O132  1  0.255464  0.355584  0.310272  1
  O  O133  1  0.750012  0.334645  0.352273  1
  O  O134  1  0.249983  0.834644  0.352262  1
  O  O135  1  0.750028  0.665472  0.440803  1
  O  O136  1  0.249976  0.165473  0.440814  1
  O  O137  1  0.249844  0.665472  0.440803  1
  O  O138  1  0.749882  0.165473  0.440814  1
  O  O139  1  0.249846  0.334645  0.352273  1
  O  O140  1  0.749888  0.834644  0.352262  1
  O  O141  1  0.000000  0.317129  0.373496  1
  O  O142  1  0.499935  0.817114  0.373470  1
  O  O143  1  0.000000  0.682991  0.419578  1
  O  O144  1  0.499929  0.183004  0.419606  1
  O  O145  1  -0.000000  0.817135  0.321695  1
  O  O146  1  0.499929  0.317120  0.321714  1
  O  O147  1  0.000000  0.182982  0.471381  1
  O  O148  1  0.499936  0.682994  0.471359  1
  O  O149  1  0.499930  0.370797  0.434687  1
  O  O150  1  -0.000000  0.870752  0.434646  1
  O  O151  1  0.499935  0.629320  0.358388  1
  O  O152  1  -0.000000  0.129364  0.358430  1
  O  O153  1  0.499935  0.870709  0.289207  1
  O  O154  1  -0.000000  0.370662  0.289225  1
  O  O155  1  0.499929  0.129409  0.503869  1
  O  O156  1  -0.000000  0.629456  0.503851  1
  O  O157  1  0.240664  0.410511  0.460052  1
  O  O158  1  0.740842  0.910521  0.460047  1
  O  O159  1  0.240665  0.589607  0.333024  1
  O  O160  1  0.740839  0.089596  0.333028  1
  O  O161  1  0.758889  0.910523  0.285093  1
  O  O162  1  0.258694  0.410537  0.285104  1
  O  O163  1  0.758884  0.089594  0.507983  1
  O  O164  1  0.258698  0.589580  0.507971  1
  O  O165  1  0.759202  0.589606  0.333023  1
  O  O166  1  0.259022  0.089596  0.333028  1
  O  O167  1  0.759198  0.410510  0.460052  1
  O  O168  1  0.259025  0.910521  0.460047  1
  O  O169  1  0.240976  0.089594  0.507983  1
  O  O170  1  0.741172  0.589580  0.507972  1
  O  O171  1  0.240980  0.910523  0.285093  1
  O  O172  1  0.741165  0.410537  0.285104  1
  O  O173  1  0.249175  0.434741  0.512891  1
  O  O174  1  0.749717  0.934739  0.512887  1
  O  O175  1  0.249178  0.565377  0.280185  1
  O  O176  1  0.749715  0.065377  0.280189  1
  O  O177  1  0.750688  0.565376  0.280184  1
  O  O178  1  0.250148  0.065378  0.280189  1
  O  O179  1  0.750687  0.434740  0.512891  1
  O  O180  1  0.250150  0.934740  0.512887  1
  O  O181  1  0.499931  0.448828  0.273756  1
  O  O182  1  -0.000000  0.949159  0.273932  1
  O  O183  1  0.499933  0.551289  0.519319  1
  O  O184  1  0.000000  0.050959  0.519144  1
  O  O185  1  0.499933  0.949418  0.491885  1
  O  O186  1  0.000000  0.449743  0.491880  1
  O  O187  1  0.499931  0.050699  0.301190  1
  O  O188  1  0.000000  0.550374  0.301195  1
  O  O189  1  0.251018  0.500076  0.294739  1
  O  O190  1  0.750238  -0.000000  0.294736  1
  O  O191  1  0.251017  0.500042  0.498337  1
  O  O192  1  0.750239  0.000000  0.498339  1
  O  O193  1  0.748846  0.500041  0.498336  1
  O  O194  1  0.249626  -0.000000  0.498339  1
  O  O195  1  0.748848  0.500076  0.294739  1
  O  O196  1  0.249625  -0.000000  0.294737  1
  O  O197  1  0.249935  0.205047  0.585245  1
  O  O198  1  0.749953  0.705046  0.585236  1
  O  O199  1  0.749923  0.205046  0.585245  1
  O  O200  1  0.249917  0.705046  0.585236  1
  O  O201  1  0.230261  0.179891  0.622846  1
  O  O202  1  0.730235  0.679891  0.622837  1
  O  O203  1  0.769530  0.679895  0.534166  1
  O  O204  1  0.269561  0.179898  0.534175  1
  O  O205  1  0.769597  0.179891  0.622846  1
  O  O206  1  0.269637  0.679892  0.622837  1
  O  O207  1  0.230340  0.679896  0.534166  1
  O  O208  1  0.730298  0.179898  0.534176  1
  O  O209  1  0.257820  0.269357  0.634323  1
  O  O210  1  0.757842  0.769356  0.634313  1
  O  O211  1  0.742086  0.769361  0.570594  1
  O  O212  1  0.242060  0.269362  0.570604  1
  O  O213  1  0.742039  0.269357  0.634323  1
  O  O214  1  0.242028  0.769356  0.634313  1
  O  O215  1  0.257786  0.769361  0.570594  1
  O  O216  1  0.757797  0.269361  0.570604  1
  O  O217  1  0.499929  0.212082  0.614780  1
  O  O218  1  0.000000  0.712071  0.614772  1
  O  O219  1  0.499936  0.712106  0.559481  1
  O  O220  1  0.000000  0.212096  0.559484  1
  O  O221  1  0.755249  0.355584  0.673146  1
  O  O222  1  0.255332  0.855583  0.673137  1
  O  O223  1  0.755254  0.644533  0.655267  1
  O  O224  1  0.255327  0.144535  0.655277  1
  O  O225  1  0.244484  0.855584  0.577931  1
  O  O226  1  0.744395  0.355584  0.577941  1
  O  O227  1  0.244617  0.644533  0.655267  1
  O  O228  1  0.744531  0.144534  0.655277  1
  O  O229  1  0.244610  0.355585  0.673147  1
  O  O230  1  0.744539  0.855582  0.673136  1
  O  O231  1  0.755386  0.855584  0.577932  1
  O  O232  1  0.255464  0.355584  0.577941  1
  O  O233  1  0.750012  0.334645  0.619941  1
  O  O234  1  0.249983  0.834644  0.619930  1
  O  O235  1  0.249846  0.334645  0.619941  1
  O  O236  1  0.749888  0.834644  0.619930  1
  O  O237  1  0.000000  0.317129  0.641165  1
  O  O238  1  0.499935  0.817114  0.641139  1
  O  O239  1  0.000000  0.817135  0.589364  1
  O  O240  1  0.499929  0.317120  0.589383  1
  O  O241  1  0.499935  0.629320  0.626057  1
  O  O242  1  0.000000  0.129364  0.626099  1
  O  O243  1  0.499935  0.870709  0.556876  1
  O  O244  1  0.000000  0.370662  0.556894  1
  O  O245  1  0.240665  0.589607  0.600693  1
  O  O246  1  0.740839  0.089596  0.600697  1
  O  O247  1  0.758889  0.910523  0.552762  1
  O  O248  1  0.258694  0.410537  0.552773  1
  O  O249  1  0.759202  0.589606  0.600692  1
  O  O250  1  0.259022  0.089596  0.600697  1
  O  O251  1  0.240980  0.910523  0.552762  1
  O  O252  1  0.741165  0.410537  0.552773  1
  O  O253  1  0.249178  0.565377  0.547853  1
  O  O254  1  0.749715  0.065377  0.547857  1
  O  O255  1  0.750688  0.565376  0.547853  1
  O  O256  1  0.250148  0.065378  0.547858  1
  O  O257  1  0.499931  0.448828  0.541425  1
  O  O258  1  -0.000000  0.949159  0.541601  1
  O  O259  1  0.499931  0.050699  0.568859  1
  O  O260  1  0.000000  0.550374  0.568864  1
  O  O261  1  0.251018  0.500076  0.562408  1
  O  O262  1  0.750238  0.000000  0.562405  1
  O  O263  1  0.748848  0.500076  0.562408  1
  O  O264  1  0.249625  0.000000  0.562406  1
  Si  Si265  1  0.311972  0.783891  0.178369  1
  Si  Si266  1  0.811966  0.283894  0.178377  1
  Si  Si267  1  0.687894  0.283884  0.231312  1
  Si  Si268  1  0.187900  0.783885  0.231305  1
  Si  Si269  1  0.687899  0.783891  0.178369  1
  Si  Si270  1  0.187892  0.283894  0.178377  1
  Si  Si271  1  0.311964  0.283884  0.231312  1
  Si  Si272  1  0.811971  0.783885  0.231305  1
  Si  Si273  1  0.812359  0.679126  0.150398  1
  Si  Si274  1  0.312355  0.179130  0.150412  1
  Si  Si275  1  0.187503  0.179121  0.203182  1
  Si  Si276  1  0.687506  0.679123  0.203169  1
  Si  Si277  1  0.187512  0.679126  0.150398  1
  Si  Si278  1  0.687503  0.179130  0.150413  1
  Si  Si279  1  0.812355  0.179120  0.203182  1
  Si  Si280  1  0.312365  0.679123  0.203169  1
  Si  Si281  1  0.313241  0.365753  0.166942  1
  Si  Si282  1  0.813245  0.865744  0.166926  1
  Si  Si283  1  0.686619  0.134387  0.238834  1
  Si  Si284  1  0.186626  0.634396  0.238823  1
  Si  Si285  1  0.686618  0.365753  0.166942  1
  Si  Si286  1  0.186625  0.865744  0.166926  1
  Si  Si287  1  0.313240  0.134388  0.238834  1
  Si  Si288  1  0.813244  0.634395  0.238823  1
  Si  Si289  1  0.313013  0.552476  0.250317  1
  Si  Si290  1  0.813008  0.052415  0.250283  1
  Si  Si291  1  0.686858  0.947753  0.222248  1
  Si  Si292  1  0.186858  0.447815  0.222247  1
  Si  Si293  1  0.686853  0.552476  0.250317  1
  Si  Si294  1  0.186854  0.052415  0.250283  1
  Si  Si295  1  0.313008  0.947753  0.222248  1
  Si  Si296  1  0.813005  0.447815  0.222247  1
  Si  Si297  1  0.311966  0.216227  0.347038  1
  Si  Si298  1  0.811973  0.716223  0.347030  1
  Si  Si299  1  0.311972  0.783891  0.446038  1
  Si  Si300  1  0.811966  0.283894  0.446046  1
  Si  Si301  1  0.687900  0.716233  0.294094  1
  Si  Si302  1  0.187893  0.216231  0.294102  1
  Si  Si303  1  0.687894  0.283884  0.498981  1
  Si  Si304  1  0.187900  0.783885  0.498974  1
  Si  Si305  1  0.687899  0.783891  0.446038  1
  Si  Si306  1  0.187892  0.283894  0.446046  1
  Si  Si307  1  0.687892  0.216227  0.347039  1
  Si  Si308  1  0.187898  0.716224  0.347030  1
  Si  Si309  1  0.311964  0.283884  0.498981  1
  Si  Si310  1  0.811971  0.783885  0.498974  1
  Si  Si311  1  0.311971  0.716233  0.294094  1
  Si  Si312  1  0.811965  0.216231  0.294102  1
  Si  Si313  1  0.812353  0.320992  0.375009  1
  Si  Si314  1  0.312361  0.820988  0.374994  1
  Si  Si315  1  0.812359  0.679126  0.418066  1
  Si  Si316  1  0.312355  0.179130  0.418081  1
  Si  Si317  1  0.187509  0.820997  0.322224  1
  Si  Si318  1  0.687500  0.320993  0.322237  1
  Si  Si319  1  0.187503  0.179121  0.470851  1
  Si  Si320  1  0.687506  0.679123  0.470838  1
  Si  Si321  1  0.187512  0.679126  0.418066  1
  Si  Si322  1  0.687503  0.179130  0.418081  1
  Si  Si323  1  0.187506  0.320992  0.375009  1
  Si  Si324  1  0.687509  0.820987  0.374994  1
  Si  Si325  1  0.812355  0.179120  0.470851  1
  Si  Si326  1  0.312365  0.679123  0.470838  1
  Si  Si327  1  0.812362  0.820996  0.322224  1
  Si  Si328  1  0.312358  0.320993  0.322237  1
  Si  Si329  1  0.313241  0.365753  0.434610  1
  Si  Si330  1  0.813245  0.865744  0.434595  1
  Si  Si331  1  0.313246  0.634364  0.358465  1
  Si  Si332  1  0.813240  0.134373  0.358481  1
  Si  Si333  1  0.686625  0.865729  0.286572  1
  Si  Si334  1  0.186620  0.365722  0.286584  1
  Si  Si335  1  0.686619  0.134387  0.506503  1
  Si  Si336  1  0.186626  0.634396  0.506492  1
  Si  Si337  1  0.686624  0.634364  0.358465  1
  Si  Si338  1  0.186619  0.134373  0.358481  1
  Si  Si339  1  0.686618  0.365753  0.434610  1
  Si  Si340  1  0.186625  0.865744  0.434595  1
  Si  Si341  1  0.313240  0.134388  0.506503  1
  Si  Si342  1  0.813244  0.634395  0.506492  1
  Si  Si343  1  0.313245  0.865730  0.286573  1
  Si  Si344  1  0.813239  0.365722  0.286584  1
  Si  Si345  1  0.313012  0.447641  0.275090  1
  Si  Si346  1  0.813010  0.947702  0.275124  1
  Si  Si347  1  0.313013  0.552476  0.517986  1
  Si  Si348  1  0.813008  0.052415  0.517952  1
  Si  Si349  1  0.686858  0.947753  0.489917  1
  Si  Si350  1  0.186858  0.447815  0.489916  1
  Si  Si351  1  0.686856  0.052364  0.303159  1
  Si  Si352  1  0.186860  0.552302  0.303159  1
  Si  Si353  1  0.686853  0.552476  0.517986  1
  Si  Si354  1  0.186854  0.052415  0.517952  1
  Si  Si355  1  0.686851  0.447641  0.275090  1
  Si  Si356  1  0.186856  0.947702  0.275124  1
  Si  Si357  1  0.313006  0.052364  0.303159  1
  Si  Si358  1  0.813007  0.552302  0.303159  1
  Si  Si359  1  0.313008  0.947753  0.489917  1
  Si  Si360  1  0.813005  0.447815  0.489916  1
  Si  Si361  1  0.311966  0.216227  0.614707  1
  Si  Si362  1  0.811973  0.716223  0.614698  1
  Si  Si363  1  0.687900  0.716233  0.561763  1
  Si  Si364  1  0.187893  0.216231  0.561771  1
  Si  Si365  1  0.687892  0.216227  0.614707  1
  Si  Si366  1  0.187898  0.716224  0.614698  1
  Si  Si367  1  0.311971  0.716233  0.561763  1
  Si  Si368  1  0.811965  0.216231  0.561771  1
  Si  Si369  1  0.812353  0.320992  0.642678  1
  Si  Si370  1  0.312361  0.820988  0.642663  1
  Si  Si371  1  0.187509  0.820997  0.589893  1
  Si  Si372  1  0.687500  0.320993  0.589906  1
  Si  Si373  1  0.187506  0.320992  0.642678  1
  Si  Si374  1  0.687509  0.820987  0.642663  1
  Si  Si375  1  0.812362  0.820996  0.589893  1
  Si  Si376  1  0.312358  0.320993  0.589906  1
  Si  Si377  1  0.313246  0.634364  0.626134  1
  Si  Si378  1  0.813240  0.134373  0.626150  1
  Si  Si379  1  0.686625  0.865729  0.554241  1
  Si  Si380  1  0.186620  0.365722  0.554253  1
  Si  Si381  1  0.686624  0.634364  0.626134  1
  Si  Si382  1  0.186619  0.134373  0.626150  1
  Si  Si383  1  0.313245  0.865730  0.554242  1
  Si  Si384  1  0.813239  0.365722  0.554253  1
  Si  Si385  1  0.313012  0.447641  0.542759  1
  Si  Si386  1  0.813010  0.947702  0.542793  1
  Si  Si387  1  0.686856  0.052364  0.570827  1
  Si  Si388  1  0.186860  0.552302  0.570828  1
  Si  Si389  1  0.686851  0.447641  0.542759  1
  Si  Si390  1  0.186856  0.947702  0.542793  1
  Si  Si391  1  0.313006  0.052364  0.570827  1
  Si  Si392  1  0.813007  0.552302  0.570828  1
  H  H393  1  0.755249  0.355584  0.121342  1
  H  H394  1  0.255332  0.855583  0.121332  1
  H  H395  1  0.755254  0.644533  0.103462  1
  H  H396  1  0.255327  0.144535  0.103472  1
  H  H397  1  0.244617  0.644533  0.103462  1
  H  H398  1  0.744531  0.144534  0.103472  1
  H  H399  1  0.244610  0.355585  0.121342  1
  H  H400  1  0.744539  0.855582  0.121332  1
  H  H401  1  0.755249  0.355584  0.689613  1
  H  H402  1  0.255332  0.855583  0.689604  1
  H  H403  1  0.755254  0.644533  0.671734  1
  H  H404  1  0.255327  0.144535  0.671744  1
  H  H405  1  0.244617  0.644533  0.671734  1
  H  H406  1  0.744531  0.144534  0.671744  1
  H  H407  1  0.244610  0.355585  0.689613  1
  H  H408  1  0.744539  0.855582  0.689603  1
