# generated using pymatgen
data_Si6H2O13
_symmetry_space_group_name_H-M   'P 1'
_cell_length_a   17.25043091
_cell_length_b   17.25135508
_cell_length_c   30.40919187
_cell_angle_alpha   90.00000000
_cell_angle_beta   90.00000000
_cell_angle_gamma   120.00000000
_symmetry_Int_Tables_number   1
_chemical_formula_structural   Si6H2O13
_chemical_formula_sum   'Si36 H12 O78'
_cell_volume   7837.15927139
_cell_formula_units_Z   6
loop_
 _symmetry_equiv_pos_site_id
 _symmetry_equiv_pos_as_xyz
  1  'x, y, z'
loop_
 _atom_site_type_symbol
 _atom_site_label
 _atom_site_symmetry_multiplicity
 _atom_site_fract_x
 _atom_site_fract_y
 _atom_site_fract_z
 _atom_site_occupancy
  O  O1  1  0.997290  0.289562  0.414503  1
  O  O2  1  0.292369  0.289550  0.414496  1
  O  O3  1  0.289642  0.292293  0.256641  1
  O  O4  1  0.002754  0.292292  0.256648  1
  O  O5  1  -0.000000  0.250792  0.335575  1
  O  O6  1  0.250869  0.250784  0.335565  1
  O  O7  1  0.144394  0.288691  0.381668  1
  O  O8  1  0.288779  0.144324  0.289474  1
  O  O9  1  0.855642  0.144328  0.289481  1
  O  O10  1  0.104884  0.408205  0.358806  1
  O  O11  1  0.303428  0.408200  0.358800  1
  O  O12  1  0.408280  0.303329  0.312335  1
  O  O13  1  0.696607  0.104788  0.312343  1
  O  O14  1  0.408280  0.104790  0.312339  1
  O  O15  1  0.895150  0.303335  0.312340  1
  O  O16  1  0.686814  0.100520  0.477116  1
  O  O17  1  0.413793  0.313132  0.477122  1
  O  O18  1  0.899426  0.313145  0.477132  1
  O  O19  1  0.413780  0.100522  0.477116  1
  O  O20  1  0.100605  0.413729  0.194024  1
  O  O21  1  0.313223  0.413736  0.194020  1
  O  O22  1  0.676343  0.123665  0.393464  1
  O  O23  1  0.447438  0.323600  0.393451  1
  O  O24  1  0.876260  0.323605  0.393455  1
  O  O25  1  0.447424  0.123671  0.393462  1
  O  O26  1  0.123769  0.447365  0.277702  1
  O  O27  1  0.323708  0.447366  0.277698  1
  O  O28  1  0.826554  0.173342  0.428282  1
  O  O29  1  0.346876  0.173346  0.428274  1
  O  O30  1  0.173459  0.346808  0.242873  1
  O  O31  1  0.570669  0.429289  0.338104  1
  O  O32  1  0.570661  0.141213  0.338107  1
  O  O33  1  0.858712  0.429281  0.338110  1
  O  O34  1  0.742656  0.485227  0.343532  1
  O  O35  1  0.514727  0.257283  0.343526  1
  O  O36  1  0.742651  0.257274  0.343531  1
  O  O37  1  0.292379  0.002683  0.414500  1
  O  O38  1  0.710407  0.002694  0.414503  1
  O  O39  1  0.710402  0.707572  0.414502  1
  O  O40  1  0.997272  0.707561  0.414504  1
  O  O41  1  0.002749  0.710293  0.256650  1
  O  O42  1  0.707653  0.710303  0.256644  1
  O  O43  1  0.749168  0.749073  0.335571  1
  O  O44  1  0.250857  0.000000  0.335572  1
  O  O45  1  0.000000  0.749057  0.335575  1
  O  O46  1  0.711273  0.855568  0.381664  1
  O  O47  1  0.144396  0.855553  0.381662  1
  O  O48  1  0.855627  0.711151  0.289476  1
  O  O49  1  0.591754  0.696535  0.358804  1
  O  O50  1  0.303411  0.895073  0.358804  1
  O  O51  1  0.591768  0.895074  0.358806  1
  O  O52  1  0.104881  0.696524  0.358806  1
  O  O53  1  0.895149  0.591653  0.312345  1
  O  O54  1  0.696602  0.591657  0.312341  1
  O  O55  1  0.899420  0.586133  0.477128  1
  O  O56  1  0.686799  0.586137  0.477123  1
  O  O57  1  0.313206  0.899334  0.194021  1
  O  O58  1  0.586216  0.686734  0.194023  1
  O  O59  1  0.100606  0.686725  0.194027  1
  O  O60  1  0.586232  0.899347  0.194026  1
  O  O61  1  0.876269  0.552501  0.393457  1
  O  O62  1  0.676329  0.552508  0.393453  1
  O  O63  1  0.323702  0.876188  0.277699  1
  O  O64  1  0.552591  0.676274  0.277697  1
  O  O65  1  0.123779  0.676265  0.277701  1
  O  O66  1  0.552592  0.876189  0.277701  1
  O  O67  1  0.826575  0.653056  0.428280  1
  O  O68  1  0.173441  0.826488  0.242877  1
  O  O69  1  0.653157  0.826500  0.242871  1
  O  O70  1  0.429377  0.570585  0.333046  1
  O  O71  1  0.429383  0.858642  0.333055  1
  O  O72  1  0.141320  0.570578  0.333050  1
  O  O73  1  0.257371  0.514627  0.327627  1
  O  O74  1  0.485316  0.742588  0.327626  1
  O  O75  1  0.257376  0.742586  0.327627  1
  O  O76  1  0.707665  0.997194  0.256647  1
  O  O77  1  0.289630  0.997190  0.256643  1
  O  O78  1  0.749171  0.000000  0.335576  1
  Si  Si79  1  0.667261  0.155207  0.345903  1
  Si  Si80  1  0.488057  0.332683  0.345891  1
  Si  Si81  1  0.844721  0.332683  0.345899  1
  Si  Si82  1  0.064415  0.307725  0.374736  1
  Si  Si83  1  0.243405  0.307718  0.374728  1
  Si  Si84  1  0.307807  0.243327  0.296398  1
  Si  Si85  1  0.756625  0.064333  0.296408  1
  Si  Si86  1  0.307799  0.064329  0.296403  1
  Si  Si87  1  0.935624  0.243328  0.296407  1
  Si  Si88  1  0.724452  0.097062  0.429979  1
  Si  Si89  1  0.372715  0.275469  0.429962  1
  Si  Si90  1  0.902847  0.275476  0.429970  1
  Si  Si91  1  0.372701  0.097064  0.429973  1
  Si  Si92  1  0.097171  0.372645  0.241183  1
  Si  Si93  1  0.275583  0.372647  0.241179  1
  Si  Si94  1  0.332780  0.487985  0.325255  1
  Si  Si95  1  0.155318  0.487984  0.325259  1
  Si  Si96  1  0.488049  0.155211  0.345905  1
  Si  Si97  1  0.844717  0.511879  0.345900  1
  Si  Si98  1  0.667258  0.511890  0.345897  1
  Si  Si99  1  0.692232  0.756547  0.374738  1
  Si  Si100  1  0.243404  0.935535  0.374741  1
  Si  Si101  1  0.692231  0.935543  0.374746  1
  Si  Si102  1  0.064413  0.756535  0.374739  1
  Si  Si103  1  0.935611  0.692123  0.296406  1
  Si  Si104  1  0.756614  0.692126  0.296403  1
  Si  Si105  1  0.902859  0.627215  0.429973  1
  Si  Si106  1  0.724449  0.627217  0.429969  1
  Si  Si107  1  0.275566  0.902776  0.241181  1
  Si  Si108  1  0.627313  0.724381  0.241179  1
  Si  Si109  1  0.097165  0.724373  0.241182  1
  Si  Si110  1  0.627315  0.902784  0.241182  1
  Si  Si111  1  0.511985  0.844648  0.325257  1
  Si  Si112  1  0.155317  0.667178  0.325258  1
  Si  Si113  1  0.511969  0.667187  0.325256  1
  Si  Si114  1  0.332776  0.844649  0.325256  1
  H  H115  1  0.686814  0.100520  0.506713  1
  H  H116  1  0.413793  0.313132  0.506718  1
  H  H117  1  0.899426  0.313145  0.506728  1
  H  H118  1  0.413780  0.100522  0.506713  1
  H  H119  1  0.100605  0.413729  0.164428  1
  H  H120  1  0.313223  0.413736  0.164424  1
  H  H121  1  0.899420  0.586133  0.506724  1
  H  H122  1  0.686799  0.586137  0.506719  1
  H  H123  1  0.313206  0.899334  0.164425  1
  H  H124  1  0.586216  0.686734  0.164427  1
  H  H125  1  0.100606  0.686725  0.164430  1
  H  H126  1  0.586232  0.899347  0.164429  1
