# generated using pymatgen
data_Si32H2O65
_symmetry_space_group_name_H-M   'P 1'
_cell_length_a   13.79891269
_cell_length_b   6.95425229
_cell_length_c   66.80592283
_cell_angle_alpha   99.01600000
_cell_angle_beta   90.00000000
_cell_angle_gamma   90.00000000
_symmetry_Int_Tables_number   1
_chemical_formula_structural   Si32H2O65
_chemical_formula_sum   'Si64 H4 O130'
_cell_volume   6331.56365749
_cell_formula_units_Z   2
loop_
 _symmetry_equiv_pos_site_id
 _symmetry_equiv_pos_as_xyz
  1  'x, y, z'
loop_
 _atom_site_type_symbol
 _atom_site_label
 _atom_site_symmetry_multiplicity
 _atom_site_fract_x
 _atom_site_fract_y
 _atom_site_fract_z
 _atom_site_occupancy
  O  O1  1  0.137138  0.000000  0.089281  1
  O  O2  1  0.862595  0.000000  0.089252  1
  O  O3  1  0.000000  0.026714  0.399421  1
  O  O4  1  0.499869  0.026709  0.231944  1
  O  O5  1  -0.000000  0.973448  0.114070  1
  O  O6  1  0.499863  0.973463  0.281547  1
  O  O7  1  0.138226  0.071245  0.351231  1
  O  O8  1  0.638155  0.071212  0.183736  1
  O  O9  1  0.138151  0.928896  0.162292  1
  O  O10  1  0.638222  0.928891  0.329751  1
  O  O11  1  0.861502  0.928939  0.162258  1
  O  O12  1  0.361583  0.928921  0.329758  1
  O  O13  1  0.861595  0.071285  0.351195  1
  O  O14  1  0.361513  0.071239  0.183742  1
  O  O15  1  0.137138  0.000000  0.424235  1
  O  O16  1  0.637138  0.000000  0.256745  1
  O  O17  1  0.862595  0.000000  0.424205  1
  O  O18  1  0.362595  0.000000  0.256748  1
  O  O19  1  -0.000000  0.878260  0.331348  1
  O  O20  1  0.499834  0.878203  0.163877  1
  O  O21  1  0.000000  0.121938  0.182137  1
  O  O22  1  0.499904  0.121909  0.349619  1
  O  O23  1  0.173586  0.418698  0.369550  1
  O  O24  1  0.673532  0.418691  0.202057  1
  O  O25  1  0.173495  0.581409  0.143971  1
  O  O26  1  0.673547  0.581426  0.311431  1
  O  O27  1  0.826150  0.581483  0.143936  1
  O  O28  1  0.326202  0.581446  0.311439  1
  O  O29  1  0.826243  0.418768  0.369515  1
  O  O30  1  0.326189  0.418708  0.202065  1
  O  O31  1  0.690223  0.159378  0.361455  1
  O  O32  1  0.190128  0.159416  0.193995  1
  O  O33  1  0.690115  0.840774  0.152022  1
  O  O34  1  0.190209  0.840845  0.319515  1
  O  O35  1  0.309520  0.840756  0.152037  1
  O  O36  1  0.809602  0.840752  0.319492  1
  O  O37  1  0.309617  0.159361  0.361471  1
  O  O38  1  0.809536  0.159330  0.193973  1
  O  O39  1  0.170534  0.121539  0.388717  1
  O  O40  1  0.670449  0.121539  0.221222  1
  O  O41  1  0.170352  0.878532  0.124803  1
  O  O42  1  0.670435  0.878554  0.292263  1
  O  O43  1  0.829182  0.878670  0.124772  1
  O  O44  1  0.329303  0.878591  0.292270  1
  O  O45  1  0.829403  0.121679  0.388684  1
  O  O46  1  0.329281  0.121570  0.221229  1
  O  O47  1  0.873567  0.710792  0.350684  1
  O  O48  1  0.373483  0.710743  0.183228  1
  O  O49  1  0.873430  0.289436  0.162779  1
  O  O50  1  0.373514  0.289416  0.330276  1
  O  O51  1  0.126175  0.289403  0.162802  1
  O  O52  1  0.626247  0.289389  0.330267  1
  O  O53  1  0.126302  0.710761  0.350708  1
  O  O54  1  0.626227  0.710719  0.183220  1
  O  O55  1  0.126869  0.768906  0.389120  1
  O  O56  1  0.626821  0.768940  0.221632  1
  O  O57  1  0.126766  0.231131  0.124393  1
  O  O58  1  0.626816  0.231192  0.291859  1
  O  O59  1  0.872870  0.231263  0.124366  1
  O  O60  1  0.372908  0.231206  0.291864  1
  O  O61  1  0.872962  0.769037  0.389093  1
  O  O62  1  0.372920  0.768955  0.221637  1
  O  O63  1  -0.000000  0.553934  0.370053  1
  O  O64  1  0.499866  0.553895  0.202580  1
  O  O65  1  -0.000000  0.446258  0.143435  1
  O  O66  1  0.499869  0.446245  0.310915  1
  O  O67  1  0.000000  0.026714  0.734375  1
  O  O68  1  0.499869  0.026709  0.566898  1
  O  O69  1  -0.000000  0.973448  0.449023  1
  O  O70  1  0.499863  0.973463  0.616501  1
  O  O71  1  0.138226  0.071245  0.686185  1
  O  O72  1  0.638155  0.071212  0.518689  1
  O  O73  1  0.138151  0.928896  0.497246  1
  O  O74  1  0.638222  0.928891  0.664704  1
  O  O75  1  0.861502  0.928939  0.497211  1
  O  O76  1  0.361583  0.928921  0.664711  1
  O  O77  1  0.861595  0.071285  0.686149  1
  O  O78  1  0.361513  0.071239  0.518696  1
  O  O79  1  0.137138  0.000000  0.759188  1
  O  O80  1  0.637138  0.000000  0.591698  1
  O  O81  1  0.862595  0.000000  0.759159  1
  O  O82  1  0.362595  0.000000  0.591702  1
  O  O83  1  0.000000  0.878260  0.666302  1
  O  O84  1  0.499834  0.878203  0.498831  1
  O  O85  1  -0.000000  0.121938  0.517091  1
  O  O86  1  0.499904  0.121909  0.684573  1
  O  O87  1  0.173586  0.418698  0.704504  1
  O  O88  1  0.673532  0.418691  0.537011  1
  O  O89  1  0.173495  0.581409  0.478925  1
  O  O90  1  0.673547  0.581426  0.646384  1
  O  O91  1  0.826150  0.581483  0.478890  1
  O  O92  1  0.326202  0.581446  0.646393  1
  O  O93  1  0.826243  0.418768  0.704468  1
  O  O94  1  0.326189  0.418708  0.537018  1
  O  O95  1  0.690223  0.159378  0.696408  1
  O  O96  1  0.190128  0.159416  0.528949  1
  O  O97  1  0.690115  0.840774  0.486975  1
  O  O98  1  0.190209  0.840845  0.654469  1
  O  O99  1  0.309520  0.840756  0.486991  1
  O  O100  1  0.809602  0.840752  0.654446  1
  O  O101  1  0.309617  0.159361  0.696425  1
  O  O102  1  0.809536  0.159330  0.528926  1
  O  O103  1  0.170534  0.121539  0.723670  1
  O  O104  1  0.670449  0.121539  0.556176  1
  O  O105  1  0.170352  0.878532  0.459757  1
  O  O106  1  0.670435  0.878554  0.627217  1
  O  O107  1  0.829182  0.878670  0.459726  1
  O  O108  1  0.329303  0.878591  0.627223  1
  O  O109  1  0.829403  0.121679  0.723638  1
  O  O110  1  0.329281  0.121570  0.556182  1
  O  O111  1  0.873567  0.710792  0.685638  1
  O  O112  1  0.373483  0.710743  0.518182  1
  O  O113  1  0.873430  0.289436  0.497732  1
  O  O114  1  0.373514  0.289416  0.665230  1
  O  O115  1  0.126175  0.289403  0.497755  1
  O  O116  1  0.626247  0.289389  0.665221  1
  O  O117  1  0.126302  0.710761  0.685661  1
  O  O118  1  0.626227  0.710719  0.518174  1
  O  O119  1  0.126869  0.768906  0.724073  1
  O  O120  1  0.626821  0.768940  0.556586  1
  O  O121  1  0.126766  0.231131  0.459346  1
  O  O122  1  0.626816  0.231192  0.626812  1
  O  O123  1  0.872870  0.231263  0.459320  1
  O  O124  1  0.372908  0.231206  0.626818  1
  O  O125  1  0.872962  0.769037  0.724046  1
  O  O126  1  0.372920  0.768955  0.556591  1
  O  O127  1  0.000000  0.553934  0.705006  1
  O  O128  1  0.499866  0.553895  0.537534  1
  O  O129  1  -0.000000  0.446258  0.478389  1
  O  O130  1  0.499869  0.446245  0.645869  1
  Si  Si131  1  0.200152  0.197256  0.368418  1
  Si  Si132  1  0.700077  0.197229  0.200922  1
  Si  Si133  1  0.200039  0.802869  0.145101  1
  Si  Si134  1  0.700114  0.802870  0.312559  1
  Si  Si135  1  0.799577  0.802927  0.145071  1
  Si  Si136  1  0.299668  0.802911  0.312570  1
  Si  Si137  1  0.799707  0.197314  0.368386  1
  Si  Si138  1  0.299612  0.197265  0.200931  1
  Si  Si139  1  0.887986  0.982679  0.400932  1
  Si  Si140  1  0.387931  0.982624  0.233471  1
  Si  Si141  1  0.887873  0.017593  0.112531  1
  Si  Si142  1  0.387925  0.017561  0.280025  1
  Si  Si143  1  0.111749  0.017483  0.112554  1
  Si  Si144  1  0.611802  0.017538  0.280021  1
  Si  Si145  1  0.111862  0.982573  0.400955  1
  Si  Si146  1  0.611808  0.982603  0.233468  1
  Si  Si147  1  0.888375  0.874577  0.337012  1
  Si  Si148  1  0.388292  0.874538  0.169557  1
  Si  Si149  1  0.888275  0.125618  0.176448  1
  Si  Si150  1  0.388357  0.125606  0.343946  1
  Si  Si151  1  0.111363  0.125614  0.176474  1
  Si  Si152  1  0.611442  0.125581  0.343938  1
  Si  Si153  1  0.111462  0.874579  0.337039  1
  Si  Si154  1  0.611382  0.874513  0.169549  1
  Si  Si155  1  0.110964  0.607548  0.369877  1
  Si  Si156  1  0.610909  0.607545  0.202393  1
  Si  Si157  1  0.110856  0.392562  0.143628  1
  Si  Si158  1  0.610912  0.392591  0.311097  1
  Si  Si159  1  0.888771  0.392634  0.143608  1
  Si  Si160  1  0.388826  0.392595  0.311103  1
  Si  Si161  1  0.888881  0.607621  0.369857  1
  Si  Si162  1  0.388822  0.607547  0.202399  1
  Si  Si163  1  0.200152  0.197256  0.703371  1
  Si  Si164  1  0.700077  0.197229  0.535876  1
  Si  Si165  1  0.200039  0.802869  0.480055  1
  Si  Si166  1  0.700114  0.802870  0.647513  1
  Si  Si167  1  0.799577  0.802927  0.480024  1
  Si  Si168  1  0.299668  0.802911  0.647523  1
  Si  Si169  1  0.799707  0.197314  0.703340  1
  Si  Si170  1  0.299612  0.197265  0.535885  1
  Si  Si171  1  0.887986  0.982679  0.735885  1
  Si  Si172  1  0.387931  0.982624  0.568425  1
  Si  Si173  1  0.887873  0.017593  0.447485  1
  Si  Si174  1  0.387925  0.017561  0.614979  1
  Si  Si175  1  0.111749  0.017483  0.447508  1
  Si  Si176  1  0.611802  0.017538  0.614975  1
  Si  Si177  1  0.111862  0.982573  0.735908  1
  Si  Si178  1  0.611808  0.982603  0.568422  1
  Si  Si179  1  0.888375  0.874577  0.671965  1
  Si  Si180  1  0.388292  0.874538  0.504510  1
  Si  Si181  1  0.888275  0.125618  0.511401  1
  Si  Si182  1  0.388357  0.125606  0.678900  1
  Si  Si183  1  0.111363  0.125614  0.511427  1
  Si  Si184  1  0.611442  0.125581  0.678892  1
  Si  Si185  1  0.111462  0.874579  0.671992  1
  Si  Si186  1  0.611382  0.874513  0.504503  1
  Si  Si187  1  0.110964  0.607548  0.704831  1
  Si  Si188  1  0.610909  0.607545  0.537347  1
  Si  Si189  1  0.110856  0.392562  0.478582  1
  Si  Si190  1  0.610912  0.392591  0.646051  1
  Si  Si191  1  0.888771  0.392634  0.478562  1
  Si  Si192  1  0.388826  0.392595  0.646057  1
  Si  Si193  1  0.888881  0.607621  0.704810  1
  Si  Si194  1  0.388822  0.607547  0.537352  1
  H  H195  1  0.137138  0.000000  0.075809  1
  H  H196  1  0.862595  0.000000  0.075780  1
  H  H197  1  0.137138  0.000000  0.772660  1
  H  H198  1  0.862595  -0.000000  0.772631  1
