# generated using pymatgen
data_Si40H2O81
_symmetry_space_group_name_H-M   'P 1'
_cell_length_a   5.08835178
_cell_length_b   34.54776060
_cell_length_c   75.38928881
_cell_angle_alpha   90.00000000
_cell_angle_beta   90.00000000
_cell_angle_gamma   90.00000000
_symmetry_Int_Tables_number   1
_chemical_formula_structural   Si40H2O81
_chemical_formula_sum   'Si160 H8 O324'
_cell_volume   13252.7704667
_cell_formula_units_Z   4
loop_
 _symmetry_equiv_pos_site_id
 _symmetry_equiv_pos_as_xyz
  1  'x, y, z'
loop_
 _atom_site_type_symbol
 _atom_site_label
 _atom_site_symmetry_multiplicity
 _atom_site_fract_x
 _atom_site_fract_y
 _atom_site_fract_z
 _atom_site_occupancy
  O  O1  1  -0.000000  0.040897  0.277436  1
  O  O2  1  0.500181  0.540901  0.277448  1
  O  O3  1  0.998707  0.959015  0.135268  1
  O  O4  1  0.500933  0.458999  0.135290  1
  O  O5  1  -0.000000  0.040938  0.163418  1
  O  O6  1  0.499892  0.540965  0.163426  1
  O  O7  1  0.248705  0.912406  0.154960  1
  O  O8  1  0.750351  0.412541  0.155197  1
  O  O9  1  0.749218  0.912534  0.155165  1
  O  O10  1  0.250845  0.412405  0.154996  1
  O  O11  1  0.750129  0.912352  0.285884  1
  O  O12  1  0.250654  0.412377  0.285865  1
  O  O13  1  0.249623  0.912491  0.285670  1
  O  O14  1  0.750148  0.412455  0.285720  1
  O  O15  1  0.749767  0.087560  0.143772  1
  O  O16  1  0.250454  0.587480  0.143565  1
  O  O17  1  0.249279  0.087410  0.143486  1
  O  O18  1  0.749945  0.587505  0.143670  1
  O  O19  1  -0.000000  0.970218  0.168688  1
  O  O20  1  0.499340  0.470242  0.168705  1
  O  O21  1  0.998375  0.970180  0.272155  1
  O  O22  1  0.499662  0.470178  0.272175  1
  O  O23  1  0.997934  0.029735  0.129999  1
  O  O24  1  0.500631  0.529720  0.130011  1
  O  O25  1  0.249589  0.205301  0.281885  1
  O  O26  1  0.748537  0.705166  0.281938  1
  O  O27  1  0.749897  0.205256  0.281864  1
  O  O28  1  0.248805  0.705368  0.281777  1
  O  O29  1  0.252733  0.794468  0.139491  1
  O  O30  1  0.748624  0.294708  0.139803  1
  O  O31  1  0.753062  0.794792  0.139882  1
  O  O32  1  0.248908  0.294565  0.139643  1
  O  O33  1  0.750805  0.205260  0.159005  1
  O  O34  1  0.250527  0.705295  0.158975  1
  O  O35  1  0.250503  0.205374  0.159063  1
  O  O36  1  0.750261  0.705354  0.159042  1
  O  O37  1  0.499581  0.766635  0.165535  1
  O  O38  1  -0.000000  0.266624  0.165572  1
  O  O39  1  0.500412  0.766576  0.275322  1
  O  O40  1  0.000000  0.266586  0.275343  1
  O  O41  1  0.500213  0.233330  0.133186  1
  O  O42  1  -0.000000  0.733324  0.133153  1
  O  O43  1  0.498941  0.845587  0.156215  1
  O  O44  1  0.000000  0.345589  0.156247  1
  O  O45  1  0.499964  0.845536  0.284632  1
  O  O46  1  0.000000  0.345534  0.284666  1
  O  O47  1  0.499528  0.154373  0.142491  1
  O  O48  1  0.000000  0.654373  0.142485  1
  O  O49  1  0.000000  0.576153  0.198088  1
  O  O50  1  0.498877  0.076134  0.198080  1
  O  O51  1  0.000000  0.576098  0.242796  1
  O  O52  1  0.498187  0.076132  0.242787  1
  O  O53  1  0.000000  0.423790  0.100642  1
  O  O54  1  0.498926  0.923800  0.100620  1
  O  O55  1  0.249180  0.640147  0.196103  1
  O  O56  1  0.761279  0.138727  0.195447  1
  O  O57  1  0.744232  0.639399  0.195750  1
  O  O58  1  0.256449  0.140831  0.196377  1
  O  O59  1  0.745796  0.639458  0.245050  1
  O  O60  1  0.258631  0.141076  0.244462  1
  O  O61  1  0.250751  0.639972  0.244811  1
  O  O62  1  0.763356  0.138501  0.245497  1
  O  O63  1  0.755202  0.359356  0.102471  1
  O  O64  1  0.235141  0.861254  0.103184  1
  O  O65  1  0.260035  0.360950  0.103139  1
  O  O66  1  0.739838  0.859038  0.102374  1
  O  O67  1  0.002681  0.612914  0.169779  1
  O  O68  1  0.493039  0.113004  0.169783  1
  O  O69  1  0.002260  0.612869  0.271091  1
  O  O70  1  0.492716  0.112996  0.271093  1
  O  O71  1  0.995832  0.386977  0.128944  1
  O  O72  1  0.503618  0.886942  0.128914  1
  O  O73  1  0.499728  0.701628  0.187679  1
  O  O74  1  -0.000000  0.201607  0.187711  1
  O  O75  1  0.500532  0.701565  0.253189  1
  O  O76  1  -0.000000  0.201588  0.253193  1
  O  O77  1  0.500762  0.298330  0.111047  1
  O  O78  1  0.997776  0.798339  0.111010  1
  O  O79  1  0.250611  0.015631  0.190222  1
  O  O80  1  0.751189  0.515679  0.190189  1
  O  O81  1  0.748806  0.015706  0.190180  1
  O  O82  1  0.249396  0.515714  0.190233  1
  O  O83  1  0.748155  0.984253  0.108467  1
  O  O84  1  0.249544  0.484220  0.108520  1
  O  O85  1  0.249970  0.984291  0.108508  1
  O  O86  1  0.751339  0.484295  0.108490  1
  O  O87  1  0.748513  0.015768  0.250664  1
  O  O88  1  0.249597  0.515643  0.250642  1
  O  O89  1  0.250329  0.015541  0.250639  1
  O  O90  1  0.751393  0.515618  0.250686  1
  O  O91  1  0.496349  0.325462  0.078295  1
  O  O92  1  0.000000  0.825524  0.078264  1
  O  O93  1  0.502389  0.674479  0.220433  1
  O  O94  1  0.992675  0.174339  0.220449  1
  O  O95  1  0.000000  0.477977  0.078280  1
  O  O96  1  0.498946  0.977972  0.078260  1
  O  O97  1  0.000000  0.521926  0.220437  1
  O  O98  1  0.499922  0.021936  0.220427  1
  O  O99  1  -0.000000  0.040897  0.561759  1
  O  O100  1  0.500181  0.540901  0.561771  1
  O  O101  1  0.998707  0.959015  0.419591  1
  O  O102  1  0.500933  0.458999  0.419613  1
  O  O103  1  0.000000  0.958958  0.305574  1
  O  O104  1  0.500727  0.458955  0.305593  1
  O  O105  1  -0.000000  0.040938  0.447741  1
  O  O106  1  0.499892  0.540965  0.447749  1
  O  O107  1  0.249103  0.087361  0.297384  1
  O  O108  1  0.750278  0.587447  0.297216  1
  O  O109  1  0.749592  0.087500  0.297085  1
  O  O110  1  0.250787  0.587431  0.297287  1
  O  O111  1  0.248705  0.912406  0.439283  1
  O  O112  1  0.750351  0.412541  0.439520  1
  O  O113  1  0.749218  0.912534  0.439488  1
  O  O114  1  0.250845  0.412405  0.439319  1
  O  O115  1  0.750129  0.912352  0.570207  1
  O  O116  1  0.250654  0.412377  0.570187  1
  O  O117  1  0.249623  0.912491  0.569993  1
  O  O118  1  0.750148  0.412455  0.570043  1
  O  O119  1  0.749767  0.087560  0.428094  1
  O  O120  1  0.250454  0.587480  0.427887  1
  O  O121  1  0.249279  0.087410  0.427809  1
  O  O122  1  0.749945  0.587505  0.427992  1
  O  O123  1  0.997826  0.029672  0.310853  1
  O  O124  1  0.500656  0.529677  0.310866  1
  O  O125  1  -0.000000  0.970218  0.453011  1
  O  O126  1  0.499340  0.470242  0.453028  1
  O  O127  1  0.998375  0.970180  0.556478  1
  O  O128  1  0.499662  0.470178  0.556497  1
  O  O129  1  0.997934  0.029735  0.414322  1
  O  O130  1  0.500631  0.529720  0.414333  1
  O  O131  1  0.249589  0.205301  0.566208  1
  O  O132  1  0.748537  0.705166  0.566261  1
  O  O133  1  0.749897  0.205256  0.566187  1
  O  O134  1  0.248805  0.705368  0.566100  1
  O  O135  1  0.252733  0.794468  0.423814  1
  O  O136  1  0.748624  0.294708  0.424125  1
  O  O137  1  0.753062  0.794792  0.424205  1
  O  O138  1  0.248908  0.294565  0.423965  1
  O  O139  1  0.749432  0.794572  0.301230  1
  O  O140  1  0.248327  0.294485  0.301291  1
  O  O141  1  0.249113  0.794601  0.301105  1
  O  O142  1  0.748039  0.294687  0.301101  1
  O  O143  1  0.750805  0.205260  0.443327  1
  O  O144  1  0.250527  0.705295  0.443298  1
  O  O145  1  0.250503  0.205374  0.443386  1
  O  O146  1  0.750261  0.705354  0.443364  1
  O  O147  1  0.500020  0.233276  0.307726  1
  O  O148  1  0.000000  0.733279  0.307708  1
  O  O149  1  0.499581  0.766635  0.449858  1
  O  O150  1  -0.000000  0.266624  0.449895  1
  O  O151  1  0.500412  0.766576  0.559645  1
  O  O152  1  -0.000000  0.266586  0.559665  1
  O  O153  1  0.500213  0.233330  0.417509  1
  O  O154  1  -0.000000  0.733324  0.417476  1
  O  O155  1  0.499482  0.154318  0.298403  1
  O  O156  1  0.000000  0.654320  0.298384  1
  O  O157  1  0.498941  0.845587  0.440538  1
  O  O158  1  -0.000000  0.345589  0.440570  1
  O  O159  1  0.499964  0.845536  0.568954  1
  O  O160  1  0.000000  0.345534  0.568989  1
  O  O161  1  0.499528  0.154373  0.426814  1
  O  O162  1  -0.000000  0.654373  0.426808  1
  O  O163  1  -0.000000  0.423766  0.340257  1
  O  O164  1  0.499079  0.923743  0.340242  1
  O  O165  1  -0.000000  0.576153  0.482411  1
  O  O166  1  0.498877  0.076134  0.482402  1
  O  O167  1  0.000000  0.576098  0.527118  1
  O  O168  1  0.498187  0.076132  0.527110  1
  O  O169  1  -0.000000  0.423790  0.384964  1
  O  O170  1  0.498926  0.923800  0.384943  1
  O  O171  1  0.257082  0.360660  0.337873  1
  O  O172  1  0.764722  0.861334  0.337627  1
  O  O173  1  0.752152  0.359624  0.338337  1
  O  O174  1  0.260052  0.858870  0.338493  1
  O  O175  1  0.249180  0.640147  0.480426  1
  O  O176  1  0.761279  0.138727  0.479770  1
  O  O177  1  0.744232  0.639399  0.480073  1
  O  O178  1  0.256449  0.140831  0.480700  1
  O  O179  1  0.745796  0.639458  0.529373  1
  O  O180  1  0.258631  0.141076  0.528785  1
  O  O181  1  0.250751  0.639972  0.529134  1
  O  O182  1  0.763356  0.138501  0.529819  1
  O  O183  1  0.755202  0.359356  0.386793  1
  O  O184  1  0.235141  0.861254  0.387507  1
  O  O185  1  0.260035  0.360950  0.387461  1
  O  O186  1  0.739838  0.859038  0.386697  1
  O  O187  1  0.996911  0.386983  0.311955  1
  O  O188  1  0.495073  0.886906  0.311930  1
  O  O189  1  0.002681  0.612914  0.454101  1
  O  O190  1  0.493039  0.113004  0.454106  1
  O  O191  1  0.002260  0.612869  0.555414  1
  O  O192  1  0.492716  0.112996  0.555416  1
  O  O193  1  0.995832  0.386977  0.413267  1
  O  O194  1  0.503618  0.886942  0.413237  1
  O  O195  1  0.500379  0.298290  0.329867  1
  O  O196  1  0.001104  0.798302  0.329844  1
  O  O197  1  0.499728  0.701628  0.472002  1
  O  O198  1  -0.000000  0.201607  0.472033  1
  O  O199  1  0.500532  0.701565  0.537511  1
  O  O200  1  -0.000000  0.201588  0.537516  1
  O  O201  1  0.500762  0.298330  0.395370  1
  O  O202  1  0.997776  0.798339  0.395333  1
  O  O203  1  0.250611  0.015631  0.474545  1
  O  O204  1  0.751189  0.515679  0.474512  1
  O  O205  1  0.748806  0.015706  0.474502  1
  O  O206  1  0.249396  0.515714  0.474556  1
  O  O207  1  0.250937  0.984314  0.332326  1
  O  O208  1  0.751097  0.484246  0.332397  1
  O  O209  1  0.749127  0.984128  0.332389  1
  O  O210  1  0.249305  0.484205  0.332356  1
  O  O211  1  0.748155  0.984253  0.392790  1
  O  O212  1  0.249544  0.484220  0.392843  1
  O  O213  1  0.249970  0.984291  0.392830  1
  O  O214  1  0.751339  0.484295  0.392813  1
  O  O215  1  0.748513  0.015768  0.534986  1
  O  O216  1  0.249597  0.515643  0.534964  1
  O  O217  1  0.250329  0.015541  0.534962  1
  O  O218  1  0.751393  0.515618  0.535009  1
  O  O219  1  0.496349  0.325462  0.362618  1
  O  O220  1  0.000000  0.825524  0.362587  1
  O  O221  1  0.502389  0.674479  0.504756  1
  O  O222  1  0.992675  0.174339  0.504772  1
  O  O223  1  0.000000  0.477977  0.362603  1
  O  O224  1  0.498946  0.977972  0.362583  1
  O  O225  1  0.000000  0.521926  0.504760  1
  O  O226  1  0.499922  0.021936  0.504750  1
  O  O227  1  0.998707  0.959015  0.703914  1
  O  O228  1  0.500933  0.458999  0.703936  1
  O  O229  1  0.000000  0.958958  0.589897  1
  O  O230  1  0.500727  0.458955  0.589915  1
  O  O231  1  -0.000000  0.040938  0.732064  1
  O  O232  1  0.499892  0.540965  0.732072  1
  O  O233  1  0.249103  0.087361  0.581707  1
  O  O234  1  0.750278  0.587447  0.581538  1
  O  O235  1  0.749592  0.087500  0.581408  1
  O  O236  1  0.250787  0.587431  0.581610  1
  O  O237  1  0.248705  0.912406  0.723605  1
  O  O238  1  0.750351  0.412541  0.723842  1
  O  O239  1  0.749218  0.912534  0.723811  1
  O  O240  1  0.250845  0.412405  0.723641  1
  O  O241  1  0.749767  0.087560  0.712417  1
  O  O242  1  0.250454  0.587480  0.712210  1
  O  O243  1  0.249279  0.087410  0.712131  1
  O  O244  1  0.749945  0.587505  0.712315  1
  O  O245  1  0.997826  0.029672  0.595176  1
  O  O246  1  0.500656  0.529677  0.595188  1
  O  O247  1  -0.000000  0.970218  0.737333  1
  O  O248  1  0.499340  0.470242  0.737350  1
  O  O249  1  0.997934  0.029735  0.698644  1
  O  O250  1  0.500631  0.529720  0.698656  1
  O  O251  1  0.252733  0.794468  0.708136  1
  O  O252  1  0.748624  0.294708  0.708448  1
  O  O253  1  0.753062  0.794792  0.708528  1
  O  O254  1  0.248908  0.294565  0.708288  1
  O  O255  1  0.749432  0.794572  0.585553  1
  O  O256  1  0.248327  0.294485  0.585614  1
  O  O257  1  0.249113  0.794601  0.585428  1
  O  O258  1  0.748039  0.294687  0.585424  1
  O  O259  1  0.750805  0.205260  0.727650  1
  O  O260  1  0.250527  0.705295  0.727620  1
  O  O261  1  0.250503  0.205374  0.727708  1
  O  O262  1  0.750261  0.705354  0.727687  1
  O  O263  1  0.500020  0.233276  0.592049  1
  O  O264  1  -0.000000  0.733279  0.592030  1
  O  O265  1  0.499581  0.766635  0.734180  1
  O  O266  1  -0.000000  0.266624  0.734217  1
  O  O267  1  0.500213  0.233330  0.701831  1
  O  O268  1  -0.000000  0.733324  0.701799  1
  O  O269  1  0.499482  0.154318  0.582726  1
  O  O270  1  -0.000000  0.654320  0.582706  1
  O  O271  1  0.498941  0.845587  0.724861  1
  O  O272  1  -0.000000  0.345589  0.724893  1
  O  O273  1  0.499528  0.154373  0.711136  1
  O  O274  1  -0.000000  0.654373  0.711131  1
  O  O275  1  -0.000000  0.423766  0.624579  1
  O  O276  1  0.499079  0.923743  0.624564  1
  O  O277  1  -0.000000  0.576153  0.766734  1
  O  O278  1  0.498877  0.076134  0.766725  1
  O  O279  1  -0.000000  0.423790  0.669287  1
  O  O280  1  0.498926  0.923800  0.669266  1
  O  O281  1  0.257082  0.360660  0.622195  1
  O  O282  1  0.764722  0.861334  0.621950  1
  O  O283  1  0.752152  0.359624  0.622660  1
  O  O284  1  0.260052  0.858870  0.622816  1
  O  O285  1  0.249180  0.640147  0.764749  1
  O  O286  1  0.761279  0.138727  0.764093  1
  O  O287  1  0.744232  0.639399  0.764396  1
  O  O288  1  0.256449  0.140831  0.765023  1
  O  O289  1  0.755202  0.359356  0.671116  1
  O  O290  1  0.235141  0.861254  0.671830  1
  O  O291  1  0.260035  0.360950  0.671784  1
  O  O292  1  0.739838  0.859038  0.671019  1
  O  O293  1  0.996911  0.386983  0.596278  1
  O  O294  1  0.495073  0.886906  0.596253  1
  O  O295  1  0.002681  0.612914  0.738424  1
  O  O296  1  0.493039  0.113004  0.738428  1
  O  O297  1  0.995832  0.386977  0.697590  1
  O  O298  1  0.503618  0.886942  0.697559  1
  O  O299  1  0.500379  0.298290  0.614189  1
  O  O300  1  0.001104  0.798302  0.614167  1
  O  O301  1  0.499728  0.701628  0.756325  1
  O  O302  1  -0.000000  0.201607  0.756356  1
  O  O303  1  0.500762  0.298330  0.679693  1
  O  O304  1  0.997776  0.798339  0.679656  1
  O  O305  1  0.250611  0.015631  0.758867  1
  O  O306  1  0.751189  0.515679  0.758835  1
  O  O307  1  0.748806  0.015706  0.758825  1
  O  O308  1  0.249396  0.515714  0.758879  1
  O  O309  1  0.250937  0.984314  0.616649  1
  O  O310  1  0.751097  0.484246  0.616720  1
  O  O311  1  0.749127  0.984128  0.616712  1
  O  O312  1  0.249305  0.484205  0.616678  1
  O  O313  1  0.748155  0.984253  0.677113  1
  O  O314  1  0.249544  0.484220  0.677165  1
  O  O315  1  0.249970  0.984291  0.677153  1
  O  O316  1  0.751339  0.484295  0.677136  1
  O  O317  1  0.496349  0.325462  0.646940  1
  O  O318  1  -0.000000  0.825524  0.646909  1
  O  O319  1  0.502389  0.674479  0.789079  1
  O  O320  1  0.992675  0.174339  0.789095  1
  O  O321  1  -0.000000  0.477977  0.646926  1
  O  O322  1  0.498946  0.977972  0.646906  1
  O  O323  1  -0.000000  0.521926  0.789082  1
  O  O324  1  0.499922  0.021936  0.789073  1
  Si  Si325  1  0.000000  0.938605  0.153800  1
  Si  Si326  1  0.500256  0.438607  0.153827  1
  Si  Si327  1  0.000000  0.938557  0.287039  1
  Si  Si328  1  0.500204  0.438554  0.287058  1
  Si  Si329  1  -0.000000  0.061350  0.144887  1
  Si  Si330  1  0.500274  0.561355  0.144889  1
  Si  Si331  1  0.500725  0.800899  0.151365  1
  Si  Si332  1  0.000000  0.300898  0.151404  1
  Si  Si333  1  0.499907  0.800851  0.289487  1
  Si  Si334  1  -0.000000  0.300849  0.289515  1
  Si  Si335  1  0.500281  0.199056  0.147352  1
  Si  Si336  1  0.000000  0.699061  0.147326  1
  Si  Si337  1  0.000000  0.617806  0.190212  1
  Si  Si338  1  0.502361  0.117793  0.190217  1
  Si  Si339  1  -0.000000  0.617760  0.250658  1
  Si  Si340  1  0.503246  0.117781  0.250660  1
  Si  Si341  1  0.002752  0.382136  0.108511  1
  Si  Si342  1  0.494095  0.882143  0.108481  1
  Si  Si343  1  0.500016  0.720963  0.168661  1
  Si  Si344  1  -0.000000  0.220948  0.168692  1
  Si  Si345  1  0.499658  0.720902  0.272204  1
  Si  Si346  1  -0.000000  0.220912  0.272217  1
  Si  Si347  1  0.499669  0.279004  0.130067  1
  Si  Si348  1  0.000000  0.778999  0.130028  1
  Si  Si349  1  -0.000000  0.010095  0.178565  1
  Si  Si350  1  0.500033  0.510125  0.178576  1
  Si  Si351  1  0.998808  0.989857  0.120121  1
  Si  Si352  1  0.500550  0.489836  0.120140  1
  Si  Si353  1  -0.000000  0.010066  0.262285  1
  Si  Si354  1  0.500249  0.510058  0.262300  1
  Si  Si355  1  0.000000  0.389188  0.291317  1
  Si  Si356  1  0.499226  0.889188  0.291293  1
  Si  Si357  1  -0.000000  0.610723  0.149139  1
  Si  Si358  1  0.498693  0.110718  0.149147  1
  Si  Si359  1  0.000000  0.389235  0.149582  1
  Si  Si360  1  0.499568  0.889235  0.149551  1
  Si  Si361  1  0.499121  0.664716  0.200089  1
  Si  Si362  1  0.002166  0.164657  0.200105  1
  Si  Si363  1  0.499956  0.664666  0.240773  1
  Si  Si364  1  0.003058  0.164648  0.240792  1
  Si  Si365  1  0.502651  0.335240  0.098635  1
  Si  Si366  1  0.994002  0.835266  0.098605  1
  Si  Si367  1  -0.000000  0.531187  0.199986  1
  Si  Si368  1  0.499770  0.031167  0.199975  1
  Si  Si369  1  0.000000  0.531135  0.240892  1
  Si  Si370  1  0.499260  0.031165  0.240881  1
  Si  Si371  1  0.000000  0.468753  0.098734  1
  Si  Si372  1  0.498861  0.968764  0.098716  1
  Si  Si373  1  0.998989  0.061299  0.295969  1
  Si  Si374  1  0.500569  0.561301  0.295983  1
  Si  Si375  1  0.000000  0.938605  0.438123  1
  Si  Si376  1  0.500256  0.438607  0.438149  1
  Si  Si377  1  -0.000000  0.938557  0.571362  1
  Si  Si378  1  0.500204  0.438554  0.571381  1
  Si  Si379  1  -0.000000  0.061350  0.429210  1
  Si  Si380  1  0.500274  0.561355  0.429212  1
  Si  Si381  1  0.499823  0.199010  0.293555  1
  Si  Si382  1  -0.000000  0.699007  0.293540  1
  Si  Si383  1  0.500725  0.800899  0.435688  1
  Si  Si384  1  -0.000000  0.300898  0.435727  1
  Si  Si385  1  0.499907  0.800851  0.573810  1
  Si  Si386  1  -0.000000  0.300849  0.573837  1
  Si  Si387  1  0.500281  0.199056  0.431675  1
  Si  Si388  1  -0.000000  0.699061  0.431649  1
  Si  Si389  1  0.001414  0.382108  0.332389  1
  Si  Si390  1  0.505119  0.882101  0.332364  1
  Si  Si391  1  -0.000000  0.617806  0.474535  1
  Si  Si392  1  0.502361  0.117793  0.474540  1
  Si  Si393  1  -0.000000  0.617760  0.534980  1
  Si  Si394  1  0.503246  0.117781  0.534983  1
  Si  Si395  1  0.002752  0.382136  0.392833  1
  Si  Si396  1  0.494095  0.882143  0.392804  1
  Si  Si397  1  0.499290  0.278949  0.310850  1
  Si  Si398  1  0.000000  0.778955  0.310827  1
  Si  Si399  1  0.500016  0.720963  0.452984  1
  Si  Si400  1  -0.000000  0.220948  0.453014  1
  Si  Si401  1  0.499658  0.720902  0.556527  1
  Si  Si402  1  -0.000000  0.220912  0.556539  1
  Si  Si403  1  0.499669  0.279004  0.414390  1
  Si  Si404  1  0.000000  0.778999  0.414351  1
  Si  Si405  1  0.000000  0.010095  0.462888  1
  Si  Si406  1  0.500033  0.510125  0.462899  1
  Si  Si407  1  0.000000  0.989794  0.320724  1
  Si  Si408  1  0.500390  0.489797  0.320741  1
  Si  Si409  1  0.998808  0.989857  0.404444  1
  Si  Si410  1  0.500550  0.489836  0.404463  1
  Si  Si411  1  -0.000000  0.010066  0.546607  1
  Si  Si412  1  0.500249  0.510058  0.546623  1
  Si  Si413  1  -0.000000  0.389188  0.575639  1
  Si  Si414  1  0.499226  0.889188  0.575616  1
  Si  Si415  1  -0.000000  0.610723  0.433462  1
  Si  Si416  1  0.498693  0.110718  0.433470  1
  Si  Si417  1  0.000000  0.610670  0.291730  1
  Si  Si418  1  0.498520  0.110674  0.291728  1
  Si  Si419  1  -0.000000  0.389235  0.433904  1
  Si  Si420  1  0.499568  0.889235  0.433873  1
  Si  Si421  1  0.501290  0.335209  0.342273  1
  Si  Si422  1  0.005217  0.835240  0.342244  1
  Si  Si423  1  0.499121  0.664716  0.484412  1
  Si  Si424  1  0.002166  0.164657  0.484428  1
  Si  Si425  1  0.499956  0.664666  0.525096  1
  Si  Si426  1  0.003058  0.164648  0.525114  1
  Si  Si427  1  0.502651  0.335240  0.382958  1
  Si  Si428  1  0.994002  0.835266  0.382928  1
  Si  Si429  1  0.000000  0.468733  0.342151  1
  Si  Si430  1  0.499516  0.968716  0.342133  1
  Si  Si431  1  0.000000  0.531187  0.484309  1
  Si  Si432  1  0.499770  0.031167  0.484297  1
  Si  Si433  1  -0.000000  0.531135  0.525215  1
  Si  Si434  1  0.499260  0.031165  0.525204  1
  Si  Si435  1  0.000000  0.468753  0.383057  1
  Si  Si436  1  0.498861  0.968764  0.383038  1
  Si  Si437  1  0.998989  0.061299  0.580292  1
  Si  Si438  1  0.500569  0.561301  0.580305  1
  Si  Si439  1  0.000000  0.938605  0.722445  1
  Si  Si440  1  0.500256  0.438607  0.722472  1
  Si  Si441  1  -0.000000  0.061350  0.713533  1
  Si  Si442  1  0.500274  0.561355  0.713535  1
  Si  Si443  1  0.499823  0.199010  0.577877  1
  Si  Si444  1  0.000000  0.699007  0.577863  1
  Si  Si445  1  0.500725  0.800899  0.720010  1
  Si  Si446  1  -0.000000  0.300898  0.720050  1
  Si  Si447  1  0.500281  0.199056  0.715998  1
  Si  Si448  1  -0.000000  0.699061  0.715971  1
  Si  Si449  1  0.001414  0.382108  0.616712  1
  Si  Si450  1  0.505119  0.882101  0.616686  1
  Si  Si451  1  -0.000000  0.617806  0.758858  1
  Si  Si452  1  0.502361  0.117793  0.758862  1
  Si  Si453  1  0.002752  0.382136  0.677156  1
  Si  Si454  1  0.494095  0.882143  0.677126  1
  Si  Si455  1  0.499290  0.278949  0.595172  1
  Si  Si456  1  -0.000000  0.778955  0.595150  1
  Si  Si457  1  0.500016  0.720963  0.737307  1
  Si  Si458  1  -0.000000  0.220948  0.737337  1
  Si  Si459  1  0.499669  0.279004  0.698713  1
  Si  Si460  1  0.000000  0.778999  0.698674  1
  Si  Si461  1  -0.000000  0.010095  0.747211  1
  Si  Si462  1  0.500033  0.510125  0.747221  1
  Si  Si463  1  0.000000  0.989794  0.605047  1
  Si  Si464  1  0.500390  0.489797  0.605063  1
  Si  Si465  1  0.998808  0.989857  0.688766  1
  Si  Si466  1  0.500550  0.489836  0.688785  1
  Si  Si467  1  -0.000000  0.610723  0.717785  1
  Si  Si468  1  0.498693  0.110718  0.717793  1
  Si  Si469  1  0.000000  0.610670  0.576053  1
  Si  Si470  1  0.498520  0.110674  0.576051  1
  Si  Si471  1  -0.000000  0.389235  0.718227  1
  Si  Si472  1  0.499568  0.889235  0.718196  1
  Si  Si473  1  0.501290  0.335209  0.626596  1
  Si  Si474  1  0.005217  0.835240  0.626566  1
  Si  Si475  1  0.499121  0.664716  0.768735  1
  Si  Si476  1  0.002166  0.164657  0.768750  1
  Si  Si477  1  0.502651  0.335240  0.667280  1
  Si  Si478  1  0.994002  0.835266  0.667250  1
  Si  Si479  1  0.000000  0.468733  0.626474  1
  Si  Si480  1  0.499516  0.968716  0.626455  1
  Si  Si481  1  -0.000000  0.531187  0.768632  1
  Si  Si482  1  0.499770  0.031167  0.768620  1
  Si  Si483  1  0.000000  0.468753  0.667380  1
  Si  Si484  1  0.498861  0.968764  0.667361  1
  H  H485  1  0.496349  0.325462  0.066357  1
  H  H486  1  0.000000  0.825524  0.066326  1
  H  H487  1  -0.000000  0.477977  0.066342  1
  H  H488  1  0.498946  0.977972  0.066322  1
  H  H489  1  0.502389  0.674479  0.801017  1
  H  H490  1  0.992675  0.174339  0.801033  1
  H  H491  1  -0.000000  0.521926  0.801020  1
  H  H492  1  0.499922  0.021936  0.801011  1
