# generated using pymatgen
data_Si50H18O109
_symmetry_space_group_name_H-M   'P 1'
_cell_length_a   13.56605876
_cell_length_b   46.01197261
_cell_length_c   42.27827564
_cell_angle_alpha   107.14383045
_cell_angle_beta   120.00000000
_cell_angle_gamma   81.52454549
_symmetry_Int_Tables_number   1
_chemical_formula_structural   Si50H18O109
_chemical_formula_sum   'Si100 H36 O218'
_cell_volume   21839.0604321
_cell_formula_units_Z   2
loop_
 _symmetry_equiv_pos_site_id
 _symmetry_equiv_pos_as_xyz
  1  'x, y, z'
loop_
 _atom_site_type_symbol
 _atom_site_label
 _atom_site_symmetry_multiplicity
 _atom_site_fract_x
 _atom_site_fract_y
 _atom_site_fract_z
 _atom_site_occupancy
  O  O1  1  0.746528  -0.000000  0.277354  1
  O  O2  1  0.000000  0.000000  0.277418  1
  O  O3  1  0.883218  0.042567  0.297373  1
  O  O4  1  0.079518  0.111130  0.287289  1
  O  O5  1  0.333918  0.111167  0.206229  1
  O  O6  1  0.586331  0.111299  0.287275  1
  O  O7  1  0.079803  0.111093  0.206407  1
  O  O8  1  0.100603  0.068641  0.236496  1
  O  O9  1  0.450051  0.068747  0.348649  1
  O  O10  1  0.450246  0.068765  0.236374  1
  O  O11  1  0.233238  0.072312  0.307243  1
  O  O12  1  0.534086  0.072338  0.307132  1
  O  O13  1  0.233324  0.072206  0.210594  1
  O  O14  1  0.028432  0.055534  0.278674  1
  O  O15  1  0.305133  0.055543  0.162636  1
  O  O16  1  0.666856  0.055714  0.278697  1
  O  O17  1  0.028367  0.055548  0.162713  1
  O  O18  1  0.232463  0.150238  0.332371  1
  O  O19  1  0.533732  0.150288  0.332205  1
  O  O20  1  0.232734  0.150128  0.235599  1
  O  O21  1  0.799577  0.039004  0.339040  1
  O  O22  1  0.099805  0.153662  0.263788  1
  O  O23  1  0.449773  0.153768  0.263643  1
  O  O24  1  0.100445  0.038936  0.339060  1
  O  O25  1  0.027418  0.166661  0.314251  1
  O  O26  1  0.027500  0.166595  0.198480  1
  O  O27  1  0.746839  0.222250  0.348913  1
  O  O28  1  0.998952  0.222201  0.348761  1
  O  O29  1  0.666496  0.277831  0.350329  1
  O  O30  1  0.027969  0.277761  0.234501  1
  O  O31  1  0.028111  0.277863  0.350394  1
  O  O32  1  0.304616  0.277874  0.234288  1
  O  O33  1  0.666314  0.166817  0.314331  1
  O  O34  1  0.450144  0.290899  0.307896  1
  O  O35  1  0.882895  0.179663  0.341556  1
  O  O36  1  0.233060  0.294428  0.282322  1
  O  O37  1  0.099956  0.290871  0.308183  1
  O  O38  1  0.304745  0.166704  0.198368  1
  O  O39  1  0.638889  0.388654  0.163211  1
  O  O40  1  0.362133  0.388827  0.163299  1
  O  O41  1  0.361126  0.499935  0.198278  1
  O  O42  1  0.638945  0.499867  0.198293  1
  O  O43  1  0.000000  0.499958  0.314191  1
  O  O44  1  0.433717  0.372349  0.339603  1
  O  O45  1  0.413167  0.444583  0.287523  1
  O  O46  1  0.667604  0.444345  0.206478  1
  O  O47  1  0.919647  0.444459  0.287590  1
  O  O48  1  0.413208  0.444448  0.206572  1
  O  O49  1  0.433901  0.402045  0.236985  1
  O  O50  1  0.783500  0.402130  0.349246  1
  O  O51  1  0.783610  0.401960  0.236940  1
  O  O52  1  0.566482  0.405636  0.307709  1
  O  O53  1  0.867548  0.405611  0.307731  1
  O  O54  1  0.566875  0.405584  0.211166  1
  O  O55  1  0.361591  0.389058  0.279252  1
  O  O56  1  0.000000  0.388882  0.279251  1
  O  O57  1  0.566392  0.483574  0.332319  1
  O  O58  1  0.867394  0.483551  0.332400  1
  O  O59  1  0.566125  0.483496  0.235470  1
  O  O60  1  0.333255  0.333455  0.277910  1
  O  O61  1  0.433462  0.487080  0.263731  1
  O  O62  1  0.783165  0.486952  0.263740  1
  O  O63  1  0.216569  0.375898  0.297949  1
  O  O64  1  0.133051  0.372326  0.339684  1
  O  O65  1  0.080146  0.333343  0.278030  1
  O  O66  1  0.361423  0.611138  0.233724  1
  O  O67  1  0.638298  0.611116  0.233723  1
  O  O68  1  0.783375  0.624172  0.307328  1
  O  O69  1  0.361227  0.500083  0.314183  1
  O  O70  1  0.079949  0.555471  0.348396  1
  O  O71  1  0.332273  0.555547  0.348430  1
  O  O72  1  0.000000  0.611060  0.349666  1
  O  O73  1  0.361331  0.611123  0.349692  1
  O  O74  1  0.216088  0.512953  0.341233  1
  O  O75  1  0.432761  0.624176  0.307342  1
  O  O76  1  0.566265  0.627774  0.281657  1
  O  O77  1  0.694989  0.722266  0.278409  1
  O  O78  1  0.333347  0.722264  0.278420  1
  O  O79  1  0.333590  0.833316  0.314045  1
  O  O80  1  0.746486  0.777862  0.287034  1
  O  O81  1  0.253084  0.777838  0.287011  1
  O  O82  1  0.466201  0.705633  0.338815  1
  O  O83  1  0.766947  0.705628  0.338785  1
  O  O84  1  0.116954  0.820399  0.263474  1
  O  O85  1  0.767031  0.735391  0.236205  1
  O  O86  1  0.116677  0.735357  0.348416  1
  O  O87  1  0.116663  0.735378  0.236155  1
  O  O88  1  0.899811  0.738953  0.306947  1
  O  O89  1  0.200658  0.738923  0.306903  1
  O  O90  1  0.899768  0.816881  0.332065  1
  O  O91  1  0.201103  0.816871  0.332031  1
  O  O92  1  0.413262  0.666712  0.277202  1
  O  O93  1  0.549772  0.709228  0.297094  1
  O  O94  1  0.766916  0.820410  0.263524  1
  O  O95  1  0.666584  0.666705  0.277176  1
  O  O96  1  0.333293  0.944392  0.349792  1
  O  O97  1  0.694904  0.944493  0.349868  1
  O  O98  1  0.694760  0.833366  0.314037  1
  O  O99  1  0.550184  0.846285  0.341306  1
  O  O100  1  0.899525  0.961094  0.281800  1
  O  O101  1  0.116808  0.957481  0.307474  1
  O  O102  1  0.766087  0.957585  0.307492  1
  O  O103  1  0.413772  0.888812  0.348446  1
  O  O104  1  0.665987  0.888867  0.348421  1
  O  O105  1  0.694714  0.944507  0.233813  1
  O  O106  1  0.971668  0.944491  0.233863  1
  O  O107  1  0.746345  0.000000  0.358618  1
  O  O108  1  0.233769  0.042466  0.409815  1
  O  O109  1  0.586001  0.111242  0.368816  1
  O  O110  1  0.334053  0.111197  0.368967  1
  O  O111  1  0.666771  0.055691  0.367505  1
  O  O112  1  0.305133  0.055543  0.483440  1
  O  O113  1  0.305361  0.055567  0.367522  1
  O  O114  1  0.028367  0.055548  0.483516  1
  O  O115  1  0.100294  0.038881  0.435523  1
  O  O116  1  0.449557  0.153787  0.376049  1
  O  O117  1  0.883063  0.042537  0.409887  1
  O  O118  1  0.305059  0.166667  0.403427  1
  O  O119  1  0.253166  0.222146  0.430509  1
  O  O120  1  0.746835  0.222135  0.430456  1
  O  O121  1  0.232202  0.264651  0.481330  1
  O  O122  1  0.883118  0.264680  0.369107  1
  O  O123  1  0.882945  0.264640  0.481474  1
  O  O124  1  0.099859  0.261028  0.410591  1
  O  O125  1  0.799309  0.261112  0.410676  1
  O  O126  1  0.304821  0.277738  0.439286  1
  O  O127  1  0.666303  0.277629  0.439035  1
  O  O128  1  0.099990  0.183108  0.385296  1
  O  O129  1  0.798883  0.183128  0.385423  1
  O  O130  1  0.233104  0.294441  0.378992  1
  O  O131  1  0.333587  0.333300  0.440610  1
  O  O132  1  0.232417  0.179635  0.453883  1
  O  O133  1  0.882653  0.179593  0.453998  1
  O  O134  1  0.533406  0.294349  0.378678  1
  O  O135  1  0.450085  0.290720  0.420538  1
  O  O136  1  0.586612  0.333172  0.440354  1
  O  O137  1  0.666086  0.166692  0.403291  1
  O  O138  1  0.638889  0.388654  0.484014  1
  O  O139  1  0.362133  0.388827  0.484102  1
  O  O140  1  0.361126  0.499935  0.519082  1
  O  O141  1  0.638945  0.499867  0.519097  1
  O  O142  1  0.080127  0.333436  0.359331  1
  O  O143  1  0.567382  0.375803  0.410398  1
  O  O144  1  0.919822  0.444612  0.369288  1
  O  O145  1  0.667388  0.444618  0.369223  1
  O  O146  1  0.000000  0.389037  0.368161  1
  O  O147  1  0.638580  0.389014  0.368078  1
  O  O148  1  0.216736  0.375883  0.410514  1
  O  O149  1  0.783514  0.487149  0.376288  1
  O  O150  1  0.433883  0.372191  0.436085  1
  O  O151  1  0.586643  0.333382  0.359161  1
  O  O152  1  0.361423  0.611138  0.554527  1
  O  O153  1  0.638298  0.611116  0.554527  1
  O  O154  1  0.867007  0.627720  0.378155  1
  O  O155  1  0.783478  0.624142  0.419888  1
  O  O156  1  0.586445  0.555579  0.430084  1
  O  O157  1  0.332568  0.555490  0.511079  1
  O  O158  1  0.080490  0.555553  0.430140  1
  O  O159  1  0.587240  0.555460  0.511130  1
  O  O160  1  0.566257  0.597982  0.480834  1
  O  O161  1  0.216308  0.597985  0.368492  1
  O  O162  1  0.216792  0.597988  0.480813  1
  O  O163  1  0.433267  0.594516  0.410074  1
  O  O164  1  0.132517  0.594420  0.410045  1
  O  O165  1  0.433621  0.594318  0.506646  1
  O  O166  1  0.638183  0.611134  0.438576  1
  O  O167  1  0.000000  0.611122  0.438574  1
  O  O168  1  0.433177  0.516552  0.385180  1
  O  O169  1  0.132288  0.516475  0.385156  1
  O  O170  1  0.434010  0.516432  0.482002  1
  O  O171  1  -0.000000  0.500115  0.403390  1
  O  O172  1  0.566301  0.627717  0.378169  1
  O  O173  1  0.566447  0.512978  0.453762  1
  O  O174  1  0.216808  0.512963  0.453740  1
  O  O175  1  0.638366  0.500128  0.403297  1
  O  O176  1  0.919933  0.666650  0.358463  1
  O  O177  1  0.919924  0.666659  0.439755  1
  O  O178  1  0.333565  0.833295  0.403092  1
  O  O179  1  0.413331  0.666677  0.358489  1
  O  O180  1  0.900447  0.709169  0.409600  1
  O  O181  1  0.116967  0.820377  0.375844  1
  O  O182  1  0.253094  0.777812  0.368629  1
  O  O183  1  0.000000  0.777825  0.368681  1
  O  O184  1  0.333346  0.722224  0.367249  1
  O  O185  1  0.971815  0.722240  0.483219  1
  O  O186  1  0.971867  0.722211  0.367253  1
  O  O187  1  0.694991  0.722254  0.483263  1
  O  O188  1  0.766916  0.705605  0.435294  1
  O  O189  1  0.549787  0.709190  0.409638  1
  O  O190  1  0.666630  0.666673  0.439773  1
  O  O191  1  0.253478  0.000000  0.358638  1
  O  O192  1  0.972365  0.833333  0.403110  1
  O  O193  1  0.972307  0.833392  0.518981  1
  O  O194  1  0.694833  0.833380  0.519011  1
  O  O195  1  0.550129  0.846299  0.453669  1
  O  O196  1  0.253579  0.000000  0.439940  1
  O  O197  1  0.900233  0.846310  0.453648  1
  O  O198  1  0.116890  0.957484  0.419992  1
  O  O199  1  0.200498  0.961042  0.378260  1
  O  O200  1  0.899658  0.961162  0.378313  1
  O  O201  1  0.920333  0.888827  0.430080  1
  O  O202  1  0.666038  0.888886  0.511045  1
  O  O203  1  0.413690  0.888804  0.430069  1
  O  O204  1  0.920449  0.888899  0.511050  1
  O  O205  1  0.899800  0.931337  0.480890  1
  O  O206  1  0.550015  0.931310  0.368648  1
  O  O207  1  0.549984  0.931315  0.480874  1
  O  O208  1  0.766902  0.927743  0.410138  1
  O  O209  1  0.465891  0.927726  0.410127  1
  O  O210  1  0.766923  0.927793  0.506718  1
  O  O211  1  0.971799  0.944382  0.438636  1
  O  O212  1  0.694714  0.944507  0.554617  1
  O  O213  1  0.333239  0.944365  0.438630  1
  O  O214  1  0.971668  0.944491  0.554667  1
  O  O215  1  0.767286  0.849809  0.385068  1
  O  O216  1  0.465954  0.849790  0.385107  1
  O  O217  1  0.767271  0.849862  0.481800  1
  O  O218  1  -0.000000  0.000000  0.439974  1
  Si  Si219  1  0.106578  0.076152  0.276324  1
  Si  Si220  1  0.560465  0.076237  0.349008  1
  Si  Si221  1  0.333364  0.076159  0.203312  1
  Si  Si222  1  0.333421  0.076214  0.349122  1
  Si  Si223  1  0.560611  0.076283  0.276270  1
  Si  Si224  1  0.106717  0.076095  0.203407  1
  Si  Si225  1  0.106094  0.146146  0.298821  1
  Si  Si226  1  0.332956  0.146145  0.225866  1
  Si  Si227  1  0.560032  0.146279  0.298750  1
  Si  Si228  1  0.106324  0.146092  0.225985  1
  Si  Si229  1  0.772963  0.035077  0.297139  1
  Si  Si230  1  -0.000000  0.035009  0.297188  1
  Si  Si231  1  0.772782  0.187239  0.346164  1
  Si  Si232  1  0.000000  0.187184  0.346031  1
  Si  Si233  1  0.106595  0.298434  0.348118  1
  Si  Si234  1  0.332977  0.298434  0.275022  1
  Si  Si235  1  0.560167  0.298381  0.347906  1
  Si  Si236  1  0.106544  0.298334  0.275169  1
  Si  Si237  1  0.439885  0.409564  0.276803  1
  Si  Si238  1  0.894018  0.409593  0.349637  1
  Si  Si239  1  0.666935  0.409388  0.203822  1
  Si  Si240  1  0.666686  0.409585  0.349596  1
  Si  Si241  1  0.893994  0.409469  0.276812  1
  Si  Si242  1  0.440225  0.409483  0.203917  1
  Si  Si243  1  0.439949  0.479558  0.298797  1
  Si  Si244  1  0.666608  0.479381  0.225855  1
  Si  Si245  1  0.893352  0.479459  0.298856  1
  Si  Si246  1  0.439754  0.479477  0.225882  1
  Si  Si247  1  0.106523  0.368339  0.297779  1
  Si  Si248  1  0.333584  0.368443  0.297719  1
  Si  Si249  1  0.105943  0.520480  0.345830  1
  Si  Si250  1  0.332975  0.520562  0.345849  1
  Si  Si251  1  0.439690  0.631669  0.347315  1
  Si  Si252  1  0.666349  0.631707  0.274402  1
  Si  Si253  1  0.893529  0.631655  0.347296  1
  Si  Si254  1  0.439653  0.631707  0.274413  1
  Si  Si255  1  0.773191  0.742864  0.276049  1
  Si  Si256  1  0.773321  0.812859  0.298556  1
  Si  Si257  1  0.227191  0.812837  0.298528  1
  Si  Si258  1  0.227138  0.742842  0.276020  1
  Si  Si259  1  0.227163  0.742819  0.348796  1
  Si  Si260  1  0.000000  0.742833  0.348834  1
  Si  Si261  1  0.439655  0.701711  0.296923  1
  Si  Si262  1  0.666834  0.701711  0.296898  1
  Si  Si263  1  0.227082  0.964983  0.347419  1
  Si  Si264  1  0.773055  0.965094  0.347476  1
  Si  Si265  1  0.439905  0.853819  0.345824  1
  Si  Si266  1  0.666900  0.853868  0.345799  1
  Si  Si267  1  0.000000  0.965010  0.274580  1
  Si  Si268  1  0.772893  0.965073  0.274528  1
  Si  Si269  1  0.227076  0.034984  0.369881  1
  Si  Si270  1  0.772972  0.035087  0.369895  1
  Si  Si271  1  0.559733  0.146228  0.371474  1
  Si  Si272  1  0.332934  0.146210  0.371635  1
  Si  Si273  1  -0.000000  0.035004  0.440163  1
  Si  Si274  1  0.226865  0.034954  0.442752  1
  Si  Si275  1  0.226406  0.257134  0.441536  1
  Si  Si276  1  0.772742  0.257140  0.441523  1
  Si  Si277  1  0.226328  0.187139  0.418869  1
  Si  Si278  1  0.772602  0.187139  0.418886  1
  Si  Si279  1  0.772685  0.257239  0.368769  1
  Si  Si280  1  0.000000  0.257178  0.368694  1
  Si  Si281  1  0.560013  0.298193  0.420565  1
  Si  Si282  1  0.333212  0.298298  0.420859  1
  Si  Si283  1  0.893736  0.479589  0.371747  1
  Si  Si284  1  0.666572  0.479579  0.371658  1
  Si  Si285  1  0.560368  0.368390  0.370421  1
  Si  Si286  1  0.333835  0.368296  0.443379  1
  Si  Si287  1  0.106503  0.368438  0.370554  1
  Si  Si288  1  0.560445  0.368193  0.443276  1
  Si  Si289  1  0.559894  0.590590  0.440973  1
  Si  Si290  1  0.105903  0.590477  0.368132  1
  Si  Si291  1  0.333411  0.590472  0.513891  1
  Si  Si292  1  0.333149  0.590561  0.368162  1
  Si  Si293  1  0.106202  0.590546  0.440982  1
  Si  Si294  1  0.560268  0.590444  0.513903  1
  Si  Si295  1  0.559629  0.520596  0.418703  1
  Si  Si296  1  0.333493  0.520476  0.491589  1
  Si  Si297  1  0.106482  0.520551  0.418728  1
  Si  Si298  1  0.560440  0.520450  0.491643  1
  Si  Si299  1  0.893593  0.631655  0.420054  1
  Si  Si300  1  0.666386  0.631665  0.420065  1
  Si  Si301  1  0.227202  0.812816  0.371309  1
  Si  Si302  1  0.000000  0.812828  0.368705  1
  Si  Si303  1  0.893547  0.701660  0.369632  1
  Si  Si304  1  0.666861  0.701674  0.442564  1
  Si  Si305  1  0.439659  0.701676  0.369659  1
  Si  Si306  1  0.893529  0.701662  0.442536  1
  Si  Si307  1  0.893550  0.923823  0.441026  1
  Si  Si308  1  0.439532  0.923814  0.368251  1
  Si  Si309  1  0.666743  0.923886  0.513955  1
  Si  Si310  1  0.666747  0.923855  0.368250  1
  Si  Si311  1  0.439489  0.923806  0.441021  1
  Si  Si312  1  0.893596  0.923895  0.513977  1
  Si  Si313  1  0.893728  0.853826  0.418581  1
  Si  Si314  1  0.666911  0.853892  0.491471  1
  Si  Si315  1  0.439837  0.853821  0.418605  1
  Si  Si316  1  0.893727  0.853901  0.491461  1
  Si  Si317  1  0.227022  0.964960  0.420155  1
  Si  Si318  1  0.000000  0.964997  0.422805  1
  H  H319  1  0.305133  0.055543  0.141349  1
  H  H320  1  0.028367  0.055548  0.141425  1
  H  H321  1  0.027500  0.166595  0.177192  1
  H  H322  1  0.027969  0.277761  0.213213  1
  H  H323  1  0.304616  0.277874  0.213000  1
  H  H324  1  0.304745  0.166704  0.177080  1
  H  H325  1  0.638889  0.388654  0.141924  1
  H  H326  1  0.362133  0.388827  0.142011  1
  H  H327  1  0.361126  0.499935  0.176991  1
  H  H328  1  0.638945  0.499867  0.177006  1
  H  H329  1  0.361423  0.611138  0.212436  1
  H  H330  1  0.638298  0.611116  0.212436  1
  H  H331  1  0.116954  0.820399  0.242186  1
  H  H332  1  0.767031  0.735391  0.214918  1
  H  H333  1  0.116663  0.735378  0.214868  1
  H  H334  1  0.766916  0.820410  0.242237  1
  H  H335  1  0.694714  0.944507  0.212526  1
  H  H336  1  0.971668  0.944491  0.212576  1
  H  H337  1  0.305133  0.055543  0.504727  1
  H  H338  1  0.028367  0.055548  0.504804  1
  H  H339  1  0.232202  0.264651  0.502617  1
  H  H340  1  0.882945  0.264640  0.502762  1
  H  H341  1  0.232417  0.179635  0.475170  1
  H  H342  1  0.882653  0.179593  0.475286  1
  H  H343  1  0.638889  0.388654  0.505302  1
  H  H344  1  0.362133  0.388827  0.505390  1
  H  H345  1  0.361126  0.499935  0.540369  1
  H  H346  1  0.638945  0.499867  0.540384  1
  H  H347  1  0.361423  0.611138  0.575815  1
  H  H348  1  0.638298  0.611116  0.575814  1
  H  H349  1  0.971815  0.722240  0.504506  1
  H  H350  1  0.694991  0.722254  0.504551  1
  H  H351  1  0.972307  0.833392  0.540269  1
  H  H352  1  0.694833  0.833380  0.540298  1
  H  H353  1  0.694714  0.944507  0.575904  1
  H  H354  1  0.971668  0.944491  0.575954  1
