# generated using pymatgen
data_Si18H2O37
_symmetry_space_group_name_H-M   'P 1'
_cell_length_a   12.87099131
_cell_length_b   30.43154753
_cell_length_c   51.74278435
_cell_angle_alpha   90.00000000
_cell_angle_beta   120.00000000
_cell_angle_gamma   90.00000000
_symmetry_Int_Tables_number   1
_chemical_formula_structural   Si18H2O37
_chemical_formula_sum   'Si144 H16 O296'
_cell_volume   17551.5898555
_cell_formula_units_Z   8
loop_
 _symmetry_equiv_pos_site_id
 _symmetry_equiv_pos_as_xyz
  1  'x, y, z'
loop_
 _atom_site_type_symbol
 _atom_site_label
 _atom_site_symmetry_multiplicity
 _atom_site_fract_x
 _atom_site_fract_y
 _atom_site_fract_z
 _atom_site_occupancy
  O  O1  1  0.270479  0.250024  0.264030  1
  O  O2  1  0.729204  0.250014  0.264023  1
  O  O3  1  0.270682  0.000000  0.264039  1
  O  O4  1  0.728961  0.000000  0.264030  1
  O  O5  1  0.728968  0.500020  0.264037  1
  O  O6  1  0.729266  0.750010  0.264047  1
  O  O7  1  0.772258  0.125053  0.150817  1
  O  O8  1  0.544691  0.625043  0.207403  1
  O  O9  1  0.227427  0.625027  0.207408  1
  O  O10  1  0.544672  0.874986  0.207405  1
  O  O11  1  0.227411  0.875020  0.207405  1
  O  O12  1  0.772271  0.374993  0.150821  1
  O  O13  1  0.685215  0.166888  0.177965  1
  O  O14  1  0.968475  0.166883  0.177924  1
  O  O15  1  0.653766  0.666873  0.256206  1
  O  O16  1  0.031279  0.666879  0.185738  1
  O  O17  1  0.314570  0.666878  0.256208  1
  O  O18  1  0.653766  0.666873  0.185728  1
  O  O19  1  0.653739  0.833150  0.256209  1
  O  O20  1  0.031249  0.833181  0.185742  1
  O  O21  1  0.314554  0.833179  0.256212  1
  O  O22  1  0.653749  0.833167  0.185730  1
  O  O23  1  0.685220  0.333163  0.177971  1
  O  O24  1  0.968499  0.333176  0.177937  1
  O  O25  1  0.542751  0.124996  0.128990  1
  O  O26  1  0.913968  0.124897  0.128975  1
  O  O27  1  0.456928  0.624960  0.242665  1
  O  O28  1  0.456957  0.624942  0.150310  1
  O  O29  1  0.085669  0.624962  0.150312  1
  O  O30  1  0.456916  0.875089  0.242668  1
  O  O31  1  0.456917  0.875084  0.150312  1
  O  O32  1  0.085632  0.875070  0.150308  1
  O  O33  1  0.542758  0.375054  0.128997  1
  O  O34  1  0.913995  0.375135  0.128980  1
  O  O35  1  0.685313  0.083185  0.177949  1
  O  O36  1  0.968271  0.083185  0.177965  1
  O  O37  1  0.653766  0.583173  0.256167  1
  O  O38  1  0.031423  0.583170  0.185793  1
  O  O39  1  0.314373  0.583172  0.256179  1
  O  O40  1  0.653819  0.583169  0.185798  1
  O  O41  1  0.653774  0.916851  0.256166  1
  O  O42  1  0.031414  0.916888  0.185786  1
  O  O43  1  0.314329  0.916883  0.256170  1
  O  O44  1  0.653764  0.916869  0.185789  1
  O  O45  1  0.685358  0.416864  0.177956  1
  O  O46  1  0.968280  0.416873  0.177962  1
  O  O47  1  0.895219  0.194532  0.211929  1
  O  O48  1  0.790384  0.694527  0.237958  1
  O  O49  1  0.104625  0.694536  0.237972  1
  O  O50  1  0.790362  0.805504  0.237962  1
  O  O51  1  0.104621  0.805515  0.237976  1
  O  O52  1  0.895214  0.305516  0.211934  1
  O  O53  1  0.729247  0.250026  0.196752  1
  O  O54  1  -0.000000  0.250031  0.196708  1
  O  O55  1  -0.000000  0.750031  0.196680  1
  O  O56  1  0.270618  0.750029  0.264052  1
  O  O57  1  0.729242  0.750020  0.196672  1
  O  O58  1  0.122513  0.188984  0.233534  1
  O  O59  1  0.754884  0.188970  0.233576  1
  O  O60  1  0.877287  0.688983  0.203026  1
  O  O61  1  0.877279  0.811066  0.203033  1
  O  O62  1  0.122510  0.311067  0.233542  1
  O  O63  1  0.754877  0.311066  0.233581  1
  O  O64  1  0.895249  0.055226  0.212026  1
  O  O65  1  0.790764  0.555215  0.238029  1
  O  O66  1  0.104443  0.555223  0.238027  1
  O  O67  1  0.790736  0.944820  0.238015  1
  O  O68  1  0.104385  0.944825  0.238019  1
  O  O69  1  0.895312  0.444820  0.212035  1
  O  O70  1  0.728947  0.000000  0.196648  1
  O  O71  1  0.000000  0.000000  0.196663  1
  O  O72  1  0.000000  0.500017  0.196669  1
  O  O73  1  0.270743  0.500016  0.264043  1
  O  O74  1  0.729010  0.500018  0.196662  1
  O  O75  1  0.122662  0.061202  0.233495  1
  O  O76  1  0.754077  0.061182  0.233473  1
  O  O77  1  0.877046  0.561187  0.202924  1
  O  O78  1  0.876986  0.938862  0.202903  1
  O  O79  1  0.122726  0.438848  0.233492  1
  O  O80  1  0.754119  0.438851  0.233480  1
  O  O81  1  0.345974  0.166884  0.271871  1
  O  O82  1  0.685194  0.166865  0.271850  1
  O  O83  1  0.345984  0.333161  0.271877  1
  O  O84  1  0.685209  0.333156  0.271861  1
  O  O85  1  0.345911  0.083182  0.271903  1
  O  O86  1  0.685323  0.083159  0.271896  1
  O  O87  1  0.345968  0.416862  0.271911  1
  O  O88  1  0.685337  0.416862  0.271898  1
  O  O89  1  0.542760  0.124972  0.285393  1
  O  O90  1  0.542795  0.375055  0.285405  1
  O  O91  1  0.270479  0.250024  0.512806  1
  O  O92  1  0.729204  0.250014  0.512799  1
  O  O93  1  0.270682  -0.000000  0.512814  1
  O  O94  1  0.728961  0.000000  0.512806  1
  O  O95  1  0.728968  0.500020  0.512812  1
  O  O96  1  0.729266  0.750010  0.512822  1
  O  O97  1  0.455044  0.125033  0.320670  1
  O  O98  1  0.772258  0.125053  0.399593  1
  O  O99  1  0.772254  0.125031  0.320654  1
  O  O100  1  0.544691  0.625043  0.456178  1
  O  O101  1  0.227441  0.625047  0.377258  1
  O  O102  1  0.227427  0.625027  0.456184  1
  O  O103  1  0.544672  0.874986  0.456181  1
  O  O104  1  0.227403  0.874985  0.377255  1
  O  O105  1  0.227411  0.875020  0.456181  1
  O  O106  1  0.455062  0.374999  0.320678  1
  O  O107  1  0.772271  0.374993  0.399597  1
  O  O108  1  0.772287  0.374998  0.320662  1
  O  O109  1  0.685215  0.166888  0.426741  1
  O  O110  1  0.968474  0.166848  0.342355  1
  O  O111  1  0.968475  0.166883  0.426700  1
  O  O112  1  0.345930  0.166871  0.342325  1
  O  O113  1  0.653766  0.666873  0.504982  1
  O  O114  1  0.314597  0.666869  0.350125  1
  O  O115  1  0.031279  0.666879  0.434514  1
  O  O116  1  0.031250  0.666870  0.350117  1
  O  O117  1  0.314570  0.666878  0.504984  1
  O  O118  1  0.653766  0.666873  0.434503  1
  O  O119  1  0.653739  0.833150  0.504985  1
  O  O120  1  0.314572  0.833157  0.350129  1
  O  O121  1  0.031249  0.833181  0.434518  1
  O  O122  1  0.031239  0.833143  0.350121  1
  O  O123  1  0.314554  0.833179  0.504987  1
  O  O124  1  0.653749  0.833167  0.434506  1
  O  O125  1  0.685220  0.333163  0.426747  1
  O  O126  1  0.968483  0.333164  0.342361  1
  O  O127  1  0.968499  0.333176  0.426712  1
  O  O128  1  0.345950  0.333154  0.342334  1
  O  O129  1  0.542751  0.124996  0.377766  1
  O  O130  1  0.913968  0.124897  0.377750  1
  O  O131  1  0.456928  0.624960  0.491441  1
  O  O132  1  0.456957  0.624942  0.399086  1
  O  O133  1  0.085669  0.624962  0.399088  1
  O  O134  1  0.456916  0.875089  0.491444  1
  O  O135  1  0.456917  0.875084  0.399088  1
  O  O136  1  0.085632  0.875070  0.399084  1
  O  O137  1  0.542758  0.375054  0.377773  1
  O  O138  1  0.913995  0.375135  0.377756  1
  O  O139  1  0.685313  0.083185  0.426724  1
  O  O140  1  0.968233  0.083144  0.342269  1
  O  O141  1  0.968271  0.083185  0.426741  1
  O  O142  1  0.345932  0.083168  0.342289  1
  O  O143  1  0.653766  0.583173  0.504943  1
  O  O144  1  0.314334  0.583168  0.350119  1
  O  O145  1  0.031423  0.583170  0.434568  1
  O  O146  1  0.031439  0.583171  0.350124  1
  O  O147  1  0.314373  0.583172  0.504954  1
  O  O148  1  0.653819  0.583169  0.434573  1
  O  O149  1  0.653774  0.916851  0.504941  1
  O  O150  1  0.314322  0.916858  0.350117  1
  O  O151  1  0.031414  0.916888  0.434562  1
  O  O152  1  0.031383  0.916843  0.350113  1
  O  O153  1  0.314329  0.916883  0.504946  1
  O  O154  1  0.653764  0.916869  0.434565  1
  O  O155  1  0.685358  0.416864  0.426731  1
  O  O156  1  0.968281  0.416871  0.342274  1
  O  O157  1  0.968280  0.416873  0.426738  1
  O  O158  1  0.345926  0.416860  0.342287  1
  O  O159  1  0.209255  0.194521  0.290090  1
  O  O160  1  0.895219  0.194532  0.460705  1
  O  O161  1  0.895181  0.194519  0.290130  1
  O  O162  1  0.790384  0.694527  0.486734  1
  O  O163  1  0.104644  0.694515  0.316134  1
  O  O164  1  0.104625  0.694536  0.486747  1
  O  O165  1  0.790362  0.805504  0.486737  1
  O  O166  1  0.104628  0.805502  0.316135  1
  O  O167  1  0.104621  0.805515  0.486752  1
  O  O168  1  0.209275  0.305514  0.290099  1
  O  O169  1  0.895214  0.305516  0.460710  1
  O  O170  1  0.895190  0.305500  0.290135  1
  O  O171  1  0.729247  0.250026  0.445528  1
  O  O172  1  0.000000  0.250009  0.331431  1
  O  O173  1  0.000000  0.250031  0.445484  1
  O  O174  1  0.270459  0.250013  0.331390  1
  O  O175  1  0.270620  0.750014  0.331347  1
  O  O176  1  -0.000000  0.750031  0.445455  1
  O  O177  1  0.000000  0.750005  0.331334  1
  O  O178  1  0.270618  0.750029  0.512828  1
  O  O179  1  0.729242  0.750020  0.445448  1
  O  O180  1  0.122513  0.188984  0.482309  1
  O  O181  1  0.754884  0.188970  0.482352  1
  O  O182  1  0.122463  0.188970  0.325059  1
  O  O183  1  0.877299  0.688963  0.294510  1
  O  O184  1  0.245097  0.688978  0.294523  1
  O  O185  1  0.877287  0.688983  0.451802  1
  O  O186  1  0.877279  0.811055  0.294514  1
  O  O187  1  0.245091  0.811063  0.294528  1
  O  O188  1  0.877279  0.811066  0.451809  1
  O  O189  1  0.122510  0.311067  0.482318  1
  O  O190  1  0.754877  0.311066  0.482357  1
  O  O191  1  0.122480  0.311049  0.325068  1
  O  O192  1  0.208964  0.055224  0.290061  1
  O  O193  1  0.895249  0.055226  0.460802  1
  O  O194  1  0.895264  0.055205  0.290040  1
  O  O195  1  0.790764  0.555215  0.486805  1
  O  O196  1  0.104389  0.555216  0.316047  1
  O  O197  1  0.104443  0.555223  0.486802  1
  O  O198  1  0.790736  0.944820  0.486791  1
  O  O199  1  0.104385  0.944809  0.316047  1
  O  O200  1  0.104385  0.944825  0.486795  1
  O  O201  1  0.208990  0.444816  0.290056  1
  O  O202  1  0.895312  0.444820  0.460811  1
  O  O203  1  0.895271  0.444819  0.290045  1
  O  O204  1  0.728947  0.000000  0.445424  1
  O  O205  1  0.000000  0.000000  0.331407  1
  O  O206  1  -0.000000  0.000000  0.445439  1
  O  O207  1  0.270701  0.000000  0.331419  1
  O  O208  1  0.270706  0.500017  0.331417  1
  O  O209  1  0.000000  0.500017  0.445444  1
  O  O210  1  -0.000000  0.500020  0.331412  1
  O  O211  1  0.270743  0.500016  0.512819  1
  O  O212  1  0.729010  0.500018  0.445437  1
  O  O213  1  0.122662  0.061202  0.482271  1
  O  O214  1  0.754077  0.061182  0.482249  1
  O  O215  1  0.122679  0.061175  0.325162  1
  O  O216  1  0.876988  0.561188  0.294595  1
  O  O217  1  0.245553  0.561184  0.294593  1
  O  O218  1  0.877046  0.561187  0.451700  1
  O  O219  1  0.876989  0.938834  0.294583  1
  O  O220  1  0.245521  0.938853  0.294588  1
  O  O221  1  0.876986  0.938862  0.451679  1
  O  O222  1  0.122726  0.438848  0.482267  1
  O  O223  1  0.754119  0.438851  0.482256  1
  O  O224  1  0.122682  0.438849  0.325153  1
  O  O225  1  0.345974  0.166884  0.520647  1
  O  O226  1  0.685194  0.166865  0.520626  1
  O  O227  1  0.345984  0.333161  0.520653  1
  O  O228  1  0.685209  0.333156  0.520637  1
  O  O229  1  0.345911  0.083182  0.520679  1
  O  O230  1  0.685323  0.083159  0.520672  1
  O  O231  1  0.345968  0.416862  0.520687  1
  O  O232  1  0.685337  0.416862  0.520674  1
  O  O233  1  0.542760  0.124972  0.534169  1
  O  O234  1  0.542795  0.375055  0.534181  1
  O  O235  1  0.455044  0.125033  0.569445  1
  O  O236  1  0.772254  0.125031  0.569430  1
  O  O237  1  0.227441  0.625047  0.626034  1
  O  O238  1  0.227403  0.874985  0.626031  1
  O  O239  1  0.455062  0.374999  0.569454  1
  O  O240  1  0.772287  0.374998  0.569437  1
  O  O241  1  0.968474  0.166848  0.591131  1
  O  O242  1  0.345930  0.166871  0.591101  1
  O  O243  1  0.314597  0.666869  0.598901  1
  O  O244  1  0.031250  0.666870  0.598893  1
  O  O245  1  0.314572  0.833157  0.598904  1
  O  O246  1  0.031239  0.833143  0.598897  1
  O  O247  1  0.968483  0.333164  0.591137  1
  O  O248  1  0.345950  0.333154  0.591110  1
  O  O249  1  0.542751  0.124996  0.626542  1
  O  O250  1  0.913968  0.124897  0.626526  1
  O  O251  1  0.456957  0.624942  0.647862  1
  O  O252  1  0.085669  0.624962  0.647864  1
  O  O253  1  0.456917  0.875084  0.647864  1
  O  O254  1  0.085632  0.875070  0.647860  1
  O  O255  1  0.542758  0.375054  0.626548  1
  O  O256  1  0.913995  0.375135  0.626532  1
  O  O257  1  0.968233  0.083144  0.591045  1
  O  O258  1  0.345932  0.083168  0.591065  1
  O  O259  1  0.314334  0.583168  0.598894  1
  O  O260  1  0.031439  0.583171  0.598900  1
  O  O261  1  0.314322  0.916858  0.598893  1
  O  O262  1  0.031383  0.916843  0.598889  1
  O  O263  1  0.968281  0.416871  0.591050  1
  O  O264  1  0.345926  0.416860  0.591063  1
  O  O265  1  0.209255  0.194521  0.538866  1
  O  O266  1  0.895181  0.194519  0.538906  1
  O  O267  1  0.104644  0.694515  0.564910  1
  O  O268  1  0.104628  0.805502  0.564911  1
  O  O269  1  0.209275  0.305514  0.538875  1
  O  O270  1  0.895190  0.305500  0.538911  1
  O  O271  1  0.000000  0.250009  0.580207  1
  O  O272  1  0.270459  0.250013  0.580166  1
  O  O273  1  0.270620  0.750014  0.580123  1
  O  O274  1  0.000000  0.750005  0.580110  1
  O  O275  1  0.122463  0.188970  0.573835  1
  O  O276  1  0.877299  0.688963  0.543286  1
  O  O277  1  0.245097  0.688978  0.543299  1
  O  O278  1  0.877279  0.811055  0.543289  1
  O  O279  1  0.245091  0.811063  0.543304  1
  O  O280  1  0.122480  0.311049  0.573844  1
  O  O281  1  0.208964  0.055224  0.538837  1
  O  O282  1  0.895264  0.055205  0.538816  1
  O  O283  1  0.104389  0.555216  0.564822  1
  O  O284  1  0.104385  0.944809  0.564822  1
  O  O285  1  0.208990  0.444816  0.538832  1
  O  O286  1  0.895271  0.444819  0.538821  1
  O  O287  1  0.000000  0.000000  0.580183  1
  O  O288  1  0.270701  0.000000  0.580195  1
  O  O289  1  0.270706  0.500017  0.580193  1
  O  O290  1  0.000000  0.500020  0.580188  1
  O  O291  1  0.122679  0.061175  0.573937  1
  O  O292  1  0.876988  0.561188  0.543371  1
  O  O293  1  0.245553  0.561184  0.543369  1
  O  O294  1  0.876989  0.938834  0.543358  1
  O  O295  1  0.245521  0.938853  0.543364  1
  O  O296  1  0.122682  0.438849  0.573929  1
  Si  Si297  1  0.239323  0.300421  0.264135  1
  Si  Si298  1  0.760825  0.300410  0.264147  1
  Si  Si299  1  0.239318  0.199627  0.264130  1
  Si  Si300  1  0.760817  0.199616  0.264141  1
  Si  Si301  1  0.239291  0.050417  0.264133  1
  Si  Si302  1  0.760686  0.050396  0.264118  1
  Si  Si303  1  0.239345  0.449629  0.264133  1
  Si  Si304  1  0.760697  0.449630  0.264123  1
  Si  Si305  1  0.667353  0.125048  0.158154  1
  Si  Si306  1  0.906642  0.125021  0.158143  1
  Si  Si307  1  0.574162  0.625028  0.240833  1
  Si  Si308  1  0.093038  0.625021  0.181308  1
  Si  Si309  1  0.332338  0.625020  0.240839  1
  Si  Si310  1  0.574184  0.625022  0.181307  1
  Si  Si311  1  0.574151  0.875001  0.240836  1
  Si  Si312  1  0.093018  0.875030  0.181306  1
  Si  Si313  1  0.332317  0.875032  0.240838  1
  Si  Si314  1  0.574151  0.875013  0.181308  1
  Si  Si315  1  0.667369  0.375001  0.158159  1
  Si  Si316  1  0.906657  0.375029  0.158147  1
  Si  Si317  1  0.760853  0.199628  0.204492  1
  Si  Si318  1  0.000000  0.199632  0.204456  1
  Si  Si319  1  0.760414  0.699616  0.263933  1
  Si  Si320  1  -0.000000  0.699632  0.204538  1
  Si  Si321  1  0.239029  0.699631  0.263942  1
  Si  Si322  1  0.760396  0.699624  0.204527  1
  Si  Si323  1  0.760391  0.800408  0.263936  1
  Si  Si324  1  0.000000  0.800426  0.204542  1
  Si  Si325  1  0.239023  0.800424  0.263946  1
  Si  Si326  1  0.760383  0.800417  0.204530  1
  Si  Si327  1  0.760847  0.300422  0.204496  1
  Si  Si328  1  -0.000000  0.300425  0.204463  1
  Si  Si329  1  0.760669  0.050412  0.204467  1
  Si  Si330  1  0.000000  0.050421  0.204484  1
  Si  Si331  1  0.760389  0.550406  0.263950  1
  Si  Si332  1  -0.000000  0.550409  0.204554  1
  Si  Si333  1  0.239004  0.550406  0.263953  1
  Si  Si334  1  0.760429  0.550405  0.204556  1
  Si  Si335  1  0.760384  0.949620  0.263940  1
  Si  Si336  1  0.000000  0.949644  0.204544  1
  Si  Si337  1  0.238947  0.949640  0.263946  1
  Si  Si338  1  0.760375  0.949636  0.204540  1
  Si  Si339  1  0.760731  0.449630  0.204477  1
  Si  Si340  1  0.000000  0.449632  0.204486  1
  Si  Si341  1  0.667357  0.125023  0.287222  1
  Si  Si342  1  0.425548  0.125030  0.287237  1
  Si  Si343  1  0.425578  0.375009  0.287246  1
  Si  Si344  1  0.667383  0.375003  0.287230  1
  Si  Si345  1  0.239323  0.300421  0.512911  1
  Si  Si346  1  0.760825  0.300410  0.512923  1
  Si  Si347  1  0.239318  0.199627  0.512906  1
  Si  Si348  1  0.760817  0.199616  0.512917  1
  Si  Si349  1  0.239291  0.050417  0.512909  1
  Si  Si350  1  0.760686  0.050396  0.512894  1
  Si  Si351  1  0.239345  0.449629  0.512909  1
  Si  Si352  1  0.760697  0.449630  0.512898  1
  Si  Si353  1  0.667353  0.125048  0.406929  1
  Si  Si354  1  0.906634  0.124993  0.346759  1
  Si  Si355  1  0.906642  0.125021  0.406918  1
  Si  Si356  1  0.425541  0.125025  0.346764  1
  Si  Si357  1  0.574162  0.625028  0.489609  1
  Si  Si358  1  0.332353  0.625023  0.369923  1
  Si  Si359  1  0.093038  0.625021  0.430084  1
  Si  Si360  1  0.093046  0.625029  0.369926  1
  Si  Si361  1  0.332338  0.625020  0.489615  1
  Si  Si362  1  0.574184  0.625022  0.430083  1
  Si  Si363  1  0.574151  0.875001  0.489612  1
  Si  Si364  1  0.332322  0.875007  0.369923  1
  Si  Si365  1  0.093018  0.875030  0.430082  1
  Si  Si366  1  0.093007  0.874993  0.369922  1
  Si  Si367  1  0.332317  0.875032  0.489613  1
  Si  Si368  1  0.574151  0.875013  0.430083  1
  Si  Si369  1  0.667369  0.375001  0.406935  1
  Si  Si370  1  0.906669  0.375027  0.346766  1
  Si  Si371  1  0.906657  0.375029  0.406923  1
  Si  Si372  1  0.425548  0.375004  0.346771  1
  Si  Si373  1  0.760853  0.199628  0.453268  1
  Si  Si374  1  0.000000  0.199612  0.323565  1
  Si  Si375  1  0.000000  0.199632  0.453231  1
  Si  Si376  1  0.239288  0.199617  0.323528  1
  Si  Si377  1  0.760414  0.699616  0.512709  1
  Si  Si378  1  0.239045  0.699617  0.323598  1
  Si  Si379  1  0.000000  0.699632  0.453313  1
  Si  Si380  1  -0.000000  0.699610  0.323588  1
  Si  Si381  1  0.239029  0.699631  0.512718  1
  Si  Si382  1  0.760396  0.699624  0.453303  1
  Si  Si383  1  0.760391  0.800408  0.512712  1
  Si  Si384  1  0.239031  0.800410  0.323600  1
  Si  Si385  1  0.000000  0.800426  0.453318  1
  Si  Si386  1  -0.000000  0.800404  0.323590  1
  Si  Si387  1  0.239023  0.800424  0.512722  1
  Si  Si388  1  0.760383  0.800417  0.453306  1
  Si  Si389  1  0.760847  0.300422  0.453272  1
  Si  Si390  1  0.000000  0.300404  0.323570  1
  Si  Si391  1  0.000000  0.300425  0.453239  1
  Si  Si392  1  0.239304  0.300411  0.323535  1
  Si  Si393  1  0.760669  0.050412  0.453243  1
  Si  Si394  1  -0.000000  0.050388  0.323515  1
  Si  Si395  1  0.000000  0.050421  0.453260  1
  Si  Si396  1  0.239312  0.050403  0.323534  1
  Si  Si397  1  0.760389  0.550406  0.512726  1
  Si  Si398  1  0.238959  0.550403  0.323598  1
  Si  Si399  1  -0.000000  0.550409  0.453330  1
  Si  Si400  1  -0.000000  0.550408  0.323601  1
  Si  Si401  1  0.239004  0.550406  0.512729  1
  Si  Si402  1  0.760429  0.550405  0.453332  1
  Si  Si403  1  0.760384  0.949620  0.512716  1
  Si  Si404  1  0.238953  0.949626  0.323597  1
  Si  Si405  1  0.000000  0.949644  0.453319  1
  Si  Si406  1  0.000000  0.949612  0.323595  1
  Si  Si407  1  0.238947  0.949640  0.512722  1
  Si  Si408  1  0.760375  0.949636  0.453316  1
  Si  Si409  1  0.760731  0.449630  0.453253  1
  Si  Si410  1  -0.000000  0.449631  0.323518  1
  Si  Si411  1  -0.000000  0.449632  0.453262  1
  Si  Si412  1  0.239318  0.449626  0.323528  1
  Si  Si413  1  0.667357  0.125023  0.535998  1
  Si  Si414  1  0.425548  0.125030  0.536013  1
  Si  Si415  1  0.425578  0.375009  0.536022  1
  Si  Si416  1  0.667383  0.375003  0.536006  1
  Si  Si417  1  0.906634  0.124993  0.595535  1
  Si  Si418  1  0.425541  0.125025  0.595540  1
  Si  Si419  1  0.332353  0.625023  0.618699  1
  Si  Si420  1  0.093046  0.625029  0.618701  1
  Si  Si421  1  0.332322  0.875007  0.618699  1
  Si  Si422  1  0.093007  0.874993  0.618698  1
  Si  Si423  1  0.906669  0.375027  0.595541  1
  Si  Si424  1  0.425548  0.375004  0.595546  1
  Si  Si425  1  0.000000  0.199612  0.572341  1
  Si  Si426  1  0.239288  0.199617  0.572304  1
  Si  Si427  1  0.239045  0.699617  0.572374  1
  Si  Si428  1  0.000000  0.699610  0.572364  1
  Si  Si429  1  0.239031  0.800410  0.572376  1
  Si  Si430  1  -0.000000  0.800404  0.572366  1
  Si  Si431  1  0.000000  0.300404  0.572345  1
  Si  Si432  1  0.239304  0.300411  0.572311  1
  Si  Si433  1  0.000000  0.050388  0.572291  1
  Si  Si434  1  0.239312  0.050403  0.572310  1
  Si  Si435  1  0.238959  0.550403  0.572373  1
  Si  Si436  1  -0.000000  0.550408  0.572377  1
  Si  Si437  1  0.238953  0.949626  0.572373  1
  Si  Si438  1  -0.000000  0.949612  0.572370  1
  Si  Si439  1  0.000000  0.449631  0.572293  1
  Si  Si440  1  0.239318  0.449626  0.572304  1
  H  H441  1  0.542751  0.124996  0.111597  1
  H  H442  1  0.913968  0.124897  0.111581  1
  H  H443  1  0.456957  0.624942  0.132916  1
  H  H444  1  0.085669  0.624962  0.132918  1
  H  H445  1  0.456917  0.875084  0.132919  1
  H  H446  1  0.085632  0.875070  0.132915  1
  H  H447  1  0.542758  0.375054  0.111603  1
  H  H448  1  0.913995  0.375135  0.111587  1
  H  H449  1  0.542751  0.124996  0.643935  1
  H  H450  1  0.913968  0.124897  0.643920  1
  H  H451  1  0.456957  0.624942  0.665255  1
  H  H452  1  0.085669  0.624962  0.665257  1
  H  H453  1  0.456917  0.875084  0.665258  1
  H  H454  1  0.085632  0.875070  0.665254  1
  H  H455  1  0.542758  0.375054  0.643942  1
  H  H456  1  0.913995  0.375135  0.643925  1
