# generated using pymatgen
data_Si9H2O19
_symmetry_space_group_name_H-M   'P 1'
_cell_length_a   12.87099131
_cell_length_b   30.43154753
_cell_length_c   38.87043471
_cell_angle_alpha   90.00000000
_cell_angle_beta   120.00000000
_cell_angle_gamma   90.00000000
_symmetry_Int_Tables_number   1
_chemical_formula_structural   Si9H2O19
_chemical_formula_sum   'Si72 H16 O152'
_cell_volume   13185.180042
_cell_formula_units_Z   8
loop_
 _symmetry_equiv_pos_site_id
 _symmetry_equiv_pos_as_xyz
  1  'x, y, z'
loop_
 _atom_site_type_symbol
 _atom_site_label
 _atom_site_symmetry_multiplicity
 _atom_site_fract_x
 _atom_site_fract_y
 _atom_site_fract_z
 _atom_site_occupancy
  O  O1  1  0.270479  0.250024  0.351466  1
  O  O2  1  0.729204  0.250014  0.351457  1
  O  O3  1  0.270682  -0.000000  0.351478  1
  O  O4  1  0.728961  -0.000000  0.351467  1
  O  O5  1  0.728968  0.500020  0.351475  1
  O  O6  1  0.729266  0.750010  0.351488  1
  O  O7  1  0.772258  0.125053  0.200762  1
  O  O8  1  0.544691  0.625043  0.276086  1
  O  O9  1  0.227427  0.625027  0.276093  1
  O  O10  1  0.544672  0.874986  0.276089  1
  O  O11  1  0.227411  0.875020  0.276089  1
  O  O12  1  0.772271  0.374993  0.200767  1
  O  O13  1  0.685215  0.166888  0.236900  1
  O  O14  1  0.968475  0.166883  0.236846  1
  O  O15  1  0.653766  0.666873  0.341052  1
  O  O16  1  0.031279  0.666879  0.247247  1
  O  O17  1  0.314570  0.666878  0.341055  1
  O  O18  1  0.653766  0.666873  0.247233  1
  O  O19  1  0.653739  0.833150  0.341056  1
  O  O20  1  0.031249  0.833181  0.247252  1
  O  O21  1  0.314554  0.833179  0.341059  1
  O  O22  1  0.653749  0.833167  0.247236  1
  O  O23  1  0.685220  0.333163  0.236908  1
  O  O24  1  0.968499  0.333176  0.236862  1
  O  O25  1  0.542751  0.124996  0.171707  1
  O  O26  1  0.913968  0.124897  0.171686  1
  O  O27  1  0.456928  0.624960  0.323026  1
  O  O28  1  0.456957  0.624942  0.200087  1
  O  O29  1  0.085669  0.624962  0.200089  1
  O  O30  1  0.456916  0.875089  0.323030  1
  O  O31  1  0.456917  0.875084  0.200090  1
  O  O32  1  0.085632  0.875070  0.200084  1
  O  O33  1  0.542758  0.375054  0.171716  1
  O  O34  1  0.913995  0.375135  0.171693  1
  O  O35  1  0.685313  0.083185  0.236878  1
  O  O36  1  0.968271  0.083185  0.236900  1
  O  O37  1  0.653766  0.583173  0.341000  1
  O  O38  1  0.031423  0.583170  0.247320  1
  O  O39  1  0.314373  0.583172  0.341015  1
  O  O40  1  0.653819  0.583169  0.247327  1
  O  O41  1  0.653774  0.916851  0.340998  1
  O  O42  1  0.031414  0.916888  0.247311  1
  O  O43  1  0.314329  0.916883  0.341004  1
  O  O44  1  0.653764  0.916869  0.247315  1
  O  O45  1  0.685358  0.416864  0.236887  1
  O  O46  1  0.968280  0.416873  0.236896  1
  O  O47  1  0.895219  0.194532  0.282112  1
  O  O48  1  0.790384  0.694527  0.316761  1
  O  O49  1  0.104625  0.694536  0.316778  1
  O  O50  1  0.790362  0.805504  0.316765  1
  O  O51  1  0.104621  0.805515  0.316784  1
  O  O52  1  0.895214  0.305516  0.282119  1
  O  O53  1  0.729247  0.250026  0.261909  1
  O  O54  1  -0.000000  0.250031  0.261851  1
  O  O55  1  0.000000  0.750031  0.261812  1
  O  O56  1  0.270618  0.750029  0.351496  1
  O  O57  1  0.729242  0.750020  0.261802  1
  O  O58  1  0.122513  0.188984  0.310871  1
  O  O59  1  0.754884  0.188970  0.310927  1
  O  O60  1  0.877287  0.688983  0.270260  1
  O  O61  1  0.877279  0.811066  0.270270  1
  O  O62  1  0.122510  0.311067  0.310882  1
  O  O63  1  0.754877  0.311066  0.310933  1
  O  O64  1  0.895249  0.055226  0.282240  1
  O  O65  1  0.790764  0.555215  0.316855  1
  O  O66  1  0.104443  0.555223  0.316852  1
  O  O67  1  0.790736  0.944820  0.316836  1
  O  O68  1  0.104385  0.944825  0.316841  1
  O  O69  1  0.895312  0.444820  0.282252  1
  O  O70  1  0.728947  -0.000000  0.261770  1
  O  O71  1  0.000000  0.000000  0.261791  1
  O  O72  1  0.000000  0.500017  0.261798  1
  O  O73  1  0.270743  0.500016  0.351484  1
  O  O74  1  0.729010  0.500018  0.261788  1
  O  O75  1  0.122662  0.061202  0.310820  1
  O  O76  1  0.754077  0.061182  0.310790  1
  O  O77  1  0.877046  0.561187  0.270124  1
  O  O78  1  0.876986  0.938862  0.270097  1
  O  O79  1  0.122726  0.438848  0.310815  1
  O  O80  1  0.754119  0.438851  0.310799  1
  O  O81  1  0.345974  0.166884  0.361904  1
  O  O82  1  0.685194  0.166865  0.361876  1
  O  O83  1  0.345984  0.333161  0.361912  1
  O  O84  1  0.685209  0.333156  0.361890  1
  O  O85  1  0.345911  0.083182  0.361947  1
  O  O86  1  0.685323  0.083159  0.361938  1
  O  O87  1  0.345968  0.416862  0.361957  1
  O  O88  1  0.685337  0.416862  0.361940  1
  O  O89  1  0.542760  0.124972  0.379904  1
  O  O90  1  0.542795  0.375055  0.379920  1
  O  O91  1  0.455044  0.125033  0.426863  1
  O  O92  1  0.772254  0.125031  0.426842  1
  O  O93  1  0.227441  0.625047  0.502192  1
  O  O94  1  0.227403  0.874985  0.502187  1
  O  O95  1  0.455062  0.374999  0.426874  1
  O  O96  1  0.772287  0.374998  0.426852  1
  O  O97  1  0.968474  0.166848  0.455730  1
  O  O98  1  0.345930  0.166871  0.455690  1
  O  O99  1  0.314597  0.666869  0.466073  1
  O  O100  1  0.031250  0.666870  0.466062  1
  O  O101  1  0.314572  0.833157  0.466078  1
  O  O102  1  0.031239  0.833143  0.466067  1
  O  O103  1  0.968483  0.333164  0.455737  1
  O  O104  1  0.345950  0.333154  0.455702  1
  O  O105  1  0.542751  0.124996  0.502867  1
  O  O106  1  0.913968  0.124897  0.502846  1
  O  O107  1  0.456957  0.624942  0.531247  1
  O  O108  1  0.085669  0.624962  0.531250  1
  O  O109  1  0.456917  0.875084  0.531250  1
  O  O110  1  0.085632  0.875070  0.531245  1
  O  O111  1  0.542758  0.375054  0.502876  1
  O  O112  1  0.913995  0.375135  0.502854  1
  O  O113  1  0.968233  0.083144  0.455615  1
  O  O114  1  0.345932  0.083168  0.455642  1
  O  O115  1  0.314334  0.583168  0.466064  1
  O  O116  1  0.031439  0.583171  0.466072  1
  O  O117  1  0.314322  0.916858  0.466062  1
  O  O118  1  0.031383  0.916843  0.466056  1
  O  O119  1  0.968281  0.416871  0.455622  1
  O  O120  1  0.345926  0.416860  0.455639  1
  O  O121  1  0.209255  0.194521  0.386157  1
  O  O122  1  0.895181  0.194519  0.386210  1
  O  O123  1  0.104644  0.694515  0.420825  1
  O  O124  1  0.104628  0.805502  0.420827  1
  O  O125  1  0.209275  0.305514  0.386168  1
  O  O126  1  0.895190  0.305500  0.386216  1
  O  O127  1  0.000000  0.250009  0.441188  1
  O  O128  1  0.270459  0.250013  0.441134  1
  O  O129  1  0.270620  0.750014  0.441076  1
  O  O130  1  0.000000  0.750005  0.441059  1
  O  O131  1  0.122463  0.188970  0.432706  1
  O  O132  1  0.877299  0.688963  0.392040  1
  O  O133  1  0.245097  0.688978  0.392058  1
  O  O134  1  0.877279  0.811055  0.392045  1
  O  O135  1  0.245091  0.811063  0.392064  1
  O  O136  1  0.122480  0.311049  0.432717  1
  O  O137  1  0.208964  0.055224  0.386118  1
  O  O138  1  0.895264  0.055205  0.386090  1
  O  O139  1  0.104389  0.555216  0.420709  1
  O  O140  1  0.104385  0.944809  0.420709  1
  O  O141  1  0.208990  0.444816  0.386111  1
  O  O142  1  0.895271  0.444819  0.386096  1
  O  O143  1  0.000000  -0.000000  0.441156  1
  O  O144  1  0.270701  -0.000000  0.441172  1
  O  O145  1  0.270706  0.500017  0.441169  1
  O  O146  1  0.000000  0.500020  0.441163  1
  O  O147  1  0.122679  0.061175  0.432842  1
  O  O148  1  0.876988  0.561188  0.392154  1
  O  O149  1  0.245553  0.561184  0.392151  1
  O  O150  1  0.876989  0.938834  0.392137  1
  O  O151  1  0.245521  0.938853  0.392144  1
  O  O152  1  0.122682  0.438849  0.432831  1
  Si  Si153  1  0.239323  0.300421  0.351607  1
  Si  Si154  1  0.760825  0.300410  0.351622  1
  Si  Si155  1  0.239318  0.199627  0.351599  1
  Si  Si156  1  0.760817  0.199616  0.351615  1
  Si  Si157  1  0.239291  0.050417  0.351603  1
  Si  Si158  1  0.760686  0.050396  0.351584  1
  Si  Si159  1  0.239345  0.449629  0.351603  1
  Si  Si160  1  0.760697  0.449630  0.351590  1
  Si  Si161  1  0.667353  0.125048  0.210528  1
  Si  Si162  1  0.906642  0.125021  0.210513  1
  Si  Si163  1  0.574162  0.625028  0.320587  1
  Si  Si164  1  0.093038  0.625021  0.241350  1
  Si  Si165  1  0.332338  0.625020  0.320595  1
  Si  Si166  1  0.574184  0.625022  0.241349  1
  Si  Si167  1  0.574151  0.875001  0.320591  1
  Si  Si168  1  0.093018  0.875030  0.241348  1
  Si  Si169  1  0.332317  0.875032  0.320593  1
  Si  Si170  1  0.574151  0.875013  0.241349  1
  Si  Si171  1  0.667369  0.375001  0.210535  1
  Si  Si172  1  0.906657  0.375029  0.210519  1
  Si  Si173  1  0.760853  0.199628  0.272212  1
  Si  Si174  1  0.000000  0.199632  0.272163  1
  Si  Si175  1  0.760414  0.699616  0.351337  1
  Si  Si176  1  0.000000  0.699632  0.272272  1
  Si  Si177  1  0.239029  0.699631  0.351350  1
  Si  Si178  1  0.760396  0.699624  0.272258  1
  Si  Si179  1  0.760391  0.800408  0.351341  1
  Si  Si180  1  0.000000  0.800426  0.272279  1
  Si  Si181  1  0.239023  0.800424  0.351354  1
  Si  Si182  1  0.760383  0.800417  0.272263  1
  Si  Si183  1  0.760847  0.300422  0.272217  1
  Si  Si184  1  -0.000000  0.300425  0.272173  1
  Si  Si185  1  0.760669  0.050412  0.272178  1
  Si  Si186  1  0.000000  0.050421  0.272201  1
  Si  Si187  1  0.760389  0.550406  0.351360  1
  Si  Si188  1  0.000000  0.550409  0.272294  1
  Si  Si189  1  0.239004  0.550406  0.351364  1
  Si  Si190  1  0.760429  0.550405  0.272297  1
  Si  Si191  1  0.760384  0.949620  0.351346  1
  Si  Si192  1  0.000000  0.949644  0.272280  1
  Si  Si193  1  0.238947  0.949640  0.351355  1
  Si  Si194  1  0.760375  0.949636  0.272276  1
  Si  Si195  1  0.760731  0.449630  0.272192  1
  Si  Si196  1  0.000000  0.449632  0.272204  1
  Si  Si197  1  0.667357  0.125023  0.382338  1
  Si  Si198  1  0.425548  0.125030  0.382358  1
  Si  Si199  1  0.425578  0.375009  0.382371  1
  Si  Si200  1  0.667383  0.375003  0.382350  1
  Si  Si201  1  0.906634  0.124993  0.461592  1
  Si  Si202  1  0.425541  0.125025  0.461599  1
  Si  Si203  1  0.332353  0.625023  0.492427  1
  Si  Si204  1  0.093046  0.625029  0.492430  1
  Si  Si205  1  0.332322  0.875007  0.492427  1
  Si  Si206  1  0.093007  0.874993  0.492425  1
  Si  Si207  1  0.906669  0.375027  0.461601  1
  Si  Si208  1  0.425548  0.375004  0.461608  1
  Si  Si209  1  0.000000  0.199612  0.430717  1
  Si  Si210  1  0.239288  0.199617  0.430668  1
  Si  Si211  1  0.239045  0.699617  0.430761  1
  Si  Si212  1  0.000000  0.699610  0.430748  1
  Si  Si213  1  0.239031  0.800410  0.430764  1
  Si  Si214  1  -0.000000  0.800404  0.430750  1
  Si  Si215  1  -0.000000  0.300404  0.430723  1
  Si  Si216  1  0.239304  0.300411  0.430677  1
  Si  Si217  1  0.000000  0.050388  0.430651  1
  Si  Si218  1  0.239312  0.050403  0.430675  1
  Si  Si219  1  0.238959  0.550403  0.430760  1
  Si  Si220  1  0.000000  0.550408  0.430765  1
  Si  Si221  1  0.238953  0.949626  0.430760  1
  Si  Si222  1  -0.000000  0.949612  0.430756  1
  Si  Si223  1  0.000000  0.449631  0.430654  1
  Si  Si224  1  0.239318  0.449626  0.430668  1
  H  H225  1  0.542751  0.124996  0.148553  1
  H  H226  1  0.913968  0.124897  0.148532  1
  H  H227  1  0.456957  0.624942  0.176933  1
  H  H228  1  0.085669  0.624962  0.176936  1
  H  H229  1  0.456917  0.875084  0.176936  1
  H  H230  1  0.085632  0.875070  0.176931  1
  H  H231  1  0.542758  0.375054  0.148562  1
  H  H232  1  0.913995  0.375135  0.148540  1
  H  H233  1  0.542751  0.124996  0.526021  1
  H  H234  1  0.913968  0.124897  0.526000  1
  H  H235  1  0.456957  0.624942  0.554401  1
  H  H236  1  0.085669  0.624962  0.554404  1
  H  H237  1  0.456917  0.875084  0.554404  1
  H  H238  1  0.085632  0.875070  0.554399  1
  H  H239  1  0.542758  0.375054  0.526030  1
  H  H240  1  0.913995  0.375135  0.526008  1
