# generated using pymatgen
data_Si34H6O71
_symmetry_space_group_name_H-M   'P 1'
_cell_length_a   7.51561045
_cell_length_b   23.17128744
_cell_length_c   52.99492614
_cell_angle_alpha   52.20637989
_cell_angle_beta   90.00000000
_cell_angle_gamma   90.00000000
_symmetry_Int_Tables_number   1
_chemical_formula_structural   Si34H6O71
_chemical_formula_sum   'Si68 H12 O142'
_cell_volume   7292.87086449
_cell_formula_units_Z   2
loop_
 _symmetry_equiv_pos_site_id
 _symmetry_equiv_pos_as_xyz
  1  'x, y, z'
loop_
 _atom_site_type_symbol
 _atom_site_label
 _atom_site_symmetry_multiplicity
 _atom_site_fract_x
 _atom_site_fract_y
 _atom_site_fract_z
 _atom_site_occupancy
  O  O1  1  0.744609  0.998381  0.192402  1
  O  O2  1  0.744607  0.501736  0.191503  1
  O  O3  1  0.255064  0.001793  0.191488  1
  O  O4  1  0.255062  0.498323  0.192418  1
  O  O5  1  0.742203  0.107365  0.193230  1
  O  O6  1  0.731005  0.609925  0.192573  1
  O  O7  1  0.742234  0.107367  0.242558  1
  O  O8  1  0.730978  0.609922  0.241783  1
  O  O9  1  0.268669  0.109925  0.241814  1
  O  O10  1  0.257473  0.607365  0.242528  1
  O  O11  1  0.268698  0.109921  0.192604  1
  O  O12  1  0.257440  0.607367  0.193199  1
  O  O13  1  0.838916  0.220954  0.187454  1
  O  O14  1  0.822686  0.723942  0.186632  1
  O  O15  1  0.176988  0.223942  0.186654  1
  O  O16  1  0.160759  0.720953  0.187433  1
  O  O17  1  0.007729  0.750107  0.246610  1
  O  O18  1  0.002892  0.317438  0.136400  1
  O  O19  1  0.996781  0.817406  0.136378  1
  O  O20  1  0.002895  0.317406  0.186821  1
  O  O21  1  0.996784  0.817438  0.186781  1
  O  O22  1  0.834516  0.128451  0.141907  1
  O  O23  1  0.824599  0.633569  0.140935  1
  O  O24  1  0.824601  0.866547  0.212483  1
  O  O25  1  0.834515  0.371665  0.210712  1
  O  O26  1  0.165155  0.871757  0.210651  1
  O  O27  1  0.175073  0.366456  0.212545  1
  O  O28  1  0.175075  0.133659  0.140949  1
  O  O29  1  0.165151  0.628359  0.141896  1
  O  O30  1  0.507924  0.175981  0.199511  1
  O  O31  1  0.491750  0.675981  0.199476  1
  O  O32  1  0.504297  0.096575  0.162594  1
  O  O33  1  0.495374  0.596514  0.162586  1
  O  O34  1  0.495376  0.903602  0.214276  1
  O  O35  1  0.504295  0.403541  0.214316  1
  O  O36  1  0.744609  0.998381  0.460348  1
  O  O37  1  0.744607  0.501736  0.459449  1
  O  O38  1  0.744611  0.998323  0.301775  1
  O  O39  1  0.744613  0.501793  0.300846  1
  O  O40  1  0.255066  0.001735  0.300861  1
  O  O41  1  0.255069  0.498380  0.301760  1
  O  O42  1  0.255064  0.001793  0.459434  1
  O  O43  1  0.255062  0.498323  0.460364  1
  O  O44  1  0.742203  0.107365  0.461176  1
  O  O45  1  0.731005  0.609925  0.460519  1
  O  O46  1  0.731006  0.890191  0.251450  1
  O  O47  1  0.742202  0.392751  0.250735  1
  O  O48  1  0.742234  0.107367  0.510504  1
  O  O49  1  0.730978  0.609922  0.509730  1
  O  O50  1  0.730978  0.890194  0.300659  1
  O  O51  1  0.742235  0.392749  0.300064  1
  O  O52  1  0.257473  0.892751  0.300033  1
  O  O53  1  0.268671  0.390191  0.300691  1
  O  O54  1  0.268669  0.109925  0.509760  1
  O  O55  1  0.257473  0.607365  0.510475  1
  O  O56  1  0.257442  0.892749  0.250705  1
  O  O57  1  0.268697  0.390194  0.251480  1
  O  O58  1  0.268698  0.109921  0.460551  1
  O  O59  1  0.257440  0.607367  0.461146  1
  O  O60  1  0.838916  0.220954  0.455400  1
  O  O61  1  0.822686  0.723942  0.454578  1
  O  O62  1  0.822687  0.776174  0.306610  1
  O  O63  1  0.838917  0.279162  0.305830  1
  O  O64  1  0.160761  0.779163  0.305809  1
  O  O65  1  0.176989  0.276174  0.306631  1
  O  O66  1  0.176988  0.223942  0.454600  1
  O  O67  1  0.160759  0.720953  0.455380  1
  O  O68  1  0.991949  0.250107  0.380601  1
  O  O69  1  0.007726  0.750009  0.380609  1
  O  O70  1  0.007729  0.750107  0.514556  1
  O  O71  1  0.991947  0.250009  0.246654  1
  O  O72  1  0.002892  0.317438  0.404347  1
  O  O73  1  0.996781  0.817406  0.404324  1
  O  O74  1  0.996781  0.682709  0.306443  1
  O  O75  1  0.002892  0.182678  0.306482  1
  O  O76  1  0.002895  0.317406  0.454768  1
  O  O77  1  0.996784  0.817438  0.454728  1
  O  O78  1  0.996784  0.682678  0.356863  1
  O  O79  1  0.002895  0.182709  0.356886  1
  O  O80  1  0.834516  0.128451  0.409854  1
  O  O81  1  0.824599  0.633569  0.408882  1
  O  O82  1  0.824601  0.866547  0.480430  1
  O  O83  1  0.834515  0.371665  0.478658  1
  O  O84  1  0.834522  0.128359  0.282612  1
  O  O85  1  0.824602  0.633660  0.280718  1
  O  O86  1  0.824601  0.866456  0.352314  1
  O  O87  1  0.834525  0.371756  0.351368  1
  O  O88  1  0.165159  0.871665  0.351356  1
  O  O89  1  0.175076  0.366547  0.352328  1
  O  O90  1  0.175074  0.133569  0.280780  1
  O  O91  1  0.165161  0.628450  0.282551  1
  O  O92  1  0.165155  0.871757  0.478597  1
  O  O93  1  0.175073  0.366456  0.480492  1
  O  O94  1  0.175075  0.133659  0.408896  1
  O  O95  1  0.165151  0.628359  0.409842  1
  O  O96  1  0.507924  0.175981  0.467458  1
  O  O97  1  0.491750  0.675981  0.467422  1
  O  O98  1  0.491751  0.824135  0.293752  1
  O  O99  1  0.507925  0.324135  0.293787  1
  O  O100  1  0.504297  0.096575  0.430540  1
  O  O101  1  0.495374  0.596514  0.430532  1
  O  O102  1  0.495376  0.903602  0.482222  1
  O  O103  1  0.504295  0.403541  0.482263  1
  O  O104  1  0.504299  0.096514  0.278987  1
  O  O105  1  0.495380  0.596575  0.278947  1
  O  O106  1  0.495378  0.903541  0.330669  1
  O  O107  1  0.504302  0.403602  0.330678  1
  O  O108  1  0.744611  0.998323  0.569722  1
  O  O109  1  0.744613  0.501793  0.568792  1
  O  O110  1  0.255066  0.001735  0.568808  1
  O  O111  1  0.255069  0.498380  0.569707  1
  O  O112  1  0.731006  0.890191  0.519396  1
  O  O113  1  0.742202  0.392751  0.518681  1
  O  O114  1  0.730978  0.890194  0.568605  1
  O  O115  1  0.742235  0.392749  0.568011  1
  O  O116  1  0.257473  0.892751  0.567980  1
  O  O117  1  0.268671  0.390191  0.568637  1
  O  O118  1  0.257442  0.892749  0.518652  1
  O  O119  1  0.268697  0.390194  0.519426  1
  O  O120  1  0.822687  0.776174  0.574556  1
  O  O121  1  0.838917  0.279162  0.573777  1
  O  O122  1  0.160761  0.779163  0.573756  1
  O  O123  1  0.176989  0.276174  0.574578  1
  O  O124  1  0.991947  0.250009  0.514600  1
  O  O125  1  0.996781  0.682709  0.574389  1
  O  O126  1  0.002892  0.182678  0.574428  1
  O  O127  1  0.996784  0.682678  0.624810  1
  O  O128  1  0.002895  0.182709  0.624832  1
  O  O129  1  0.834522  0.128359  0.550559  1
  O  O130  1  0.824602  0.633660  0.548664  1
  O  O131  1  0.824601  0.866456  0.620261  1
  O  O132  1  0.834525  0.371756  0.619315  1
  O  O133  1  0.165159  0.871665  0.619303  1
  O  O134  1  0.175076  0.366547  0.620274  1
  O  O135  1  0.175074  0.133569  0.548727  1
  O  O136  1  0.165161  0.628450  0.550498  1
  O  O137  1  0.491751  0.824135  0.561699  1
  O  O138  1  0.507925  0.324135  0.561734  1
  O  O139  1  0.504299  0.096514  0.546934  1
  O  O140  1  0.495380  0.596575  0.546893  1
  O  O141  1  0.495378  0.903541  0.598616  1
  O  O142  1  0.504302  0.403602  0.598624  1
  Si  Si143  1  0.708338  0.082839  0.171682  1
  Si  Si144  1  0.700406  0.585568  0.170908  1
  Si  Si145  1  0.700409  0.914548  0.216732  1
  Si  Si146  1  0.708336  0.417277  0.216044  1
  Si  Si147  1  0.291333  0.917328  0.216006  1
  Si  Si148  1  0.299266  0.414496  0.216770  1
  Si  Si149  1  0.299267  0.085620  0.170918  1
  Si  Si150  1  0.291331  0.582787  0.171672  1
  Si  Si151  1  0.998147  0.827429  0.213599  1
  Si  Si152  1  0.001527  0.327351  0.213653  1
  Si  Si153  1  0.711251  0.153570  0.205514  1
  Si  Si154  1  0.696538  0.655925  0.204852  1
  Si  Si155  1  0.303137  0.155924  0.204884  1
  Si  Si156  1  0.288423  0.653570  0.205483  1
  Si  Si157  1  0.005167  0.272318  0.173693  1
  Si  Si158  1  0.994508  0.772318  0.173668  1
  Si  Si159  1  0.708338  0.082839  0.439629  1
  Si  Si160  1  0.700406  0.585568  0.438854  1
  Si  Si161  1  0.700409  0.914548  0.484679  1
  Si  Si162  1  0.708336  0.417277  0.483990  1
  Si  Si163  1  0.708342  0.082787  0.277257  1
  Si  Si164  1  0.700410  0.585620  0.276493  1
  Si  Si165  1  0.700408  0.914496  0.322345  1
  Si  Si166  1  0.708344  0.417329  0.321591  1
  Si  Si167  1  0.291337  0.917277  0.321581  1
  Si  Si168  1  0.299270  0.414548  0.322355  1
  Si  Si169  1  0.299268  0.085568  0.276531  1
  Si  Si170  1  0.291339  0.582839  0.277220  1
  Si  Si171  1  0.291333  0.917328  0.483953  1
  Si  Si172  1  0.299266  0.414496  0.484717  1
  Si  Si173  1  0.299267  0.085620  0.438865  1
  Si  Si174  1  0.291331  0.582787  0.439619  1
  Si  Si175  1  0.001528  0.172764  0.389048  1
  Si  Si176  1  0.998145  0.672686  0.389035  1
  Si  Si177  1  0.998147  0.827429  0.481546  1
  Si  Si178  1  0.001527  0.327351  0.481600  1
  Si  Si179  1  0.001528  0.172686  0.279664  1
  Si  Si180  1  0.998149  0.672764  0.279610  1
  Si  Si181  1  0.998147  0.827352  0.372162  1
  Si  Si182  1  0.001530  0.327430  0.372174  1
  Si  Si183  1  0.711251  0.153570  0.473461  1
  Si  Si184  1  0.696538  0.655925  0.472798  1
  Si  Si185  1  0.696539  0.844191  0.288380  1
  Si  Si186  1  0.711252  0.346546  0.287780  1
  Si  Si187  1  0.288423  0.846546  0.287749  1
  Si  Si188  1  0.303137  0.344191  0.288411  1
  Si  Si189  1  0.303137  0.155924  0.472830  1
  Si  Si190  1  0.288423  0.653570  0.473430  1
  Si  Si191  1  0.005167  0.272318  0.441639  1
  Si  Si192  1  0.994508  0.772318  0.441615  1
  Si  Si193  1  0.994508  0.727797  0.319571  1
  Si  Si194  1  0.005167  0.227798  0.319595  1
  Si  Si195  1  0.708342  0.082787  0.545204  1
  Si  Si196  1  0.700410  0.585620  0.544439  1
  Si  Si197  1  0.700408  0.914496  0.590291  1
  Si  Si198  1  0.708344  0.417329  0.589537  1
  Si  Si199  1  0.291337  0.917277  0.589528  1
  Si  Si200  1  0.299270  0.414548  0.590302  1
  Si  Si201  1  0.299268  0.085568  0.544477  1
  Si  Si202  1  0.291339  0.582839  0.545166  1
  Si  Si203  1  0.001528  0.172686  0.547611  1
  Si  Si204  1  0.998149  0.672764  0.547557  1
  Si  Si205  1  0.696539  0.844191  0.556327  1
  Si  Si206  1  0.711252  0.346546  0.555727  1
  Si  Si207  1  0.288423  0.846546  0.555696  1
  Si  Si208  1  0.303137  0.344191  0.556358  1
  Si  Si209  1  0.994508  0.727797  0.587517  1
  Si  Si210  1  0.005167  0.227798  0.587541  1
  H  H211  1  0.002892  0.317438  0.119417  1
  H  H212  1  0.996781  0.817406  0.119395  1
  H  H213  1  0.834516  0.128451  0.124925  1
  H  H214  1  0.824599  0.633569  0.123953  1
  H  H215  1  0.175075  0.133659  0.123966  1
  H  H216  1  0.165151  0.628359  0.124913  1
  H  H217  1  0.996784  0.682678  0.641792  1
  H  H218  1  0.002895  0.182709  0.641815  1
  H  H219  1  0.824601  0.866456  0.637244  1
  H  H220  1  0.834525  0.371756  0.636297  1
  H  H221  1  0.165159  0.871665  0.636285  1
  H  H222  1  0.175076  0.366547  0.637257  1
