# generated using pymatgen
data_Si5H2O11
_symmetry_space_group_name_H-M   'P 1'
_cell_length_a   12.61833605
_cell_length_b   33.27032509
_cell_length_c   37.27109836
_cell_angle_alpha   112.29219165
_cell_angle_beta   120.00000000
_cell_angle_gamma   79.06676341
_symmetry_Int_Tables_number   1
_chemical_formula_structural   Si5H2O11
_chemical_formula_sum   'Si60 H24 O132'
_cell_volume   12537.9464927
_cell_formula_units_Z   12
loop_
 _symmetry_equiv_pos_site_id
 _symmetry_equiv_pos_as_xyz
  1  'x, y, z'
loop_
 _atom_site_type_symbol
 _atom_site_label
 _atom_site_symmetry_multiplicity
 _atom_site_fract_x
 _atom_site_fract_y
 _atom_site_fract_z
 _atom_site_occupancy
  O  O1  1  0.317050  0.250434  0.255574  1
  O  O2  1  0.697607  0.250268  0.255482  1
  O  O3  1  0.666642  0.166595  0.241099  1
  O  O4  1  0.388832  0.166740  0.241174  1
  O  O5  1  0.542237  0.226864  0.271253  1
  O  O6  1  0.892093  0.295067  0.302279  1
  O  O7  1  0.215338  0.295051  0.302242  1
  O  O8  1  0.560028  0.112639  0.244791  1
  O  O9  1  0.689352  0.333251  0.286524  1
  O  O10  1  0.976996  0.333140  0.383922  1
  O  O11  1  0.124872  0.297771  0.351373  1
  O  O12  1  0.208248  0.035537  0.319301  1
  O  O13  1  0.985496  0.250202  0.352950  1
  O  O14  1  0.316674  0.250280  0.352971  1
  O  O15  1  0.347351  0.082943  0.317283  1
  O  O16  1  0.016324  0.082872  0.317532  1
  O  O17  1  0.388591  0.166650  0.335159  1
  O  O18  1  0.944391  0.166545  0.335197  1
  O  O19  1  0.915287  0.226858  0.397603  1
  O  O20  1  0.541951  0.226873  0.397648  1
  O  O21  1  0.417570  0.106523  0.272741  1
  O  O22  1  0.791124  0.106393  0.272733  1
  O  O23  1  0.773292  0.220664  0.317298  1
  O  O24  1  0.453278  0.220780  0.317373  1
  O  O25  1  0.559566  0.112560  0.353039  1
  O  O26  1  0.879704  0.112595  0.353101  1
  O  O27  1  0.333232  0.333236  0.383883  1
  O  O28  1  0.681003  0.416209  0.317535  1
  O  O29  1  0.349787  0.416449  0.317600  1
  O  O30  1  0.721865  0.499930  0.335635  1
  O  O31  1  0.541446  0.368769  0.319075  1
  O  O32  1  0.893106  0.445866  0.353166  1
  O  O33  1  0.213471  0.445951  0.353347  1
  O  O34  1  0.332939  0.333455  0.286549  1
  O  O35  1  0.277906  0.500164  0.335780  1
  O  O36  1  0.916814  0.369094  0.446315  1
  O  O37  1  0.541932  0.368998  0.446170  1
  O  O38  1  0.030664  0.583423  0.482556  1
  O  O39  1  0.318838  0.583506  0.482714  1
  O  O40  1  0.349669  0.416187  0.415030  1
  O  O41  1  0.968969  0.416084  0.414860  1
  O  O42  1  0.774324  0.371342  0.368183  1
  O  O43  1  0.450969  0.371576  0.368198  1
  O  O44  1  0.277784  0.499861  0.429762  1
  O  O45  1  0.000000  0.499766  0.429592  1
  O  O46  1  0.249095  0.560186  0.398503  1
  O  O47  1  0.875442  0.560059  0.398306  1
  O  O48  1  0.124251  0.439664  0.399218  1
  O  O49  1  0.106662  0.553996  0.426399  1
  O  O50  1  0.364356  0.917159  0.482497  1
  O  O51  1  0.652368  0.917059  0.482481  1
  O  O52  1  0.000000  -0.000000  0.286937  1
  O  O53  1  0.355909  -0.000000  0.286762  1
  O  O54  1  0.416729  0.964424  0.224852  1
  O  O55  1  0.791714  0.964538  0.224887  1
  O  O56  1  0.249668  0.702219  0.446736  1
  O  O57  1  0.874710  0.702249  0.446800  1
  O  O58  1  0.983175  0.916879  0.256045  1
  O  O59  1  0.363902  0.916872  0.255928  1
  O  O60  1  0.302165  0.749518  0.189152  1
  O  O61  1  0.014299  0.749491  0.189256  1
  O  O62  1  0.558620  0.961568  0.302669  1
  O  O63  1  0.882017  0.961777  0.302784  1
  O  O64  1  0.333016  0.833216  0.241680  1
  O  O65  1  0.055311  0.833231  0.241751  1
  O  O66  1  0.208471  0.893442  0.271692  1
  O  O67  1  0.226449  0.779199  0.245380  1
  O  O68  1  0.000000  -0.000000  0.384324  1
  O  O69  1  0.749858  0.297830  0.224377  1
  O  O70  1  0.124949  0.297742  0.224321  1
  O  O71  1  0.582848  0.035677  0.446139  1
  O  O72  1  0.207996  0.035570  0.446343  1
  O  O73  1  0.697208  0.250458  0.481891  1
  O  O74  1  0.985227  0.250515  0.481828  1
  O  O75  1  0.635548  0.082921  0.188527  1
  O  O76  1  0.016155  0.083137  0.415039  1
  O  O77  1  0.635587  0.083102  0.414963  1
  O  O78  1  0.347813  0.083062  0.188584  1
  O  O79  1  0.440882  0.038451  0.368270  1
  O  O80  1  0.117723  0.038271  0.368447  1
  O  O81  1  0.944131  0.166792  0.429299  1
  O  O82  1  0.666379  0.166763  0.429255  1
  O  O83  1  0.790729  0.106584  0.399149  1
  O  O84  1  0.773031  0.220870  0.425696  1
  O  O85  1  0.643415  -0.000000  0.384166  1
  O  O86  1  0.082951  0.631021  0.225047  1
  O  O87  1  0.458377  0.631213  0.352262  1
  O  O88  1  0.457937  0.631159  0.225164  1
  O  O89  1  0.318733  0.583886  0.353918  1
  O  O90  1  0.650024  0.583792  0.256285  1
  O  O91  1  0.650140  0.583644  0.353796  1
  O  O92  1  0.030787  0.583905  0.256470  1
  O  O93  1  0.969266  0.416638  0.188866  1
  O  O94  1  0.681003  0.416500  0.188704  1
  O  O95  1  0.225508  0.628585  0.303112  1
  O  O96  1  0.548703  0.628425  0.303083  1
  O  O97  1  -0.000000  0.500259  0.241828  1
  O  O98  1  0.722049  0.500137  0.241638  1
  O  O99  1  0.875466  0.560369  0.272128  1
  O  O100  1  0.750617  0.439854  0.272911  1
  O  O101  1  0.124453  0.439990  0.273103  1
  O  O102  1  0.106610  0.554216  0.318232  1
  O  O103  1  0.786351  0.554098  0.318033  1
  O  O104  1  0.893198  0.446004  0.245027  1
  O  O105  1  0.666667  0.666658  0.384655  1
  O  O106  1  0.791536  0.964382  0.351866  1
  O  O107  1  0.874734  0.702242  0.319707  1
  O  O108  1  0.651912  0.917001  0.353567  1
  O  O109  1  0.983813  0.917191  0.353698  1
  O  O110  1  0.014270  0.749857  0.318183  1
  O  O111  1  0.682802  0.749676  0.415534  1
  O  O112  1  0.682884  0.749688  0.318049  1
  O  O113  1  0.302265  0.749838  0.415696  1
  O  O114  1  0.107550  0.705064  0.368882  1
  O  O115  1  0.784344  0.704970  0.368866  1
  O  O116  1  0.611176  0.833359  0.429887  1
  O  O117  1  0.055535  0.833496  0.335943  1
  O  O118  1  0.610771  0.833316  0.335743  1
  O  O119  1  0.333347  0.833491  0.429971  1
  O  O120  1  0.582119  0.893513  0.398212  1
  O  O121  1  0.209126  0.893643  0.398285  1
  O  O122  1  0.084390  0.773180  0.273499  1
  O  O123  1  0.457644  0.773232  0.399865  1
  O  O124  1  0.457531  0.773087  0.273347  1
  O  O125  1  0.440168  0.887450  0.426310  1
  O  O126  1  0.439652  0.887423  0.317855  1
  O  O127  1  0.119999  0.887439  0.317951  1
  O  O128  1  0.226574  0.779337  0.353818  1
  O  O129  1  0.546364  0.779258  0.353679  1
  O  O130  1  0.310329  0.666879  0.384697  1
  O  O131  1  0.666317  0.666748  0.287270  1
  O  O132  1  0.022869  0.666895  0.287274  1
  Si  Si133  1  0.755225  0.293998  0.265702  1
  Si  Si134  1  0.666287  0.116866  0.235691  1
  Si  Si135  1  0.422682  0.116998  0.235731  1
  Si  Si136  1  0.667021  0.216370  0.269354  1
  Si  Si137  1  0.422351  0.216493  0.269433  1
  Si  Si138  1  0.245403  0.294042  0.265721  1
  Si  Si139  1  0.333904  0.039356  0.322244  1
  Si  Si140  1  0.422314  0.116881  0.318487  1
  Si  Si141  1  0.245320  0.293970  0.348227  1
  Si  Si142  1  0.422124  0.216387  0.351838  1
  Si  Si143  1  0.910574  0.216314  0.351824  1
  Si  Si144  1  0.087792  0.039246  0.322430  1
  Si  Si145  1  0.910887  0.116810  0.318568  1
  Si  Si146  1  0.998978  0.293937  0.348247  1
  Si  Si147  1  0.244006  0.549880  0.352704  1
  Si  Si148  1  0.755431  0.549703  0.352547  1
  Si  Si149  1  0.667432  0.372484  0.322211  1
  Si  Si150  1  0.420943  0.372699  0.322227  1
  Si  Si151  1  0.244457  0.450376  0.318866  1
  Si  Si152  1  0.755688  0.450204  0.318716  1
  Si  Si153  1  0.911231  0.372453  0.404754  1
  Si  Si154  1  0.421169  0.372571  0.404774  1
  Si  Si155  1  0.244342  0.450146  0.401248  1
  Si  Si156  1  0.000000  0.549586  0.435344  1
  Si  Si157  1  0.244017  0.549648  0.435484  1
  Si  Si158  1  -0.000000  0.450078  0.401086  1
  Si  Si159  1  0.244418  0.706145  0.405464  1
  Si  Si160  1  0.754324  0.706023  0.405415  1
  Si  Si161  1  0.333362  0.883013  0.269871  1
  Si  Si162  1  0.332649  0.783493  0.236287  1
  Si  Si163  1  0.089165  0.783501  0.236356  1
  Si  Si164  1  0.088749  0.883011  0.269945  1
  Si  Si165  1  0.912094  0.960637  0.266221  1
  Si  Si166  1  0.421777  0.960523  0.266092  1
  Si  Si167  1  0.910707  0.117017  0.401077  1
  Si  Si168  1  0.087555  0.039429  0.404998  1
  Si  Si169  1  0.577690  0.039480  0.404847  1
  Si  Si170  1  0.910322  0.216533  0.434710  1
  Si  Si171  1  0.666790  0.216506  0.434743  1
  Si  Si172  1  0.665918  0.116992  0.401006  1
  Si  Si173  1  0.755422  0.549863  0.270118  1
  Si  Si174  1  -0.000000  0.549951  0.270288  1
  Si  Si175  1  -0.000000  0.450445  0.236082  1
  Si  Si176  1  0.755822  0.450355  0.235936  1
  Si  Si177  1  0.332353  0.627537  0.349124  1
  Si  Si178  1  0.578536  0.627424  0.266510  1
  Si  Si179  1  0.578806  0.627345  0.349080  1
  Si  Si180  1  0.088607  0.627509  0.266546  1
  Si  Si181  1  0.577478  0.783607  0.401652  1
  Si  Si182  1  0.577387  0.783577  0.319149  1
  Si  Si183  1  0.665526  0.960617  0.348691  1
  Si  Si184  1  0.912057  0.960763  0.348799  1
  Si  Si185  1  0.000000  0.706134  0.322887  1
  Si  Si186  1  0.754281  0.706027  0.322861  1
  Si  Si187  1  0.089280  0.783716  0.319302  1
  Si  Si188  1  0.577467  0.883105  0.435332  1
  Si  Si189  1  0.089084  0.883224  0.352546  1
  Si  Si190  1  0.576958  0.883080  0.352382  1
  Si  Si191  1  0.333869  0.883197  0.435362  1
  Si  Si192  1  0.332886  0.783696  0.401773  1
  H  H193  1  0.916814  0.369094  0.470462  1
  H  H194  1  0.541932  0.368998  0.470318  1
  H  H195  1  0.030664  0.583423  0.506704  1
  H  H196  1  0.318838  0.583506  0.506862  1
  H  H197  1  0.364356  0.917159  0.506644  1
  H  H198  1  0.652368  0.917059  0.506629  1
  H  H199  1  0.416729  0.964424  0.200704  1
  H  H200  1  0.791714  0.964538  0.200739  1
  H  H201  1  0.249668  0.702219  0.470883  1
  H  H202  1  0.874710  0.702249  0.470947  1
  H  H203  1  0.302165  0.749518  0.165004  1
  H  H204  1  0.014299  0.749491  0.165109  1
  H  H205  1  0.749858  0.297830  0.200230  1
  H  H206  1  0.124949  0.297742  0.200174  1
  H  H207  1  0.582848  0.035677  0.470286  1
  H  H208  1  0.207996  0.035570  0.470491  1
  H  H209  1  0.697208  0.250458  0.506039  1
  H  H210  1  0.985227  0.250515  0.505975  1
  H  H211  1  0.635548  0.082921  0.164379  1
  H  H212  1  0.347813  0.083062  0.164436  1
  H  H213  1  0.082951  0.631021  0.200899  1
  H  H214  1  0.457937  0.631159  0.201017  1
  H  H215  1  0.969266  0.416638  0.164719  1
  H  H216  1  0.681003  0.416500  0.164556  1
