# generated using pymatgen
data_Si6H2O13
_symmetry_space_group_name_H-M   'P 1'
_cell_length_a   8.73685056
_cell_length_b   12.35561169
_cell_length_c   47.55760919
_cell_angle_alpha   134.99932688
_cell_angle_beta   90.00000000
_cell_angle_gamma   90.00000000
_symmetry_Int_Tables_number   1
_chemical_formula_structural   Si6H2O13
_chemical_formula_sum   'Si24 H8 O52'
_cell_volume   3630.18933186
_cell_formula_units_Z   4
loop_
 _symmetry_equiv_pos_site_id
 _symmetry_equiv_pos_as_xyz
  1  'x, y, z'
loop_
 _atom_site_type_symbol
 _atom_site_label
 _atom_site_symmetry_multiplicity
 _atom_site_fract_x
 _atom_site_fract_y
 _atom_site_fract_z
 _atom_site_occupancy
  O  O1  1  0.145398  0.500107  0.232802  1
  O  O2  1  0.645398  0.000000  0.232802  1
  O  O3  1  0.500284  0.854912  0.167607  1
  O  O4  1  0.000000  0.354913  0.167607  1
  O  O5  1  0.855105  0.145253  0.286129  1
  O  O6  1  0.355105  0.645254  0.286129  1
  O  O7  1  0.855079  0.500013  0.232785  1
  O  O8  1  0.355079  0.000000  0.232785  1
  O  O9  1  0.145410  0.145218  0.286121  1
  O  O10  1  0.645409  0.645217  0.286121  1
  O  O11  1  0.145399  0.500143  0.286141  1
  O  O12  1  0.645399  0.000000  0.286141  1
  O  O13  1  0.500276  0.854933  0.297984  1
  O  O14  1  0.000000  0.354934  0.297984  1
  O  O15  1  0.855081  0.500073  0.286129  1
  O  O16  1  0.355081  0.000000  0.286129  1
  O  O17  1  0.145374  0.854914  0.232802  1
  O  O18  1  0.645373  0.354914  0.232802  1
  O  O19  1  0.500207  0.145256  0.167615  1
  O  O20  1  0.000000  0.645255  0.167615  1
  O  O21  1  0.855069  0.854950  0.232805  1
  O  O22  1  0.355069  0.354950  0.232805  1
  O  O23  1  0.500191  0.145235  0.220945  1
  O  O24  1  0.000000  0.645234  0.220945  1
  O  O25  1  0.145398  0.500107  0.416508  1
  O  O26  1  0.645398  0.000000  0.416508  1
  O  O27  1  0.500284  0.854912  0.351313  1
  O  O28  1  0.000000  0.354913  0.351313  1
  O  O29  1  0.855105  0.145253  0.469835  1
  O  O30  1  0.355105  0.645254  0.469836  1
  O  O31  1  0.855079  0.500013  0.416491  1
  O  O32  1  0.355079  0.000000  0.416491  1
  O  O33  1  0.145410  0.145218  0.469828  1
  O  O34  1  0.645409  0.645217  0.469827  1
  O  O35  1  0.145399  0.500143  0.469848  1
  O  O36  1  0.645399  0.000000  0.469848  1
  O  O37  1  0.500276  0.854933  0.481690  1
  O  O38  1  0.000000  0.354934  0.481690  1
  O  O39  1  0.855081  0.500073  0.469835  1
  O  O40  1  0.355081  0.000000  0.469835  1
  O  O41  1  0.145374  0.854914  0.416508  1
  O  O42  1  0.645373  0.354914  0.416508  1
  O  O43  1  0.500207  0.145256  0.351322  1
  O  O44  1  0.000000  0.645255  0.351321  1
  O  O45  1  0.855069  0.854950  0.416512  1
  O  O46  1  0.355069  0.354950  0.416512  1
  O  O47  1  0.500191  0.145235  0.404651  1
  O  O48  1  0.000000  0.645234  0.404651  1
  O  O49  1  0.500284  0.854912  0.535020  1
  O  O50  1  0.000000  0.354913  0.535020  1
  O  O51  1  0.500207  0.145256  0.535028  1
  O  O52  1  0.000000  0.645255  0.535028  1
  Si  Si53  1  -0.000000  0.500066  0.213534  1
  Si  Si54  1  0.500238  0.000000  0.213534  1
  Si  Si55  1  0.500271  0.750082  0.305387  1
  Si  Si56  1  -0.000000  0.250081  0.305387  1
  Si  Si57  1  0.750242  0.000000  0.259470  1
  Si  Si58  1  0.250241  0.500114  0.259470  1
  Si  Si59  1  0.250237  0.000000  0.259459  1
  Si  Si60  1  0.750238  0.500053  0.259459  1
  Si  Si61  1  0.000000  0.500102  0.305394  1
  Si  Si62  1  0.500241  0.000000  0.305394  1
  Si  Si63  1  -0.000000  0.750086  0.213541  1
  Si  Si64  1  0.500208  0.250086  0.213541  1
  Si  Si65  1  0.000000  0.500066  0.397241  1
  Si  Si66  1  0.500238  0.000000  0.397241  1
  Si  Si67  1  0.500271  0.750082  0.489093  1
  Si  Si68  1  0.000000  0.250081  0.489093  1
  Si  Si69  1  0.750242  0.000000  0.443176  1
  Si  Si70  1  0.250241  0.500114  0.443176  1
  Si  Si71  1  0.250237  0.000000  0.443165  1
  Si  Si72  1  0.750238  0.500053  0.443165  1
  Si  Si73  1  0.000000  0.500102  0.489100  1
  Si  Si74  1  0.500241  0.000000  0.489101  1
  Si  Si75  1  0.000000  0.750086  0.397248  1
  Si  Si76  1  0.500208  0.250086  0.397248  1
  H  H77  1  0.500284  0.854912  0.148683  1
  H  H78  1  0.000000  0.354913  0.148683  1
  H  H79  1  0.500207  0.145256  0.148691  1
  H  H80  1  0.000000  0.645255  0.148691  1
  H  H81  1  0.500284  0.854912  0.553944  1
  H  H82  1  0.000000  0.354913  0.553944  1
  H  H83  1  0.500207  0.145256  0.553952  1
  H  H84  1  0.000000  0.645255  0.553952  1
