# generated using pymatgen
data_Si26H2O53
_symmetry_space_group_name_H-M   'P 1'
_cell_length_a   17.25043091
_cell_length_b   17.25135508
_cell_length_c   68.66946522
_cell_angle_alpha   90.00000000
_cell_angle_beta   90.00000000
_cell_angle_gamma   120.00000000
_symmetry_Int_Tables_number   1
_chemical_formula_structural   Si26H2O53
_chemical_formula_sum   'Si156 H12 O318'
_cell_volume   17697.7256841
_cell_formula_units_Z   6
loop_
 _symmetry_equiv_pos_site_id
 _symmetry_equiv_pos_as_xyz
  1  'x, y, z'
loop_
 _atom_site_type_symbol
 _atom_site_label
 _atom_site_symmetry_multiplicity
 _atom_site_fract_x
 _atom_site_fract_y
 _atom_site_fract_z
 _atom_site_occupancy
  O  O1  1  0.100579  0.413729  0.085923  1
  O  O2  1  0.313200  0.413733  0.085922  1
  O  O3  1  0.332582  0.461629  0.124226  1
  O  O4  1  0.129117  0.461625  0.124228  1
  O  O5  1  0.997290  0.289562  0.260167  1
  O  O6  1  0.292369  0.289550  0.260164  1
  O  O7  1  0.289642  0.292293  0.190261  1
  O  O8  1  0.002754  0.292292  0.190264  1
  O  O9  1  0.000000  0.250792  0.225215  1
  O  O10  1  0.250869  0.250784  0.225211  1
  O  O11  1  0.144394  0.288691  0.245627  1
  O  O12  1  0.288779  0.144324  0.204800  1
  O  O13  1  0.855642  0.144328  0.204803  1
  O  O14  1  0.104884  0.408205  0.235503  1
  O  O15  1  0.303428  0.408200  0.235500  1
  O  O16  1  0.408280  0.303329  0.214924  1
  O  O17  1  0.696607  0.104788  0.214927  1
  O  O18  1  0.408280  0.104790  0.214926  1
  O  O19  1  0.895150  0.303335  0.214926  1
  O  O20  1  0.686814  0.100520  0.287895  1
  O  O21  1  0.413793  0.313132  0.287897  1
  O  O22  1  0.899426  0.313145  0.287902  1
  O  O23  1  0.413780  0.100522  0.287895  1
  O  O24  1  0.100605  0.413729  0.162532  1
  O  O25  1  0.313223  0.413736  0.162530  1
  O  O26  1  0.676343  0.123665  0.250851  1
  O  O27  1  0.447438  0.323600  0.250845  1
  O  O28  1  0.876260  0.323605  0.250847  1
  O  O29  1  0.447424  0.123671  0.250850  1
  O  O30  1  0.123769  0.447365  0.199587  1
  O  O31  1  0.323708  0.447366  0.199585  1
  O  O32  1  0.826554  0.173342  0.266269  1
  O  O33  1  0.346876  0.173346  0.266266  1
  O  O34  1  0.173459  0.346808  0.184164  1
  O  O35  1  0.570669  0.429289  0.226335  1
  O  O36  1  0.570661  0.141213  0.226337  1
  O  O37  1  0.858712  0.429281  0.226338  1
  O  O38  1  0.742656  0.485227  0.228739  1
  O  O39  1  0.514727  0.257283  0.228736  1
  O  O40  1  0.742651  0.257274  0.228738  1
  O  O41  1  0.292379  0.002683  0.260166  1
  O  O42  1  0.710407  0.002694  0.260167  1
  O  O43  1  0.997235  0.289555  0.392237  1
  O  O44  1  0.292335  0.289549  0.392237  1
  O  O45  1  0.144362  0.288685  0.406777  1
  O  O46  1  0.104844  0.408199  0.416903  1
  O  O47  1  0.303392  0.408191  0.416900  1
  O  O48  1  0.686781  0.100514  0.364505  1
  O  O49  1  0.413774  0.313134  0.364502  1
  O  O50  1  0.899396  0.313136  0.364508  1
  O  O51  1  0.413763  0.100510  0.364505  1
  O  O52  1  0.676286  0.123663  0.401558  1
  O  O53  1  0.447402  0.323597  0.401556  1
  O  O54  1  0.876224  0.323590  0.401557  1
  O  O55  1  0.447396  0.123670  0.401557  1
  O  O56  1  0.826561  0.173376  0.386135  1
  O  O57  1  0.346836  0.173360  0.386132  1
  O  O58  1  0.742625  0.485226  0.423666  1
  O  O59  1  0.514683  0.257276  0.423664  1
  O  O60  1  0.742619  0.257270  0.423665  1
  O  O61  1  0.848216  0.424037  0.299737  1
  O  O62  1  0.575898  0.424042  0.299735  1
  O  O63  1  0.575896  0.151715  0.299737  1
  O  O64  1  0.848198  0.424029  0.352667  1
  O  O65  1  0.575877  0.424031  0.352666  1
  O  O66  1  0.575875  0.151710  0.352668  1
  O  O67  1  0.870872  0.332502  0.326204  1
  O  O68  1  0.461685  0.129052  0.326200  1
  O  O69  1  0.667420  0.129052  0.326200  1
  O  O70  1  0.461682  0.332499  0.326203  1
  O  O71  1  0.745221  0.254699  0.302054  1
  O  O72  1  0.745226  0.490381  0.302054  1
  O  O73  1  0.509554  0.254703  0.302056  1
  O  O74  1  0.745210  0.254706  0.350349  1
  O  O75  1  0.745213  0.490377  0.350349  1
  O  O76  1  0.509535  0.254707  0.350349  1
  O  O77  1  0.292327  0.002661  0.392237  1
  O  O78  1  0.710368  0.002666  0.392234  1
  O  O79  1  0.570634  0.429281  0.426068  1
  O  O80  1  0.570621  0.141218  0.426071  1
  O  O81  1  0.858673  0.429275  0.426068  1
  O  O82  1  0.313189  0.899339  0.085923  1
  O  O83  1  0.586193  0.686741  0.085921  1
  O  O84  1  0.100581  0.686723  0.085924  1
  O  O85  1  0.586203  0.899335  0.085919  1
  O  O86  1  0.151784  0.575823  0.097763  1
  O  O87  1  0.424108  0.575841  0.097762  1
  O  O88  1  0.424114  0.848156  0.097762  1
  O  O89  1  0.151798  0.575826  0.150693  1
  O  O90  1  0.424116  0.575837  0.150692  1
  O  O91  1  0.424122  0.848160  0.150694  1
  O  O92  1  0.129123  0.667361  0.124229  1
  O  O93  1  0.538321  0.870826  0.124226  1
  O  O94  1  0.332569  0.870819  0.124228  1
  O  O95  1  0.538313  0.667369  0.124225  1
  O  O96  1  0.254772  0.745161  0.100079  1
  O  O97  1  0.254768  0.509477  0.100080  1
  O  O98  1  0.490436  0.745157  0.100082  1
  O  O99  1  0.254785  0.745157  0.148375  1
  O  O100  1  0.254783  0.509480  0.148375  1
  O  O101  1  0.490461  0.745165  0.148376  1
  O  O102  1  0.710402  0.707572  0.260167  1
  O  O103  1  0.997272  0.707561  0.260168  1
  O  O104  1  0.002749  0.710293  0.190265  1
  O  O105  1  0.707653  0.710303  0.190262  1
  O  O106  1  0.749168  0.749073  0.225214  1
  O  O107  1  0.250857  -0.000000  0.225214  1
  O  O108  1  -0.000000  0.749057  0.225215  1
  O  O109  1  0.711273  0.855568  0.245625  1
  O  O110  1  0.144396  0.855553  0.245624  1
  O  O111  1  0.855627  0.711151  0.204801  1
  O  O112  1  0.591754  0.696535  0.235502  1
  O  O113  1  0.303411  0.895073  0.235502  1
  O  O114  1  0.591768  0.895074  0.235503  1
  O  O115  1  0.104881  0.696524  0.235503  1
  O  O116  1  0.895149  0.591653  0.214928  1
  O  O117  1  0.696602  0.591657  0.214927  1
  O  O118  1  0.899420  0.586133  0.287900  1
  O  O119  1  0.686799  0.586137  0.287898  1
  O  O120  1  0.313206  0.899334  0.162530  1
  O  O121  1  0.586216  0.686734  0.162531  1
  O  O122  1  0.100606  0.686725  0.162533  1
  O  O123  1  0.586232  0.899347  0.162533  1
  O  O124  1  0.876269  0.552501  0.250847  1
  O  O125  1  0.676329  0.552508  0.250846  1
  O  O126  1  0.323702  0.876188  0.199586  1
  O  O127  1  0.552591  0.676274  0.199585  1
  O  O128  1  0.123779  0.676265  0.199587  1
  O  O129  1  0.552592  0.876189  0.199587  1
  O  O130  1  0.826575  0.653056  0.266268  1
  O  O131  1  0.173441  0.826488  0.184166  1
  O  O132  1  0.653157  0.826500  0.184163  1
  O  O133  1  0.429377  0.570585  0.224095  1
  O  O134  1  0.429383  0.858642  0.224100  1
  O  O135  1  0.141320  0.570578  0.224097  1
  O  O136  1  0.257371  0.514627  0.221696  1
  O  O137  1  0.485316  0.742588  0.221695  1
  O  O138  1  0.257376  0.742586  0.221696  1
  O  O139  1  0.707665  0.997194  0.190263  1
  O  O140  1  0.289630  0.997190  0.190262  1
  O  O141  1  0.749171  -0.000000  0.225216  1
  O  O142  1  0.710369  0.707577  0.392234  1
  O  O143  1  0.997242  0.707565  0.392237  1
  O  O144  1  0.711233  0.855545  0.406776  1
  O  O145  1  0.144356  0.855554  0.406779  1
  O  O146  1  0.591728  0.696536  0.416897  1
  O  O147  1  0.303382  0.895076  0.416900  1
  O  O148  1  0.591728  0.895074  0.416898  1
  O  O149  1  0.104850  0.696525  0.416902  1
  O  O150  1  0.899408  0.586133  0.364507  1
  O  O151  1  0.686779  0.586136  0.364503  1
  O  O152  1  0.876235  0.552500  0.401560  1
  O  O153  1  0.676286  0.552493  0.401557  1
  O  O154  1  0.826555  0.653058  0.386136  1
  O  O155  1  0.667416  0.538230  0.326202  1
  O  O156  1  0.870877  0.538226  0.326203  1
  O  O157  1  0.289609  0.292295  0.462141  1
  O  O158  1  0.002730  0.292302  0.462143  1
  O  O159  1  0.250839  0.250784  0.427189  1
  O  O160  1  0.000000  0.250785  0.427191  1
  O  O161  1  0.288746  0.144311  0.447603  1
  O  O162  1  0.855589  0.144308  0.447601  1
  O  O163  1  0.408248  0.303327  0.437477  1
  O  O164  1  0.696581  0.104785  0.437477  1
  O  O165  1  0.408240  0.104789  0.437477  1
  O  O166  1  0.895112  0.303335  0.437478  1
  O  O167  1  0.100579  0.413729  0.489872  1
  O  O168  1  0.313200  0.413733  0.489871  1
  O  O169  1  0.123733  0.447365  0.452817  1
  O  O170  1  0.323675  0.447363  0.452816  1
  O  O171  1  0.173426  0.346809  0.468239  1
  O  O172  1  0.332582  0.461629  0.528175  1
  O  O173  1  0.129117  0.461625  0.528177  1
  O  O174  1  0.997290  0.289562  0.664116  1
  O  O175  1  0.292369  0.289550  0.664113  1
  O  O176  1  0.289642  0.292293  0.594209  1
  O  O177  1  0.002754  0.292292  0.594212  1
  O  O178  1  0.000000  0.250792  0.629164  1
  O  O179  1  0.250869  0.250784  0.629159  1
  O  O180  1  0.144394  0.288691  0.649575  1
  O  O181  1  0.288779  0.144324  0.608749  1
  O  O182  1  0.855642  0.144328  0.608752  1
  O  O183  1  0.104884  0.408205  0.639451  1
  O  O184  1  0.303428  0.408200  0.639449  1
  O  O185  1  0.408280  0.303329  0.618872  1
  O  O186  1  0.696607  0.104788  0.618876  1
  O  O187  1  0.408280  0.104790  0.618874  1
  O  O188  1  0.895150  0.303335  0.618875  1
  O  O189  1  0.686814  0.100520  0.691843  1
  O  O190  1  0.413793  0.313132  0.691846  1
  O  O191  1  0.899426  0.313145  0.691850  1
  O  O192  1  0.413780  0.100522  0.691843  1
  O  O193  1  0.100605  0.413729  0.566480  1
  O  O194  1  0.313223  0.413736  0.566479  1
  O  O195  1  0.676343  0.123665  0.654799  1
  O  O196  1  0.447438  0.323600  0.654793  1
  O  O197  1  0.876260  0.323605  0.654795  1
  O  O198  1  0.447424  0.123671  0.654798  1
  O  O199  1  0.123769  0.447365  0.603536  1
  O  O200  1  0.323708  0.447366  0.603534  1
  O  O201  1  0.826554  0.173342  0.670218  1
  O  O202  1  0.346876  0.173346  0.670214  1
  O  O203  1  0.173459  0.346808  0.588112  1
  O  O204  1  0.570669  0.429289  0.630284  1
  O  O205  1  0.570661  0.141213  0.630285  1
  O  O206  1  0.858712  0.429281  0.630286  1
  O  O207  1  0.742656  0.485227  0.632687  1
  O  O208  1  0.514727  0.257283  0.632685  1
  O  O209  1  0.742651  0.257274  0.632687  1
  O  O210  1  0.292379  0.002683  0.664115  1
  O  O211  1  0.710407  0.002694  0.664116  1
  O  O212  1  0.686781  0.100514  0.768453  1
  O  O213  1  0.413774  0.313134  0.768451  1
  O  O214  1  0.899396  0.313136  0.768456  1
  O  O215  1  0.413763  0.100510  0.768453  1
  O  O216  1  0.848216  0.424037  0.703685  1
  O  O217  1  0.575898  0.424042  0.703684  1
  O  O218  1  0.575896  0.151715  0.703686  1
  O  O219  1  0.848198  0.424029  0.756616  1
  O  O220  1  0.575877  0.424031  0.756614  1
  O  O221  1  0.575875  0.151710  0.756617  1
  O  O222  1  0.870872  0.332502  0.730152  1
  O  O223  1  0.461685  0.129052  0.730149  1
  O  O224  1  0.667420  0.129052  0.730149  1
  O  O225  1  0.461682  0.332499  0.730151  1
  O  O226  1  0.745221  0.254699  0.706002  1
  O  O227  1  0.745226  0.490381  0.706003  1
  O  O228  1  0.509554  0.254703  0.706004  1
  O  O229  1  0.745210  0.254706  0.754298  1
  O  O230  1  0.745213  0.490377  0.754297  1
  O  O231  1  0.509535  0.254707  0.754298  1
  O  O232  1  0.002719  0.710291  0.462143  1
  O  O233  1  0.707610  0.710302  0.462137  1
  O  O234  1  0.749144  -0.000000  0.427188  1
  O  O235  1  0.855583  0.711150  0.447603  1
  O  O236  1  0.895115  0.591646  0.437478  1
  O  O237  1  0.696573  0.591659  0.437476  1
  O  O238  1  0.313189  0.899339  0.489871  1
  O  O239  1  0.586193  0.686741  0.489869  1
  O  O240  1  0.100581  0.686723  0.489873  1
  O  O241  1  0.586203  0.899335  0.489867  1
  O  O242  1  0.323678  0.876195  0.452816  1
  O  O243  1  0.552557  0.676258  0.452818  1
  O  O244  1  0.123747  0.676258  0.452817  1
  O  O245  1  0.552563  0.876182  0.452820  1
  O  O246  1  0.173418  0.826490  0.468241  1
  O  O247  1  0.653101  0.826494  0.468232  1
  O  O248  1  0.257336  0.514633  0.430706  1
  O  O249  1  0.485268  0.742575  0.430702  1
  O  O250  1  0.257336  0.742585  0.430707  1
  O  O251  1  0.151784  0.575823  0.501711  1
  O  O252  1  0.424108  0.575841  0.501711  1
  O  O253  1  0.424114  0.848156  0.501710  1
  O  O254  1  0.151798  0.575826  0.554642  1
  O  O255  1  0.424116  0.575837  0.554641  1
  O  O256  1  0.424122  0.848160  0.554642  1
  O  O257  1  0.129123  0.667361  0.528177  1
  O  O258  1  0.538321  0.870826  0.528175  1
  O  O259  1  0.332569  0.870819  0.528177  1
  O  O260  1  0.538313  0.667369  0.528173  1
  O  O261  1  0.254772  0.745161  0.504028  1
  O  O262  1  0.254768  0.509477  0.504029  1
  O  O263  1  0.490436  0.745157  0.504030  1
  O  O264  1  0.254785  0.745157  0.552323  1
  O  O265  1  0.254783  0.509480  0.552323  1
  O  O266  1  0.490461  0.745165  0.552325  1
  O  O267  1  0.707606  0.997172  0.462137  1
  O  O268  1  0.289602  0.997188  0.462140  1
  O  O269  1  0.000000  0.749068  0.427191  1
  O  O270  1  0.250832  -0.000000  0.427190  1
  O  O271  1  0.749142  0.749069  0.427188  1
  O  O272  1  0.429331  0.570569  0.428305  1
  O  O273  1  0.429332  0.858646  0.428303  1
  O  O274  1  0.141284  0.570584  0.428307  1
  O  O275  1  0.710402  0.707572  0.664115  1
  O  O276  1  0.997272  0.707561  0.664116  1
  O  O277  1  0.002749  0.710293  0.594213  1
  O  O278  1  0.707653  0.710303  0.594210  1
  O  O279  1  0.749168  0.749073  0.629162  1
  O  O280  1  0.250857  -0.000000  0.629162  1
  O  O281  1  0.000000  0.749057  0.629164  1
  O  O282  1  0.711273  0.855568  0.649574  1
  O  O283  1  0.144396  0.855553  0.649573  1
  O  O284  1  0.855627  0.711151  0.608750  1
  O  O285  1  0.591754  0.696535  0.639450  1
  O  O286  1  0.303411  0.895073  0.639451  1
  O  O287  1  0.591768  0.895074  0.639451  1
  O  O288  1  0.104881  0.696524  0.639451  1
  O  O289  1  0.895149  0.591653  0.618877  1
  O  O290  1  0.696602  0.591657  0.618875  1
  O  O291  1  0.899420  0.586133  0.691848  1
  O  O292  1  0.686799  0.586137  0.691846  1
  O  O293  1  0.313206  0.899334  0.566479  1
  O  O294  1  0.586216  0.686734  0.566480  1
  O  O295  1  0.100606  0.686725  0.566481  1
  O  O296  1  0.586232  0.899347  0.566481  1
  O  O297  1  0.876269  0.552501  0.654796  1
  O  O298  1  0.676329  0.552508  0.654794  1
  O  O299  1  0.323702  0.876188  0.603534  1
  O  O300  1  0.552591  0.676274  0.603534  1
  O  O301  1  0.123779  0.676265  0.603535  1
  O  O302  1  0.552592  0.876189  0.603535  1
  O  O303  1  0.826575  0.653056  0.670217  1
  O  O304  1  0.173441  0.826488  0.588114  1
  O  O305  1  0.653157  0.826500  0.588111  1
  O  O306  1  0.429377  0.570585  0.628044  1
  O  O307  1  0.429383  0.858642  0.628048  1
  O  O308  1  0.141320  0.570578  0.628046  1
  O  O309  1  0.257371  0.514627  0.625644  1
  O  O310  1  0.485316  0.742588  0.625644  1
  O  O311  1  0.257376  0.742586  0.625644  1
  O  O312  1  0.707665  0.997194  0.594212  1
  O  O313  1  0.289630  0.997190  0.594210  1
  O  O314  1  0.749171  -0.000000  0.629164  1
  O  O315  1  0.899408  0.586133  0.768456  1
  O  O316  1  0.686779  0.586136  0.768452  1
  O  O317  1  0.667416  0.538230  0.730150  1
  O  O318  1  0.870877  0.538226  0.730152  1
  Si  Si319  1  0.154495  0.487522  0.146497  1
  Si  Si320  1  0.333114  0.487529  0.146496  1
  Si  Si321  1  0.154485  0.487520  0.101959  1
  Si  Si322  1  0.333100  0.487532  0.101957  1
  Si  Si323  1  0.667261  0.155207  0.229789  1
  Si  Si324  1  0.488057  0.332683  0.229783  1
  Si  Si325  1  0.844721  0.332683  0.229787  1
  Si  Si326  1  0.064415  0.307725  0.242557  1
  Si  Si327  1  0.243405  0.307718  0.242553  1
  Si  Si328  1  0.307807  0.243327  0.207866  1
  Si  Si329  1  0.756625  0.064333  0.207871  1
  Si  Si330  1  0.307799  0.064329  0.207869  1
  Si  Si331  1  0.935624  0.243328  0.207870  1
  Si  Si332  1  0.724452  0.097062  0.267021  1
  Si  Si333  1  0.372715  0.275469  0.267013  1
  Si  Si334  1  0.902847  0.275476  0.267017  1
  Si  Si335  1  0.372701  0.097064  0.267018  1
  Si  Si336  1  0.097171  0.372645  0.183415  1
  Si  Si337  1  0.275583  0.372647  0.183413  1
  Si  Si338  1  0.332780  0.487985  0.220645  1
  Si  Si339  1  0.155318  0.487984  0.220647  1
  Si  Si340  1  0.488049  0.155211  0.229790  1
  Si  Si341  1  0.064381  0.307727  0.409846  1
  Si  Si342  1  0.243377  0.307721  0.409846  1
  Si  Si343  1  0.724426  0.097084  0.385388  1
  Si  Si344  1  0.372682  0.275484  0.385384  1
  Si  Si345  1  0.902835  0.275489  0.385386  1
  Si  Si346  1  0.372675  0.097074  0.385386  1
  Si  Si347  1  0.845510  0.333026  0.303934  1
  Si  Si348  1  0.487579  0.154409  0.303930  1
  Si  Si349  1  0.666905  0.154405  0.303929  1
  Si  Si350  1  0.487585  0.333026  0.303933  1
  Si  Si351  1  0.845502  0.333024  0.348473  1
  Si  Si352  1  0.487572  0.154425  0.348472  1
  Si  Si353  1  0.666892  0.154420  0.348470  1
  Si  Si354  1  0.487573  0.333026  0.348472  1
  Si  Si355  1  0.488014  0.155213  0.422616  1
  Si  Si356  1  0.844680  0.332676  0.422618  1
  Si  Si357  1  0.488026  0.332679  0.422616  1
  Si  Si358  1  0.667219  0.155202  0.422616  1
  Si  Si359  1  0.154485  0.666831  0.101959  1
  Si  Si360  1  0.512420  0.845450  0.101957  1
  Si  Si361  1  0.333097  0.845447  0.101958  1
  Si  Si362  1  0.512414  0.666844  0.101958  1
  Si  Si363  1  0.154504  0.666832  0.146497  1
  Si  Si364  1  0.512425  0.845446  0.146497  1
  Si  Si365  1  0.333103  0.845439  0.146496  1
  Si  Si366  1  0.512420  0.666844  0.146496  1
  Si  Si367  1  0.844717  0.511879  0.229788  1
  Si  Si368  1  0.667258  0.511890  0.229786  1
  Si  Si369  1  0.692232  0.756547  0.242558  1
  Si  Si370  1  0.243404  0.935535  0.242560  1
  Si  Si371  1  0.692231  0.935543  0.242562  1
  Si  Si372  1  0.064413  0.756535  0.242558  1
  Si  Si373  1  0.935611  0.692123  0.207870  1
  Si  Si374  1  0.756614  0.692126  0.207868  1
  Si  Si375  1  0.902859  0.627215  0.267018  1
  Si  Si376  1  0.724449  0.627217  0.267016  1
  Si  Si377  1  0.275566  0.902776  0.183415  1
  Si  Si378  1  0.627313  0.724381  0.183413  1
  Si  Si379  1  0.097165  0.724373  0.183415  1
  Si  Si380  1  0.627315  0.902784  0.183415  1
  Si  Si381  1  0.511985  0.844648  0.220646  1
  Si  Si382  1  0.155317  0.667178  0.220647  1
  Si  Si383  1  0.511969  0.667187  0.220646  1
  Si  Si384  1  0.332776  0.844649  0.220646  1
  Si  Si385  1  0.844683  0.511875  0.422618  1
  Si  Si386  1  0.667224  0.511885  0.422618  1
  Si  Si387  1  0.845506  0.512342  0.348472  1
  Si  Si388  1  0.666885  0.512341  0.348471  1
  Si  Si389  1  0.845511  0.512342  0.303933  1
  Si  Si390  1  0.666910  0.512352  0.303932  1
  Si  Si391  1  0.724423  0.627216  0.385386  1
  Si  Si392  1  0.902832  0.627206  0.385388  1
  Si  Si393  1  0.692212  0.756544  0.409844  1
  Si  Si394  1  0.243365  0.935533  0.409847  1
  Si  Si395  1  0.692212  0.935535  0.409845  1
  Si  Si396  1  0.064384  0.756532  0.409846  1
  Si  Si397  1  0.155279  0.487985  0.431757  1
  Si  Si398  1  0.332735  0.487971  0.431755  1
  Si  Si399  1  0.154495  0.487522  0.550445  1
  Si  Si400  1  0.333114  0.487529  0.550444  1
  Si  Si401  1  0.154485  0.487520  0.505907  1
  Si  Si402  1  0.307763  0.243314  0.444534  1
  Si  Si403  1  0.756585  0.064320  0.444535  1
  Si  Si404  1  0.307760  0.064322  0.444535  1
  Si  Si405  1  0.935578  0.243324  0.444537  1
  Si  Si406  1  0.097144  0.372650  0.468988  1
  Si  Si407  1  0.275547  0.372643  0.468988  1
  Si  Si408  1  0.333100  0.487532  0.505906  1
  Si  Si409  1  0.667261  0.155207  0.633738  1
  Si  Si410  1  0.488057  0.332683  0.633732  1
  Si  Si411  1  0.844721  0.332683  0.633736  1
  Si  Si412  1  0.064415  0.307725  0.646506  1
  Si  Si413  1  0.243405  0.307718  0.646502  1
  Si  Si414  1  0.307807  0.243327  0.611815  1
  Si  Si415  1  0.756625  0.064333  0.611819  1
  Si  Si416  1  0.307799  0.064329  0.611817  1
  Si  Si417  1  0.935624  0.243328  0.611819  1
  Si  Si418  1  0.724452  0.097062  0.670969  1
  Si  Si419  1  0.372715  0.275469  0.670961  1
  Si  Si420  1  0.902847  0.275476  0.670965  1
  Si  Si421  1  0.372701  0.097064  0.670966  1
  Si  Si422  1  0.097171  0.372645  0.587364  1
  Si  Si423  1  0.275583  0.372647  0.587362  1
  Si  Si424  1  0.332780  0.487985  0.624594  1
  Si  Si425  1  0.155318  0.487984  0.624595  1
  Si  Si426  1  0.488049  0.155211  0.633738  1
  Si  Si427  1  0.845510  0.333026  0.707883  1
  Si  Si428  1  0.487579  0.154409  0.707879  1
  Si  Si429  1  0.666905  0.154405  0.707878  1
  Si  Si430  1  0.487585  0.333026  0.707881  1
  Si  Si431  1  0.845502  0.333024  0.752422  1
  Si  Si432  1  0.487572  0.154425  0.752420  1
  Si  Si433  1  0.666892  0.154420  0.752418  1
  Si  Si434  1  0.487573  0.333026  0.752420  1
  Si  Si435  1  0.935575  0.692120  0.444536  1
  Si  Si436  1  0.756578  0.692130  0.444533  1
  Si  Si437  1  0.275543  0.902779  0.468988  1
  Si  Si438  1  0.627280  0.724384  0.468987  1
  Si  Si439  1  0.097143  0.724368  0.468989  1
  Si  Si440  1  0.627291  0.902783  0.468988  1
  Si  Si441  1  0.154485  0.666831  0.505908  1
  Si  Si442  1  0.512420  0.845450  0.505906  1
  Si  Si443  1  0.333097  0.845447  0.505907  1
  Si  Si444  1  0.512414  0.666844  0.505906  1
  Si  Si445  1  0.154504  0.666832  0.550446  1
  Si  Si446  1  0.512425  0.845446  0.550445  1
  Si  Si447  1  0.333103  0.845439  0.550445  1
  Si  Si448  1  0.512420  0.666844  0.550444  1
  Si  Si449  1  0.511944  0.844650  0.431756  1
  Si  Si450  1  0.155285  0.667177  0.431758  1
  Si  Si451  1  0.511943  0.667174  0.431756  1
  Si  Si452  1  0.332732  0.844642  0.431756  1
  Si  Si453  1  0.844717  0.511879  0.633736  1
  Si  Si454  1  0.667258  0.511890  0.633735  1
  Si  Si455  1  0.692232  0.756547  0.646506  1
  Si  Si456  1  0.243404  0.935535  0.646508  1
  Si  Si457  1  0.692231  0.935543  0.646510  1
  Si  Si458  1  0.064413  0.756535  0.646507  1
  Si  Si459  1  0.935611  0.692123  0.611819  1
  Si  Si460  1  0.756614  0.692126  0.611817  1
  Si  Si461  1  0.902859  0.627215  0.670966  1
  Si  Si462  1  0.724449  0.627217  0.670965  1
  Si  Si463  1  0.275566  0.902776  0.587363  1
  Si  Si464  1  0.627313  0.724381  0.587362  1
  Si  Si465  1  0.097165  0.724373  0.587364  1
  Si  Si466  1  0.627315  0.902784  0.587364  1
  Si  Si467  1  0.511985  0.844648  0.624595  1
  Si  Si468  1  0.155317  0.667178  0.624595  1
  Si  Si469  1  0.511969  0.667187  0.624594  1
  Si  Si470  1  0.332776  0.844649  0.624594  1
  Si  Si471  1  0.845506  0.512342  0.752421  1
  Si  Si472  1  0.666885  0.512341  0.752420  1
  Si  Si473  1  0.845511  0.512342  0.707882  1
  Si  Si474  1  0.666910  0.512352  0.707881  1
  H  H475  1  0.100579  0.413729  0.072817  1
  H  H476  1  0.313200  0.413733  0.072816  1
  H  H477  1  0.313189  0.899339  0.072817  1
  H  H478  1  0.586193  0.686741  0.072815  1
  H  H479  1  0.100581  0.686723  0.072818  1
  H  H480  1  0.586203  0.899335  0.072813  1
  H  H481  1  0.686781  0.100514  0.781559  1
  H  H482  1  0.413774  0.313134  0.781557  1
  H  H483  1  0.899396  0.313136  0.781562  1
  H  H484  1  0.413763  0.100510  0.781559  1
  H  H485  1  0.899408  0.586133  0.781562  1
  H  H486  1  0.686779  0.586136  0.781558  1
