# generated using pymatgen
data_Si16H2O33
_symmetry_space_group_name_H-M   'P 1'
_cell_length_a   7.37523501
_cell_length_b   23.09866732
_cell_length_c   55.30601547
_cell_angle_alpha   127.22993261
_cell_angle_beta   98.98900000
_cell_angle_gamma   84.57570238
_symmetry_Int_Tables_number   1
_chemical_formula_structural   Si16H2O33
_chemical_formula_sum   'Si64 H8 O132'
_cell_volume   7409.65636067
_cell_formula_units_Z   4
loop_
 _symmetry_equiv_pos_site_id
 _symmetry_equiv_pos_as_xyz
  1  'x, y, z'
loop_
 _atom_site_type_symbol
 _atom_site_label
 _atom_site_symmetry_multiplicity
 _atom_site_fract_x
 _atom_site_fract_y
 _atom_site_fract_z
 _atom_site_occupancy
  O  O1  1  0.617019  0.312422  0.130715  1
  O  O2  1  0.617104  0.812158  0.130791  1
  O  O3  1  0.392668  0.000000  0.227973  1
  O  O4  1  0.392546  0.500082  0.228102  1
  O  O5  1  0.607374  -0.000000  0.290419  1
  O  O6  1  0.607223  0.500113  0.290376  1
  O  O7  1  0.626291  0.071061  0.225670  1
  O  O8  1  0.626892  0.571151  0.225808  1
  O  O9  1  0.372366  0.071216  0.328530  1
  O  O10  1  0.372993  0.571123  0.328621  1
  O  O11  1  0.373541  0.929145  0.292708  1
  O  O12  1  0.372800  0.429036  0.292655  1
  O  O13  1  0.627386  0.928974  0.189842  1
  O  O14  1  0.626690  0.429078  0.189845  1
  O  O15  1  0.711281  -0.000000  0.248414  1
  O  O16  1  0.711167  0.499998  0.248412  1
  O  O17  1  0.288755  -0.000000  0.269967  1
  O  O18  1  0.288606  0.500197  0.270061  1
  O  O19  1  0.115915  0.927520  0.216164  1
  O  O20  1  0.115645  0.427886  0.216255  1
  O  O21  1  0.883863  0.927988  0.265755  1
  O  O22  1  0.883608  0.427620  0.265662  1
  O  O23  1  0.884082  0.072712  0.302212  1
  O  O24  1  0.884022  0.572327  0.302228  1
  O  O25  1  0.116112  0.072177  0.252613  1
  O  O26  1  0.116074  0.572564  0.252815  1
  O  O27  1  0.617019  0.312422  0.383401  1
  O  O28  1  0.617104  0.812158  0.383477  1
  O  O29  1  0.383004  0.312145  0.292624  1
  O  O30  1  0.383085  0.812413  0.292833  1
  O  O31  1  0.383038  0.687836  0.135029  1
  O  O32  1  0.382363  0.188034  0.134904  1
  O  O33  1  0.617068  0.687988  0.225776  1
  O  O34  1  0.616432  0.187785  0.225548  1
  O  O35  1  0.771482  0.203476  0.339203  1
  O  O36  1  0.770721  0.702879  0.339313  1
  O  O37  1  0.229540  0.202627  0.281371  1
  O  O38  1  0.228726  0.703240  0.281788  1
  O  O39  1  0.228846  0.796881  0.179182  1
  O  O40  1  0.228722  0.297347  0.179116  1
  O  O41  1  0.770845  0.797400  0.236929  1
  O  O42  1  0.770714  0.296935  0.236627  1
  O  O43  1  0.443933  0.194794  0.345510  1
  O  O44  1  0.442630  0.694883  0.345639  1
  O  O45  1  0.558082  0.194980  0.271249  1
  O  O46  1  0.556742  0.694886  0.271335  1
  O  O47  1  0.556694  0.805326  0.172894  1
  O  O48  1  0.556764  0.305286  0.172740  1
  O  O49  1  0.442583  0.805295  0.247191  1
  O  O50  1  0.442653  0.305330  0.247057  1
  O  O51  1  0.499364  0.263835  0.325778  1
  O  O52  1  0.499921  0.763843  0.325912  1
  O  O53  1  0.500410  0.736356  0.192646  1
  O  O54  1  0.499545  0.236353  0.192472  1
  O  O55  1  0.118270  0.165869  0.345748  1
  O  O56  1  0.117857  0.665412  0.345899  1
  O  O57  1  0.882183  0.165114  0.255888  1
  O  O58  1  0.881743  0.665570  0.256271  1
  O  O59  1  0.881858  0.834423  0.172609  1
  O  O60  1  0.881689  0.334804  0.172589  1
  O  O61  1  0.117979  0.834999  0.262423  1
  O  O62  1  0.117808  0.334605  0.262206  1
  O  O63  1  0.000000  0.171728  0.302387  1
  O  O64  1  0.000000  0.671717  0.302833  1
  O  O65  1  0.000000  0.828482  0.215954  1
  O  O66  1  0.000000  0.328482  0.215829  1
  O  O67  1  0.392668  -0.000000  0.480659  1
  O  O68  1  0.392546  0.500082  0.480788  1
  O  O69  1  0.607374  -0.000000  0.543105  1
  O  O70  1  0.607223  0.500113  0.543062  1
  O  O71  1  0.626291  0.071061  0.478356  1
  O  O72  1  0.626892  0.571151  0.478494  1
  O  O73  1  0.372366  0.071216  0.581216  1
  O  O74  1  0.372993  0.571123  0.581307  1
  O  O75  1  0.373541  0.929145  0.545394  1
  O  O76  1  0.372800  0.429036  0.545341  1
  O  O77  1  0.627386  0.928974  0.442528  1
  O  O78  1  0.626690  0.429078  0.442531  1
  O  O79  1  0.711281  0.000000  0.501100  1
  O  O80  1  0.711167  0.499998  0.501098  1
  O  O81  1  0.288755  0.000000  0.522653  1
  O  O82  1  0.288606  0.500197  0.522747  1
  O  O83  1  0.115915  0.927520  0.468850  1
  O  O84  1  0.115645  0.427886  0.468941  1
  O  O85  1  0.883863  0.927988  0.518440  1
  O  O86  1  0.883608  0.427620  0.518348  1
  O  O87  1  0.884082  0.072712  0.554898  1
  O  O88  1  0.884022  0.572327  0.554914  1
  O  O89  1  0.116112  0.072177  0.505299  1
  O  O90  1  0.116074  0.572564  0.505501  1
  O  O91  1  0.617019  0.312422  0.636087  1
  O  O92  1  0.617104  0.812158  0.636163  1
  O  O93  1  0.383004  0.312145  0.545309  1
  O  O94  1  0.383085  0.812413  0.545519  1
  O  O95  1  0.383038  0.687836  0.387715  1
  O  O96  1  0.382363  0.188034  0.387590  1
  O  O97  1  0.617068  0.687988  0.478462  1
  O  O98  1  0.616432  0.187785  0.478234  1
  O  O99  1  0.771482  0.203476  0.591888  1
  O  O100  1  0.770721  0.702879  0.591999  1
  O  O101  1  0.229540  0.202627  0.534057  1
  O  O102  1  0.228726  0.703240  0.534474  1
  O  O103  1  0.228846  0.796881  0.431868  1
  O  O104  1  0.228722  0.297347  0.431802  1
  O  O105  1  0.770845  0.797400  0.489615  1
  O  O106  1  0.770714  0.296935  0.489313  1
  O  O107  1  0.443933  0.194794  0.598196  1
  O  O108  1  0.442630  0.694883  0.598325  1
  O  O109  1  0.558082  0.194980  0.523935  1
  O  O110  1  0.556742  0.694886  0.524021  1
  O  O111  1  0.556694  0.805326  0.425580  1
  O  O112  1  0.556764  0.305286  0.425426  1
  O  O113  1  0.442583  0.805295  0.499877  1
  O  O114  1  0.442653  0.305330  0.499743  1
  O  O115  1  0.499364  0.263835  0.578464  1
  O  O116  1  0.499921  0.763843  0.578597  1
  O  O117  1  0.500410  0.736356  0.445331  1
  O  O118  1  0.499545  0.236353  0.445158  1
  O  O119  1  0.118270  0.165869  0.598433  1
  O  O120  1  0.117857  0.665412  0.598585  1
  O  O121  1  0.882183  0.165114  0.508574  1
  O  O122  1  0.881743  0.665570  0.508957  1
  O  O123  1  0.881858  0.834423  0.425295  1
  O  O124  1  0.881689  0.334804  0.425274  1
  O  O125  1  0.117979  0.834999  0.515108  1
  O  O126  1  0.117808  0.334605  0.514892  1
  O  O127  1  0.000000  0.171728  0.555073  1
  O  O128  1  -0.000000  0.671717  0.555518  1
  O  O129  1  0.000000  0.828482  0.468639  1
  O  O130  1  -0.000000  0.328482  0.468515  1
  O  O131  1  0.383038  0.687836  0.640401  1
  O  O132  1  0.382363  0.188034  0.640275  1
  Si  Si133  1  0.940058  0.155077  0.323552  1
  Si  Si134  1  0.939700  0.654723  0.323710  1
  Si  Si135  1  0.060447  0.154569  0.272703  1
  Si  Si136  1  0.060069  0.654916  0.273033  1
  Si  Si137  1  0.060044  0.845162  0.194795  1
  Si  Si138  1  0.059867  0.345504  0.194771  1
  Si  Si139  1  0.939680  0.845599  0.245631  1
  Si  Si140  1  0.939505  0.345254  0.245434  1
  Si  Si141  1  0.585274  0.245609  0.348413  1
  Si  Si142  1  0.584873  0.745371  0.348502  1
  Si  Si143  1  0.415269  0.245314  0.293812  1
  Si  Si144  1  0.414832  0.745559  0.294023  1
  Si  Si145  1  0.415004  0.754636  0.170009  1
  Si  Si146  1  0.414497  0.254821  0.169882  1
  Si  Si147  1  0.585053  0.754829  0.224584  1
  Si  Si148  1  0.584549  0.254641  0.224362  1
  Si  Si149  1  0.329281  0.154105  0.352604  1
  Si  Si150  1  0.329156  0.653906  0.352737  1
  Si  Si151  1  0.670705  0.153764  0.243336  1
  Si  Si152  1  0.670546  0.653965  0.243572  1
  Si  Si153  1  0.670718  0.846114  0.165772  1
  Si  Si154  1  0.670492  0.346308  0.165700  1
  Si  Si155  1  0.329339  0.846409  0.275027  1
  Si  Si156  1  0.329108  0.346212  0.274856  1
  Si  Si157  1  0.592601  -0.000000  0.222210  1
  Si  Si158  1  0.592496  0.500069  0.222268  1
  Si  Si159  1  0.407394  0.000000  0.296174  1
  Si  Si160  1  0.407263  0.500127  0.296207  1
  Si  Si161  1  0.222735  -0.000000  0.241562  1
  Si  Si162  1  0.222577  0.500180  0.241688  1
  Si  Si163  1  0.777333  -0.000000  0.276824  1
  Si  Si164  1  0.777172  0.500017  0.276787  1
  Si  Si165  1  0.940058  0.155077  0.576238  1
  Si  Si166  1  0.939700  0.654723  0.576395  1
  Si  Si167  1  0.060447  0.154569  0.525389  1
  Si  Si168  1  0.060069  0.654916  0.525719  1
  Si  Si169  1  0.060044  0.845162  0.447481  1
  Si  Si170  1  0.059867  0.345504  0.447457  1
  Si  Si171  1  0.939680  0.845599  0.498317  1
  Si  Si172  1  0.939505  0.345254  0.498120  1
  Si  Si173  1  0.585274  0.245609  0.601099  1
  Si  Si174  1  0.584873  0.745371  0.601188  1
  Si  Si175  1  0.415269  0.245314  0.546498  1
  Si  Si176  1  0.414832  0.745559  0.546709  1
  Si  Si177  1  0.415004  0.754636  0.422694  1
  Si  Si178  1  0.414497  0.254821  0.422567  1
  Si  Si179  1  0.585053  0.754829  0.477269  1
  Si  Si180  1  0.584549  0.254641  0.477048  1
  Si  Si181  1  0.329281  0.154105  0.605290  1
  Si  Si182  1  0.329156  0.653906  0.605423  1
  Si  Si183  1  0.670705  0.153764  0.496022  1
  Si  Si184  1  0.670546  0.653965  0.496257  1
  Si  Si185  1  0.670718  0.846114  0.418458  1
  Si  Si186  1  0.670492  0.346308  0.418386  1
  Si  Si187  1  0.329339  0.846409  0.527713  1
  Si  Si188  1  0.329108  0.346212  0.527542  1
  Si  Si189  1  0.592601  0.000000  0.474896  1
  Si  Si190  1  0.592496  0.500069  0.474954  1
  Si  Si191  1  0.407394  0.000000  0.548859  1
  Si  Si192  1  0.407263  0.500127  0.548892  1
  Si  Si193  1  0.222735  0.000000  0.494248  1
  Si  Si194  1  0.222577  0.500180  0.494374  1
  Si  Si195  1  0.777333  0.000000  0.529510  1
  Si  Si196  1  0.777172  0.500017  0.529473  1
  H  H197  1  0.617019  0.312422  0.114442  1
  H  H198  1  0.617104  0.812158  0.114518  1
  H  H199  1  0.383038  0.687836  0.118756  1
  H  H200  1  0.382363  0.188034  0.118631  1
  H  H201  1  0.617019  0.312422  0.652360  1
  H  H202  1  0.617104  0.812158  0.652436  1
  H  H203  1  0.383038  0.687836  0.656674  1
  H  H204  1  0.382363  0.188034  0.656549  1
