# generated using pymatgen
data_Si12H2O25
_symmetry_space_group_name_H-M   'P 1'
_cell_length_a   13.56605876
_cell_length_b   46.01197261
_cell_length_c   55.87758417
_cell_angle_alpha   107.14383045
_cell_angle_beta   120.00000000
_cell_angle_gamma   81.52454549
_symmetry_Int_Tables_number   1
_chemical_formula_structural   Si12H2O25
_chemical_formula_sum   'Si216 H36 O450'
_cell_volume   28863.8531056
_cell_formula_units_Z   18
loop_
 _symmetry_equiv_pos_site_id
 _symmetry_equiv_pos_as_xyz
  1  'x, y, z'
loop_
 _atom_site_type_symbol
 _atom_site_label
 _atom_site_symmetry_multiplicity
 _atom_site_fract_x
 _atom_site_fract_y
 _atom_site_fract_z
 _atom_site_occupancy
  O  O1  1  0.746528  0.000000  0.210020  1
  O  O2  1  -0.000000  -0.000000  0.210068  1
  O  O3  1  0.883218  0.042567  0.225166  1
  O  O4  1  0.079518  0.111130  0.217537  1
  O  O5  1  0.333918  0.111167  0.156205  1
  O  O6  1  0.586331  0.111299  0.217526  1
  O  O7  1  0.079803  0.111093  0.156339  1
  O  O8  1  0.100603  0.068641  0.179106  1
  O  O9  1  0.450051  0.068747  0.263963  1
  O  O10  1  0.450246  0.068765  0.179013  1
  O  O11  1  0.233238  0.072312  0.232634  1
  O  O12  1  0.534086  0.072338  0.232550  1
  O  O13  1  0.233324  0.072206  0.159508  1
  O  O14  1  0.028432  0.055534  0.211019  1
  O  O15  1  0.305133  0.055543  0.123222  1
  O  O16  1  0.666856  0.055714  0.211036  1
  O  O17  1  0.028367  0.055548  0.123280  1
  O  O18  1  0.232463  0.150238  0.251647  1
  O  O19  1  0.533732  0.150288  0.251521  1
  O  O20  1  0.232734  0.150128  0.178427  1
  O  O21  1  0.799577  0.039004  0.256693  1
  O  O22  1  0.099805  0.153662  0.199755  1
  O  O23  1  0.449773  0.153768  0.199646  1
  O  O24  1  0.100445  0.038936  0.256708  1
  O  O25  1  0.027418  0.166661  0.237937  1
  O  O26  1  0.027500  0.166595  0.150342  1
  O  O27  1  0.746839  0.222250  0.264163  1
  O  O28  1  0.998952  0.222201  0.264048  1
  O  O29  1  0.666496  0.277831  0.265234  1
  O  O30  1  0.027969  0.277761  0.177596  1
  O  O31  1  0.028111  0.277863  0.265284  1
  O  O32  1  0.304616  0.277874  0.177435  1
  O  O33  1  0.666314  0.166817  0.237998  1
  O  O34  1  0.450144  0.290899  0.233128  1
  O  O35  1  0.882895  0.179663  0.258596  1
  O  O36  1  0.233060  0.294428  0.213779  1
  O  O37  1  0.099956  0.290871  0.233346  1
  O  O38  1  0.304745  0.166704  0.150257  1
  O  O39  1  0.638889  0.388654  0.123656  1
  O  O40  1  0.362133  0.388827  0.123723  1
  O  O41  1  0.361126  0.499935  0.150189  1
  O  O42  1  0.638945  0.499867  0.150200  1
  O  O43  1  0.000000  0.499958  0.237891  1
  O  O44  1  0.433717  0.372349  0.257118  1
  O  O45  1  0.413167  0.444583  0.217714  1
  O  O46  1  0.667604  0.444345  0.156393  1
  O  O47  1  0.919647  0.444459  0.217765  1
  O  O48  1  0.413208  0.444448  0.156464  1
  O  O49  1  0.433901  0.402045  0.179475  1
  O  O50  1  0.783500  0.402130  0.264415  1
  O  O51  1  0.783610  0.401960  0.179441  1
  O  O52  1  0.566482  0.405636  0.232987  1
  O  O53  1  0.867548  0.405611  0.233004  1
  O  O54  1  0.566875  0.405584  0.159940  1
  O  O55  1  0.361591  0.389058  0.211456  1
  O  O56  1  -0.000000  0.388882  0.211455  1
  O  O57  1  0.566392  0.483574  0.251607  1
  O  O58  1  0.867394  0.483551  0.251669  1
  O  O59  1  0.566125  0.483496  0.178329  1
  O  O60  1  0.333255  0.333455  0.210440  1
  O  O61  1  0.433462  0.487080  0.199712  1
  O  O62  1  0.783165  0.486952  0.199719  1
  O  O63  1  0.216569  0.375898  0.225602  1
  O  O64  1  0.133051  0.372326  0.257180  1
  O  O65  1  0.080146  0.333343  0.210531  1
  O  O66  1  0.361423  0.611138  0.177008  1
  O  O67  1  0.638298  0.611116  0.177008  1
  O  O68  1  0.783375  0.624172  0.232699  1
  O  O69  1  0.361227  0.500083  0.237885  1
  O  O70  1  0.079949  0.555471  0.263772  1
  O  O71  1  0.332273  0.555547  0.263798  1
  O  O72  1  0.000000  0.611060  0.264733  1
  O  O73  1  0.361331  0.611123  0.264752  1
  O  O74  1  0.216088  0.512953  0.258352  1
  O  O75  1  0.432761  0.624176  0.232709  1
  O  O76  1  0.566265  0.627774  0.213276  1
  O  O77  1  0.694989  0.722266  0.210818  1
  O  O78  1  0.333347  0.722264  0.210826  1
  O  O79  1  0.333590  0.833316  0.237781  1
  O  O80  1  0.746486  0.777862  0.217344  1
  O  O81  1  0.253084  0.777838  0.217326  1
  O  O82  1  0.466201  0.705633  0.256522  1
  O  O83  1  0.766947  0.705628  0.256500  1
  O  O84  1  0.116954  0.820399  0.199518  1
  O  O85  1  0.000000  0.777857  0.156063  1
  O  O86  1  0.746478  0.777860  0.156099  1
  O  O87  1  0.767031  0.735391  0.178885  1
  O  O88  1  0.116677  0.735357  0.263787  1
  O  O89  1  0.116663  0.735378  0.178848  1
  O  O90  1  0.899811  0.738953  0.232410  1
  O  O91  1  0.200658  0.738923  0.232377  1
  O  O92  1  0.899787  0.738950  0.159316  1
  O  O93  1  0.971815  0.722240  0.123054  1
  O  O94  1  0.694991  0.722254  0.123088  1
  O  O95  1  0.899768  0.816881  0.251416  1
  O  O96  1  0.201103  0.816871  0.251390  1
  O  O97  1  0.899820  0.816869  0.178237  1
  O  O98  1  0.413262  0.666712  0.209905  1
  O  O99  1  0.549772  0.709228  0.224955  1
  O  O100  1  0.766916  0.820410  0.199556  1
  O  O101  1  0.666584  0.666705  0.209885  1
  O  O102  1  0.333293  0.944392  0.264828  1
  O  O103  1  0.694904  0.944493  0.264885  1
  O  O104  1  0.694760  0.833366  0.237775  1
  O  O105  1  0.972307  0.833392  0.150113  1
  O  O106  1  0.694833  0.833380  0.150136  1
  O  O107  1  0.550184  0.846285  0.258407  1
  O  O108  1  0.899525  0.961094  0.213384  1
  O  O109  1  0.116808  0.957481  0.232809  1
  O  O110  1  0.766087  0.957585  0.232823  1
  O  O111  1  0.413772  0.888812  0.263810  1
  O  O112  1  0.665987  0.888867  0.263791  1
  O  O113  1  0.694714  0.944507  0.177076  1
  O  O114  1  0.971668  0.944491  0.177114  1
  O  O115  1  0.746345  0.000000  0.271506  1
  O  O116  1  0.233769  0.042466  0.310243  1
  O  O117  1  0.746528  0.000000  0.452747  1
  O  O118  1  0.000000  -0.000000  0.452795  1
  O  O119  1  0.883218  0.042567  0.467894  1
  O  O120  1  0.079518  0.111130  0.460264  1
  O  O121  1  0.586001  0.111242  0.279222  1
  O  O122  1  0.333918  0.111167  0.398932  1
  O  O123  1  0.334053  0.111197  0.279336  1
  O  O124  1  0.586331  0.111299  0.460253  1
  O  O125  1  0.079803  0.111093  0.399067  1
  O  O126  1  0.100603  0.068641  0.421833  1
  O  O127  1  0.450051  0.068747  0.506690  1
  O  O128  1  0.450246  0.068765  0.421741  1
  O  O129  1  0.233238  0.072312  0.475362  1
  O  O130  1  0.534086  0.072338  0.475278  1
  O  O131  1  0.233324  0.072206  0.402235  1
  O  O132  1  0.028432  0.055534  0.453746  1
  O  O133  1  0.666771  0.055691  0.278230  1
  O  O134  1  0.305133  0.055543  0.365949  1
  O  O135  1  0.305361  0.055567  0.278243  1
  O  O136  1  0.666856  0.055714  0.453763  1
  O  O137  1  0.028367  0.055548  0.366007  1
  O  O138  1  0.232463  0.150238  0.494374  1
  O  O139  1  0.533732  0.150288  0.494248  1
  O  O140  1  0.232734  0.150128  0.421154  1
  O  O141  1  0.100294  0.038881  0.329694  1
  O  O142  1  0.799577  0.039004  0.499420  1
  O  O143  1  0.099805  0.153662  0.442482  1
  O  O144  1  0.449557  0.153787  0.284694  1
  O  O145  1  0.449773  0.153768  0.442373  1
  O  O146  1  0.883063  0.042537  0.310297  1
  O  O147  1  0.100445  0.038936  0.499435  1
  O  O148  1  0.027418  0.166661  0.480664  1
  O  O149  1  0.027500  0.166595  0.393069  1
  O  O150  1  0.305059  0.166667  0.305409  1
  O  O151  1  0.253166  0.222146  0.325900  1
  O  O152  1  0.746835  0.222135  0.325860  1
  O  O153  1  0.746839  0.222250  0.506890  1
  O  O154  1  0.998652  0.222167  0.387211  1
  O  O155  1  0.998952  0.222201  0.506775  1
  O  O156  1  0.252978  0.222229  0.387121  1
  O  O157  1  0.232202  0.264651  0.364352  1
  O  O158  1  0.883118  0.264680  0.279442  1
  O  O159  1  0.882945  0.264640  0.364462  1
  O  O160  1  0.099859  0.261028  0.310830  1
  O  O161  1  0.799309  0.261112  0.310894  1
  O  O162  1  0.099723  0.261132  0.384026  1
  O  O163  1  0.304821  0.277738  0.332541  1
  O  O164  1  0.666496  0.277831  0.507962  1
  O  O165  1  0.027969  0.277761  0.420323  1
  O  O166  1  0.028111  0.277863  0.508011  1
  O  O167  1  0.666303  0.277629  0.332351  1
  O  O168  1  0.304616  0.277874  0.420162  1
  O  O169  1  0.099990  0.183108  0.291691  1
  O  O170  1  0.798883  0.183128  0.291787  1
  O  O171  1  0.099662  0.183230  0.364951  1
  O  O172  1  0.666314  0.166817  0.480725  1
  O  O173  1  0.233104  0.294441  0.286921  1
  O  O174  1  0.333587  0.333300  0.333543  1
  O  O175  1  0.450144  0.290899  0.475856  1
  O  O176  1  0.232417  0.179635  0.343585  1
  O  O177  1  0.882895  0.179663  0.501323  1
  O  O178  1  0.882653  0.179593  0.343673  1
  O  O179  1  0.233060  0.294428  0.456506  1
  O  O180  1  0.533406  0.294349  0.286684  1
  O  O181  1  0.099956  0.290871  0.476073  1
  O  O182  1  0.450085  0.290720  0.318356  1
  O  O183  1  0.586612  0.333172  0.333350  1
  O  O184  1  0.666086  0.166692  0.305306  1
  O  O185  1  0.304745  0.166704  0.392984  1
  O  O186  1  0.638889  0.388654  0.366384  1
  O  O187  1  0.362133  0.388827  0.366450  1
  O  O188  1  0.361126  0.499935  0.392917  1
  O  O189  1  0.638945  0.499867  0.392928  1
  O  O190  1  0.000000  0.499958  0.480619  1
  O  O191  1  0.080127  0.333436  0.272045  1
  O  O192  1  0.567382  0.375803  0.310684  1
  O  O193  1  0.433717  0.372349  0.499846  1
  O  O194  1  0.413167  0.444583  0.460441  1
  O  O195  1  0.919822  0.444612  0.279579  1
  O  O196  1  0.667604  0.444345  0.399121  1
  O  O197  1  0.667388  0.444618  0.279530  1
  O  O198  1  0.919647  0.444459  0.460492  1
  O  O199  1  0.413208  0.444448  0.399192  1
  O  O200  1  0.433901  0.402045  0.422203  1
  O  O201  1  0.783500  0.402130  0.507142  1
  O  O202  1  0.783610  0.401960  0.422169  1
  O  O203  1  0.566482  0.405636  0.475714  1
  O  O204  1  0.867548  0.405611  0.475731  1
  O  O205  1  0.566875  0.405584  0.402667  1
  O  O206  1  0.361591  0.389058  0.454183  1
  O  O207  1  0.000000  0.389037  0.278727  1
  O  O208  1  0.638580  0.389014  0.278663  1
  O  O209  1  0.000000  0.388882  0.454182  1
  O  O210  1  0.566392  0.483574  0.494335  1
  O  O211  1  0.867394  0.483551  0.494396  1
  O  O212  1  0.566125  0.483496  0.421056  1
  O  O213  1  0.216736  0.375883  0.310771  1
  O  O214  1  0.333255  0.333455  0.453168  1
  O  O215  1  0.433462  0.487080  0.442439  1
  O  O216  1  0.783514  0.487149  0.284876  1
  O  O217  1  0.783165  0.486952  0.442446  1
  O  O218  1  0.433883  0.372191  0.330120  1
  O  O219  1  0.216569  0.375898  0.468330  1
  O  O220  1  0.133051  0.372326  0.499908  1
  O  O221  1  0.586643  0.333382  0.271917  1
  O  O222  1  0.080146  0.333343  0.453258  1
  O  O223  1  0.361423  0.611138  0.419735  1
  O  O224  1  0.638298  0.611116  0.419735  1
  O  O225  1  0.867007  0.627720  0.286288  1
  O  O226  1  0.783375  0.624172  0.475426  1
  O  O227  1  0.361227  0.500083  0.480613  1
  O  O228  1  0.783478  0.624142  0.317865  1
  O  O229  1  0.586445  0.555579  0.325579  1
  O  O230  1  0.079949  0.555471  0.506499  1
  O  O231  1  0.332568  0.555490  0.386861  1
  O  O232  1  0.332273  0.555547  0.506525  1
  O  O233  1  0.080490  0.555553  0.325621  1
  O  O234  1  0.587240  0.555460  0.386900  1
  O  O235  1  0.566257  0.597982  0.363977  1
  O  O236  1  0.216308  0.597985  0.278977  1
  O  O237  1  0.216792  0.597988  0.363962  1
  O  O238  1  0.433267  0.594516  0.310439  1
  O  O239  1  0.132517  0.594420  0.310417  1
  O  O240  1  0.433621  0.594318  0.383507  1
  O  O241  1  0.638183  0.611134  0.332004  1
  O  O242  1  0.000000  0.611060  0.507460  1
  O  O243  1  0.361331  0.611123  0.507480  1
  O  O244  1  0.000000  0.611122  0.332002  1
  O  O245  1  0.433177  0.516552  0.291603  1
  O  O246  1  0.132288  0.516475  0.291585  1
  O  O247  1  0.434010  0.516432  0.364861  1
  O  O248  1  0.000000  0.500115  0.305381  1
  O  O249  1  0.566301  0.627717  0.286298  1
  O  O250  1  0.566447  0.512978  0.343494  1
  O  O251  1  0.216088  0.512953  0.501079  1
  O  O252  1  0.216808  0.512963  0.343477  1
  O  O253  1  0.432761  0.624176  0.475437  1
  O  O254  1  0.566265  0.627774  0.456003  1
  O  O255  1  0.638366  0.500128  0.305311  1
  O  O256  1  0.919933  0.666650  0.271388  1
  O  O257  1  0.919924  0.666659  0.332896  1
  O  O258  1  0.694989  0.722266  0.453545  1
  O  O259  1  0.333347  0.722264  0.453553  1
  O  O260  1  0.333590  0.833316  0.480508  1
  O  O261  1  0.333565  0.833295  0.305156  1
  O  O262  1  0.413331  0.666677  0.271408  1
  O  O263  1  0.746486  0.777862  0.460071  1
  O  O264  1  0.253084  0.777838  0.460053  1
  O  O265  1  0.466201  0.705633  0.499250  1
  O  O266  1  0.766947  0.705628  0.499227  1
  O  O267  1  0.116954  0.820399  0.442245  1
  O  O268  1  0.900447  0.709169  0.310080  1
  O  O269  1  0.116967  0.820377  0.284540  1
  O  O270  1  0.253094  0.777812  0.279080  1
  O  O271  1  0.000000  0.777857  0.398790  1
  O  O272  1  0.000000  0.777825  0.279120  1
  O  O273  1  0.746478  0.777860  0.398827  1
  O  O274  1  0.767031  0.735391  0.421613  1
  O  O275  1  0.116677  0.735357  0.506514  1
  O  O276  1  0.116663  0.735378  0.421575  1
  O  O277  1  0.899811  0.738953  0.475138  1
  O  O278  1  0.200658  0.738923  0.475105  1
  O  O279  1  0.899787  0.738950  0.402043  1
  O  O280  1  0.333346  0.722224  0.278036  1
  O  O281  1  0.971815  0.722240  0.365782  1
  O  O282  1  0.971867  0.722211  0.278039  1
  O  O283  1  0.694991  0.722254  0.365815  1
  O  O284  1  0.899768  0.816881  0.494143  1
  O  O285  1  0.201103  0.816871  0.494117  1
  O  O286  1  0.899820  0.816869  0.420964  1
  O  O287  1  0.766916  0.705605  0.329521  1
  O  O288  1  0.413262  0.666712  0.452632  1
  O  O289  1  0.549787  0.709190  0.310109  1
  O  O290  1  0.549772  0.709228  0.467682  1
  O  O291  1  0.766916  0.820410  0.442283  1
  O  O292  1  0.666584  0.666705  0.452612  1
  O  O293  1  0.666630  0.666673  0.332910  1
  O  O294  1  0.333293  0.944392  0.507555  1
  O  O295  1  0.694904  0.944493  0.507612  1
  O  O296  1  0.253478  0.000000  0.271521  1
  O  O297  1  0.694760  0.833366  0.480502  1
  O  O298  1  0.972365  0.833333  0.305170  1
  O  O299  1  0.972307  0.833392  0.392840  1
  O  O300  1  0.694833  0.833380  0.392863  1
  O  O301  1  0.550184  0.846285  0.501134  1
  O  O302  1  0.550129  0.846299  0.343423  1
  O  O303  1  0.899525  0.961094  0.456111  1
  O  O304  1  0.116808  0.957481  0.475537  1
  O  O305  1  0.253579  0.000000  0.333036  1
  O  O306  1  0.900233  0.846310  0.343408  1
  O  O307  1  0.766087  0.957585  0.475550  1
  O  O308  1  0.116890  0.957484  0.317943  1
  O  O309  1  0.200498  0.961042  0.286368  1
  O  O310  1  0.899658  0.961162  0.286407  1
  O  O311  1  0.920333  0.888827  0.325575  1
  O  O312  1  0.413772  0.888812  0.506537  1
  O  O313  1  0.666038  0.888886  0.386836  1
  O  O314  1  0.665987  0.888867  0.506518  1
  O  O315  1  0.413690  0.888804  0.325567  1
  O  O316  1  0.920449  0.888899  0.386839  1
  O  O317  1  0.899800  0.931337  0.364020  1
  O  O318  1  0.550015  0.931310  0.279095  1
  O  O319  1  0.549984  0.931315  0.364008  1
  O  O320  1  0.766902  0.927743  0.310487  1
  O  O321  1  0.465891  0.927726  0.310479  1
  O  O322  1  0.766923  0.927793  0.383562  1
  O  O323  1  0.971799  0.944382  0.332049  1
  O  O324  1  0.694714  0.944507  0.419803  1
  O  O325  1  0.333239  0.944365  0.332045  1
  O  O326  1  0.971668  0.944491  0.419841  1
  O  O327  1  0.767286  0.849809  0.291518  1
  O  O328  1  0.465954  0.849790  0.291548  1
  O  O329  1  0.767271  0.849862  0.364708  1
  O  O330  1  0.000000  -0.000000  0.333062  1
  O  O331  1  0.746345  -0.000000  0.514233  1
  O  O332  1  0.233769  0.042466  0.552970  1
  O  O333  1  0.586001  0.111242  0.521949  1
  O  O334  1  0.334053  0.111197  0.522063  1
  O  O335  1  0.666771  0.055691  0.520957  1
  O  O336  1  0.305133  0.055543  0.608676  1
  O  O337  1  0.305361  0.055567  0.520970  1
  O  O338  1  0.028367  0.055548  0.608734  1
  O  O339  1  0.100294  0.038881  0.572422  1
  O  O340  1  0.449557  0.153787  0.527422  1
  O  O341  1  0.883063  0.042537  0.553025  1
  O  O342  1  0.027500  0.166595  0.635796  1
  O  O343  1  0.305059  0.166667  0.548137  1
  O  O344  1  0.253166  0.222146  0.568627  1
  O  O345  1  0.746835  0.222135  0.568587  1
  O  O346  1  0.998652  0.222167  0.629938  1
  O  O347  1  0.252978  0.222229  0.629848  1
  O  O348  1  0.232202  0.264651  0.607080  1
  O  O349  1  0.883118  0.264680  0.522170  1
  O  O350  1  0.882945  0.264640  0.607189  1
  O  O351  1  0.099859  0.261028  0.553557  1
  O  O352  1  0.799309  0.261112  0.553621  1
  O  O353  1  0.099723  0.261132  0.626753  1
  O  O354  1  0.304821  0.277738  0.575268  1
  O  O355  1  0.027969  0.277761  0.663050  1
  O  O356  1  0.666303  0.277629  0.575078  1
  O  O357  1  0.304616  0.277874  0.662889  1
  O  O358  1  0.099990  0.183108  0.534419  1
  O  O359  1  0.798883  0.183128  0.534514  1
  O  O360  1  0.099662  0.183230  0.607678  1
  O  O361  1  0.233104  0.294441  0.529648  1
  O  O362  1  0.333587  0.333300  0.576270  1
  O  O363  1  0.232417  0.179635  0.586313  1
  O  O364  1  0.882653  0.179593  0.586400  1
  O  O365  1  0.533406  0.294349  0.529411  1
  O  O366  1  0.450085  0.290720  0.561084  1
  O  O367  1  0.586612  0.333172  0.576077  1
  O  O368  1  0.666086  0.166692  0.548034  1
  O  O369  1  0.304745  0.166704  0.635711  1
  O  O370  1  0.638889  0.388654  0.609111  1
  O  O371  1  0.362133  0.388827  0.609178  1
  O  O372  1  0.361126  0.499935  0.635644  1
  O  O373  1  0.638945  0.499867  0.635655  1
  O  O374  1  0.080127  0.333436  0.514772  1
  O  O375  1  0.567382  0.375803  0.553411  1
  O  O376  1  0.919822  0.444612  0.522306  1
  O  O377  1  0.667388  0.444618  0.522257  1
  O  O378  1  0.000000  0.389037  0.521454  1
  O  O379  1  0.638580  0.389014  0.521391  1
  O  O380  1  0.216736  0.375883  0.553499  1
  O  O381  1  0.783514  0.487149  0.527603  1
  O  O382  1  0.433883  0.372191  0.572847  1
  O  O383  1  0.586643  0.333382  0.514644  1
  O  O384  1  0.361423  0.611138  0.662463  1
  O  O385  1  0.638298  0.611116  0.662462  1
  O  O386  1  0.867007  0.627720  0.529015  1
  O  O387  1  0.783478  0.624142  0.560592  1
  O  O388  1  0.586445  0.555579  0.568306  1
  O  O389  1  0.332568  0.555490  0.629589  1
  O  O390  1  0.080490  0.555553  0.568348  1
  O  O391  1  0.587240  0.555460  0.629627  1
  O  O392  1  0.566257  0.597982  0.606704  1
  O  O393  1  0.216308  0.597985  0.521704  1
  O  O394  1  0.216792  0.597988  0.606689  1
  O  O395  1  0.433267  0.594516  0.553166  1
  O  O396  1  0.132517  0.594420  0.553144  1
  O  O397  1  0.433621  0.594318  0.626234  1
  O  O398  1  0.638183  0.611134  0.574731  1
  O  O399  1  0.000000  0.611122  0.574730  1
  O  O400  1  0.433177  0.516552  0.534331  1
  O  O401  1  0.132288  0.516475  0.534312  1
  O  O402  1  0.434010  0.516432  0.607588  1
  O  O403  1  0.000000  0.500115  0.548109  1
  O  O404  1  0.566301  0.627717  0.529026  1
  O  O405  1  0.566447  0.512978  0.586221  1
  O  O406  1  0.216808  0.512963  0.586204  1
  O  O407  1  0.638366  0.500128  0.548038  1
  O  O408  1  0.919933  0.666650  0.514116  1
  O  O409  1  0.919924  0.666659  0.575623  1
  O  O410  1  0.333565  0.833295  0.547883  1
  O  O411  1  0.413331  0.666677  0.514135  1
  O  O412  1  0.900447  0.709169  0.552807  1
  O  O413  1  0.116967  0.820377  0.527267  1
  O  O414  1  0.253094  0.777812  0.521808  1
  O  O415  1  0.000000  0.777825  0.521847  1
  O  O416  1  0.333346  0.722224  0.520763  1
  O  O417  1  0.971815  0.722240  0.608509  1
  O  O418  1  0.971867  0.722211  0.520767  1
  O  O419  1  0.694991  0.722254  0.608543  1
  O  O420  1  0.766916  0.705605  0.572248  1
  O  O421  1  0.549787  0.709190  0.552836  1
  O  O422  1  0.666630  0.666673  0.575637  1
  O  O423  1  0.253478  -0.000000  0.514248  1
  O  O424  1  0.972365  0.833333  0.547897  1
  O  O425  1  0.972307  0.833392  0.635568  1
  O  O426  1  0.694833  0.833380  0.635590  1
  O  O427  1  0.550129  0.846299  0.586151  1
  O  O428  1  0.253579  -0.000000  0.575763  1
  O  O429  1  0.900233  0.846310  0.586135  1
  O  O430  1  0.116890  0.957484  0.560670  1
  O  O431  1  0.200498  0.961042  0.529095  1
  O  O432  1  0.899658  0.961162  0.529135  1
  O  O433  1  0.920333  0.888827  0.568303  1
  O  O434  1  0.666038  0.888886  0.629563  1
  O  O435  1  0.413690  0.888804  0.568295  1
  O  O436  1  0.920449  0.888899  0.629567  1
  O  O437  1  0.899800  0.931337  0.606747  1
  O  O438  1  0.550015  0.931310  0.521822  1
  O  O439  1  0.549984  0.931315  0.606735  1
  O  O440  1  0.766902  0.927743  0.553214  1
  O  O441  1  0.465891  0.927726  0.553206  1
  O  O442  1  0.766923  0.927793  0.626289  1
  O  O443  1  0.971799  0.944382  0.574776  1
  O  O444  1  0.694714  0.944507  0.662530  1
  O  O445  1  0.333239  0.944365  0.574772  1
  O  O446  1  0.971668  0.944491  0.662568  1
  O  O447  1  0.767286  0.849809  0.534246  1
  O  O448  1  0.465954  0.849790  0.534276  1
  O  O449  1  0.767271  0.849862  0.607436  1
  O  O450  1  0.000000  -0.000000  0.575789  1
  Si  Si451  1  0.106578  0.076152  0.209240  1
  Si  Si452  1  0.560465  0.076237  0.264235  1
  Si  Si453  1  0.333364  0.076159  0.153998  1
  Si  Si454  1  0.333421  0.076214  0.264321  1
  Si  Si455  1  0.560611  0.076283  0.209199  1
  Si  Si456  1  0.106717  0.076095  0.154069  1
  Si  Si457  1  0.106094  0.146146  0.226262  1
  Si  Si458  1  0.332956  0.146145  0.171062  1
  Si  Si459  1  0.560032  0.146279  0.226209  1
  Si  Si460  1  0.106324  0.146092  0.171153  1
  Si  Si461  1  0.772963  0.035077  0.224989  1
  Si  Si462  1  -0.000000  0.035009  0.225026  1
  Si  Si463  1  0.772782  0.187239  0.262083  1
  Si  Si464  1  0.000000  0.187184  0.261983  1
  Si  Si465  1  0.106595  0.298434  0.263562  1
  Si  Si466  1  0.332977  0.298434  0.208255  1
  Si  Si467  1  0.560167  0.298381  0.263401  1
  Si  Si468  1  0.106544  0.298334  0.208367  1
  Si  Si469  1  0.439885  0.409564  0.209603  1
  Si  Si470  1  0.894018  0.409593  0.264711  1
  Si  Si471  1  0.666935  0.409388  0.154384  1
  Si  Si472  1  0.666686  0.409585  0.264679  1
  Si  Si473  1  0.893994  0.409469  0.209609  1
  Si  Si474  1  0.440225  0.409483  0.154456  1
  Si  Si475  1  0.439949  0.479558  0.226244  1
  Si  Si476  1  0.666608  0.479381  0.171055  1
  Si  Si477  1  0.893352  0.479459  0.226289  1
  Si  Si478  1  0.439754  0.479477  0.171074  1
  Si  Si479  1  0.106523  0.368339  0.225474  1
  Si  Si480  1  0.333584  0.368443  0.225428  1
  Si  Si481  1  0.105943  0.520480  0.261830  1
  Si  Si482  1  0.332975  0.520562  0.261845  1
  Si  Si483  1  0.439690  0.631669  0.262954  1
  Si  Si484  1  0.666349  0.631707  0.207787  1
  Si  Si485  1  0.893529  0.631655  0.262940  1
  Si  Si486  1  0.439653  0.631707  0.207795  1
  Si  Si487  1  0.773191  0.742864  0.209033  1
  Si  Si488  1  0.773321  0.812859  0.226062  1
  Si  Si489  1  0.227191  0.812837  0.226041  1
  Si  Si490  1  0.227138  0.742842  0.209010  1
  Si  Si491  1  0.227163  0.742819  0.264074  1
  Si  Si492  1  0.000000  0.742854  0.153831  1
  Si  Si493  1  0.000000  0.742833  0.264103  1
  Si  Si494  1  0.773173  0.742856  0.153857  1
  Si  Si495  1  0.000000  0.812847  0.170914  1
  Si  Si496  1  0.773370  0.812850  0.170940  1
  Si  Si497  1  0.439655  0.701711  0.224826  1
  Si  Si498  1  0.666834  0.701711  0.224807  1
  Si  Si499  1  0.227082  0.964983  0.263032  1
  Si  Si500  1  0.773055  0.965094  0.263076  1
  Si  Si501  1  0.439905  0.853819  0.261826  1
  Si  Si502  1  0.666900  0.853868  0.261806  1
  Si  Si503  1  0.000000  0.965010  0.207921  1
  Si  Si504  1  0.772893  0.965073  0.207882  1
  Si  Si505  1  0.227076  0.034984  0.280028  1
  Si  Si506  1  0.772972  0.035087  0.280038  1
  Si  Si507  1  0.106578  0.076152  0.451968  1
  Si  Si508  1  0.560465  0.076237  0.506962  1
  Si  Si509  1  0.333364  0.076159  0.396725  1
  Si  Si510  1  0.333421  0.076214  0.507048  1
  Si  Si511  1  0.560611  0.076283  0.451927  1
  Si  Si512  1  0.106717  0.076095  0.396797  1
  Si  Si513  1  0.106094  0.146146  0.468990  1
  Si  Si514  1  0.559733  0.146228  0.281233  1
  Si  Si515  1  0.332956  0.146145  0.413790  1
  Si  Si516  1  0.332934  0.146210  0.281355  1
  Si  Si517  1  0.560032  0.146279  0.468936  1
  Si  Si518  1  0.106324  0.146092  0.413880  1
  Si  Si519  1  0.772963  0.035077  0.467717  1
  Si  Si520  1  0.000000  0.035004  0.333205  1
  Si  Si521  1  0.000000  0.035009  0.467754  1
  Si  Si522  1  0.226865  0.034954  0.335164  1
  Si  Si523  1  0.226406  0.257134  0.334244  1
  Si  Si524  1  0.772742  0.257140  0.334234  1
  Si  Si525  1  0.226328  0.187139  0.317093  1
  Si  Si526  1  0.772602  0.187139  0.317106  1
  Si  Si527  1  0.772685  0.257239  0.279187  1
  Si  Si528  1  0.000000  0.257189  0.389512  1
  Si  Si529  1  0.000000  0.257178  0.279130  1
  Si  Si530  1  0.226244  0.257240  0.389423  1
  Si  Si531  1  0.772782  0.187239  0.504810  1
  Si  Si532  1  0.000000  0.187192  0.372296  1
  Si  Si533  1  0.000000  0.187184  0.504710  1
  Si  Si534  1  0.226058  0.187247  0.372215  1
  Si  Si535  1  0.106595  0.298434  0.506289  1
  Si  Si536  1  0.560013  0.298193  0.318377  1
  Si  Si537  1  0.332977  0.298434  0.450983  1
  Si  Si538  1  0.333212  0.298298  0.318599  1
  Si  Si539  1  0.560167  0.298381  0.506128  1
  Si  Si540  1  0.106544  0.298334  0.451094  1
  Si  Si541  1  0.439885  0.409564  0.452330  1
  Si  Si542  1  0.894018  0.409593  0.507438  1
  Si  Si543  1  0.666935  0.409388  0.397111  1
  Si  Si544  1  0.666686  0.409585  0.507407  1
  Si  Si545  1  0.893994  0.409469  0.452337  1
  Si  Si546  1  0.440225  0.409483  0.397183  1
  Si  Si547  1  0.439949  0.479558  0.468971  1
  Si  Si548  1  0.893736  0.479589  0.281440  1
  Si  Si549  1  0.666608  0.479381  0.413782  1
  Si  Si550  1  0.666572  0.479579  0.281372  1
  Si  Si551  1  0.893352  0.479459  0.469016  1
  Si  Si552  1  0.439754  0.479477  0.413802  1
  Si  Si553  1  0.560368  0.368390  0.280436  1
  Si  Si554  1  0.106523  0.368339  0.468201  1
  Si  Si555  1  0.333835  0.368296  0.335638  1
  Si  Si556  1  0.333584  0.368443  0.468156  1
  Si  Si557  1  0.106503  0.368438  0.280537  1
  Si  Si558  1  0.560445  0.368193  0.335560  1
  Si  Si559  1  0.559894  0.590590  0.333818  1
  Si  Si560  1  0.105903  0.590477  0.278704  1
  Si  Si561  1  0.333411  0.590472  0.388989  1
  Si  Si562  1  0.333149  0.590561  0.278727  1
  Si  Si563  1  0.106202  0.590546  0.333825  1
  Si  Si564  1  0.560268  0.590444  0.388998  1
  Si  Si565  1  0.559629  0.520596  0.316967  1
  Si  Si566  1  0.105943  0.520480  0.504558  1
  Si  Si567  1  0.333493  0.520476  0.372115  1
  Si  Si568  1  0.332975  0.520562  0.504572  1
  Si  Si569  1  0.106482  0.520551  0.316986  1
  Si  Si570  1  0.560440  0.520450  0.372156  1
  Si  Si571  1  0.439690  0.631669  0.505681  1
  Si  Si572  1  0.893593  0.631655  0.317990  1
  Si  Si573  1  0.666349  0.631707  0.450514  1
  Si  Si574  1  0.666386  0.631665  0.317999  1
  Si  Si575  1  0.893529  0.631655  0.505667  1
  Si  Si576  1  0.439653  0.631707  0.450522  1
  Si  Si577  1  0.773191  0.742864  0.451760  1
  Si  Si578  1  0.773321  0.812859  0.468789  1
  Si  Si579  1  0.227191  0.812837  0.468768  1
  Si  Si580  1  0.227138  0.742842  0.451737  1
  Si  Si581  1  0.227163  0.742819  0.506802  1
  Si  Si582  1  -0.000000  0.742854  0.396558  1
  Si  Si583  1  0.000000  0.742833  0.506830  1
  Si  Si584  1  0.773173  0.742856  0.396584  1
  Si  Si585  1  0.227202  0.812816  0.281108  1
  Si  Si586  1  0.000000  0.812847  0.413641  1
  Si  Si587  1  0.000000  0.812828  0.279138  1
  Si  Si588  1  0.773370  0.812850  0.413667  1
  Si  Si589  1  0.893547  0.701660  0.279839  1
  Si  Si590  1  0.439655  0.701711  0.467553  1
  Si  Si591  1  0.666861  0.701674  0.335021  1
  Si  Si592  1  0.666834  0.701711  0.467535  1
  Si  Si593  1  0.439659  0.701676  0.279860  1
  Si  Si594  1  0.893529  0.701662  0.335000  1
  Si  Si595  1  0.227082  0.964983  0.505759  1
  Si  Si596  1  0.773055  0.965094  0.505803  1
  Si  Si597  1  0.893550  0.923823  0.333858  1
  Si  Si598  1  0.439532  0.923814  0.278794  1
  Si  Si599  1  0.666743  0.923886  0.389038  1
  Si  Si600  1  0.666747  0.923855  0.278794  1
  Si  Si601  1  0.439489  0.923806  0.333854  1
  Si  Si602  1  0.893596  0.923895  0.389054  1
  Si  Si603  1  0.893728  0.853826  0.316875  1
  Si  Si604  1  0.439905  0.853819  0.504553  1
  Si  Si605  1  0.666911  0.853892  0.372025  1
  Si  Si606  1  0.666900  0.853868  0.504534  1
  Si  Si607  1  0.439837  0.853821  0.316893  1
  Si  Si608  1  0.893727  0.853901  0.372018  1
  Si  Si609  1  0.227022  0.964960  0.318066  1
  Si  Si610  1  0.000000  0.965010  0.450648  1
  Si  Si611  1  0.000000  0.964997  0.320071  1
  Si  Si612  1  0.772893  0.965073  0.450609  1
  Si  Si613  1  0.227076  0.034984  0.522755  1
  Si  Si614  1  0.772972  0.035087  0.522766  1
  Si  Si615  1  0.559733  0.146228  0.523960  1
  Si  Si616  1  0.332934  0.146210  0.524082  1
  Si  Si617  1  0.000000  0.035004  0.575932  1
  Si  Si618  1  0.226865  0.034954  0.577891  1
  Si  Si619  1  0.226406  0.257134  0.576971  1
  Si  Si620  1  0.772742  0.257140  0.576961  1
  Si  Si621  1  0.226328  0.187139  0.559820  1
  Si  Si622  1  0.772602  0.187139  0.559833  1
  Si  Si623  1  0.772685  0.257239  0.521914  1
  Si  Si624  1  0.000000  0.257189  0.632239  1
  Si  Si625  1  0.000000  0.257178  0.521857  1
  Si  Si626  1  0.226244  0.257240  0.632151  1
  Si  Si627  1  0.000000  0.187192  0.615023  1
  Si  Si628  1  0.226058  0.187247  0.614943  1
  Si  Si629  1  0.560013  0.298193  0.561104  1
  Si  Si630  1  0.333212  0.298298  0.561326  1
  Si  Si631  1  0.893736  0.479589  0.524167  1
  Si  Si632  1  0.666572  0.479579  0.524100  1
  Si  Si633  1  0.560368  0.368390  0.523164  1
  Si  Si634  1  0.333835  0.368296  0.578365  1
  Si  Si635  1  0.106503  0.368438  0.523264  1
  Si  Si636  1  0.560445  0.368193  0.578287  1
  Si  Si637  1  0.559894  0.590590  0.576545  1
  Si  Si638  1  0.105903  0.590477  0.521431  1
  Si  Si639  1  0.333411  0.590472  0.631716  1
  Si  Si640  1  0.333149  0.590561  0.521454  1
  Si  Si641  1  0.106202  0.590546  0.576552  1
  Si  Si642  1  0.560268  0.590444  0.631726  1
  Si  Si643  1  0.559629  0.520596  0.559695  1
  Si  Si644  1  0.333493  0.520476  0.614842  1
  Si  Si645  1  0.106482  0.520551  0.559714  1
  Si  Si646  1  0.560440  0.520450  0.614883  1
  Si  Si647  1  0.893593  0.631655  0.560717  1
  Si  Si648  1  0.666386  0.631665  0.560726  1
  Si  Si649  1  0.227202  0.812816  0.523835  1
  Si  Si650  1  0.000000  0.812828  0.521865  1
  Si  Si651  1  0.893547  0.701660  0.522567  1
  Si  Si652  1  0.666861  0.701674  0.577749  1
  Si  Si653  1  0.439659  0.701676  0.522587  1
  Si  Si654  1  0.893529  0.701662  0.577727  1
  Si  Si655  1  0.893550  0.923823  0.576585  1
  Si  Si656  1  0.439532  0.923814  0.521522  1
  Si  Si657  1  0.666743  0.923886  0.631765  1
  Si  Si658  1  0.666747  0.923855  0.521521  1
  Si  Si659  1  0.439489  0.923806  0.576581  1
  Si  Si660  1  0.893596  0.923895  0.631782  1
  Si  Si661  1  0.893728  0.853826  0.559603  1
  Si  Si662  1  0.666911  0.853892  0.614753  1
  Si  Si663  1  0.439837  0.853821  0.559620  1
  Si  Si664  1  0.893727  0.853901  0.614745  1
  Si  Si665  1  0.227022  0.964960  0.560794  1
  Si  Si666  1  0.000000  0.964997  0.562798  1
  H  H667  1  0.305133  0.055543  0.107115  1
  H  H668  1  0.028367  0.055548  0.107173  1
  H  H669  1  0.027500  0.166595  0.134235  1
  H  H670  1  0.027969  0.277761  0.161489  1
  H  H671  1  0.304616  0.277874  0.161328  1
  H  H672  1  0.304745  0.166704  0.134150  1
  H  H673  1  0.638889  0.388654  0.107550  1
  H  H674  1  0.362133  0.388827  0.107616  1
  H  H675  1  0.361126  0.499935  0.134083  1
  H  H676  1  0.638945  0.499867  0.134094  1
  H  H677  1  0.361423  0.611138  0.160902  1
  H  H678  1  0.638298  0.611116  0.160901  1
  H  H679  1  0.971815  0.722240  0.106948  1
  H  H680  1  0.694991  0.722254  0.106981  1
  H  H681  1  0.972307  0.833392  0.134006  1
  H  H682  1  0.694833  0.833380  0.134029  1
  H  H683  1  0.694714  0.944507  0.160969  1
  H  H684  1  0.971668  0.944491  0.161007  1
  H  H685  1  0.305133  0.055543  0.624783  1
  H  H686  1  0.028367  0.055548  0.624841  1
  H  H687  1  0.027500  0.166595  0.651903  1
  H  H688  1  0.027969  0.277761  0.679157  1
  H  H689  1  0.304616  0.277874  0.678996  1
  H  H690  1  0.304745  0.166704  0.651818  1
  H  H691  1  0.638889  0.388654  0.625218  1
  H  H692  1  0.362133  0.388827  0.625284  1
  H  H693  1  0.361126  0.499935  0.651750  1
  H  H694  1  0.638945  0.499867  0.651762  1
  H  H695  1  0.361423  0.611138  0.678569  1
  H  H696  1  0.638298  0.611116  0.678569  1
  H  H697  1  0.971815  0.722240  0.624615  1
  H  H698  1  0.694991  0.722254  0.624649  1
  H  H699  1  0.972307  0.833392  0.651674  1
  H  H700  1  0.694833  0.833380  0.651697  1
  H  H701  1  0.694714  0.944507  0.678637  1
  H  H702  1  0.971668  0.944491  0.678675  1
