# generated using pymatgen
data_Si14H2O29
_symmetry_space_group_name_H-M   'P 1'
_cell_length_a   19.96193813
_cell_length_b   15.95154717
_cell_length_c   51.19931724
_cell_angle_alpha   57.66780087
_cell_angle_beta   90.00000000
_cell_angle_gamma   90.00000000
_symmetry_Int_Tables_number   1
_chemical_formula_structural   Si14H2O29
_chemical_formula_sum   'Si112 H16 O232'
_cell_volume   13775.4742409
_cell_formula_units_Z   8
loop_
 _symmetry_equiv_pos_site_id
 _symmetry_equiv_pos_as_xyz
  1  'x, y, z'
loop_
 _atom_site_type_symbol
 _atom_site_label
 _atom_site_symmetry_multiplicity
 _atom_site_fract_x
 _atom_site_fract_y
 _atom_site_fract_z
 _atom_site_occupancy
  O  O1  1  0.950859  0.349413  0.133155  1
  O  O2  1  0.351063  0.344862  0.133798  1
  O  O3  1  0.549663  0.349228  0.133214  1
  O  O4  1  0.149181  0.344923  0.133941  1
  O  O5  1  0.844177  0.640159  0.345597  1
  O  O6  1  0.750183  0.567247  0.329711  1
  O  O7  1  0.844925  0.665698  0.292554  1
  O  O8  1  0.849728  0.812807  0.336472  1
  O  O9  1  0.951752  0.701040  0.355830  1
  O  O10  1  0.851089  0.654941  0.150017  1
  O  O11  1  0.849585  0.834240  0.243382  1
  O  O12  1  0.847573  0.668407  0.242870  1
  O  O13  1  0.951094  0.719963  0.260835  1
  O  O14  1  0.750135  0.549544  0.181920  1
  O  O15  1  0.838590  0.590729  0.209115  1
  O  O16  1  0.749616  0.554383  0.249529  1
  O  O17  1  0.834319  0.899193  0.278377  1
  O  O18  1  0.750150  0.950439  0.235669  1
  O  O19  1  0.750141  0.931264  0.308745  1
  O  O20  1  0.998938  0.500858  0.262472  1
  O  O21  1  0.372314  0.523602  0.334810  1
  O  O22  1  0.655434  0.665513  0.292421  1
  O  O23  1  0.650351  0.813180  0.336417  1
  O  O24  1  0.548444  0.701081  0.355731  1
  O  O25  1  0.649204  0.654906  0.149857  1
  O  O26  1  0.650584  0.834446  0.243363  1
  O  O27  1  0.651968  0.669020  0.242618  1
  O  O28  1  0.548967  0.720309  0.260849  1
  O  O29  1  0.443888  0.664406  0.292042  1
  O  O30  1  0.499583  0.513789  0.336395  1
  O  O31  1  0.443201  0.638534  0.345644  1
  O  O32  1  0.450846  0.650356  0.150664  1
  O  O33  1  0.445846  0.581082  0.210547  1
  O  O34  1  0.665972  0.899356  0.278364  1
  O  O35  1  0.374593  0.978950  0.301751  1
  O  O36  1  0.374170  0.997174  0.227871  1
  O  O37  1  0.448263  0.836297  0.242669  1
  O  O38  1  0.448525  0.666109  0.242702  1
  O  O39  1  0.446745  0.813439  0.336340  1
  O  O40  1  0.500142  0.989379  0.300925  1
  O  O41  1  0.444056  0.906089  0.277079  1
  O  O42  1  0.374899  0.500906  0.188026  1
  O  O43  1  0.656200  0.640894  0.345334  1
  O  O44  1  0.661318  0.591349  0.208821  1
  O  O45  1  0.372978  0.512505  0.260028  1
  O  O46  1  0.127987  0.523773  0.334869  1
  O  O47  1  0.056285  0.664573  0.292019  1
  O  O48  1  0.000000  0.514233  0.336496  1
  O  O49  1  0.057181  0.639225  0.345540  1
  O  O50  1  0.049652  0.650573  0.150592  1
  O  O51  1  0.055700  0.582126  0.210295  1
  O  O52  1  0.125826  0.511517  0.260548  1
  O  O53  1  0.125670  0.978941  0.301717  1
  O  O54  1  0.126063  0.996909  0.227921  1
  O  O55  1  0.051608  0.836422  0.242633  1
  O  O56  1  0.051684  0.665991  0.242775  1
  O  O57  1  0.053236  0.813894  0.336304  1
  O  O58  1  0.055951  0.906244  0.277033  1
  O  O59  1  0.125516  0.500829  0.187902  1
  O  O60  1  0.000000  0.989872  0.300816  1
  O  O61  1  0.872322  0.476179  0.191502  1
  O  O62  1  0.943870  0.335398  0.234288  1
  O  O63  1  0.000000  0.485968  0.189921  1
  O  O64  1  0.943194  0.361162  0.180701  1
  O  O65  1  0.950859  0.349413  0.375669  1
  O  O66  1  0.945865  0.418644  0.315795  1
  O  O67  1  0.874885  0.498829  0.338309  1
  O  O68  1  0.874590  0.020753  0.224555  1
  O  O69  1  0.874167  0.002564  0.298437  1
  O  O70  1  0.948243  0.163450  0.283638  1
  O  O71  1  0.948588  0.333577  0.283646  1
  O  O72  1  0.946751  0.186290  0.189974  1
  O  O73  1  0.944027  0.093649  0.249226  1
  O  O74  1  0.872993  0.487139  0.266321  1
  O  O75  1  0.628005  0.476045  0.191442  1
  O  O76  1  0.344909  0.334043  0.233787  1
  O  O77  1  0.349759  0.186952  0.189842  1
  O  O78  1  0.451750  0.298793  0.170484  1
  O  O79  1  0.351063  0.344862  0.376313  1
  O  O80  1  0.349634  0.165452  0.282938  1
  O  O81  1  0.347577  0.331234  0.283485  1
  O  O82  1  0.451109  0.279818  0.265481  1
  O  O83  1  0.556316  0.335218  0.234300  1
  O  O84  1  0.500777  0.485561  0.189833  1
  O  O85  1  0.557187  0.360580  0.180780  1
  O  O86  1  0.549663  0.349228  0.375729  1
  O  O87  1  0.555736  0.417621  0.316032  1
  O  O88  1  0.625822  0.488244  0.265769  1
  O  O89  1  0.625663  0.020859  0.224585  1
  O  O90  1  0.626059  0.002893  0.298374  1
  O  O91  1  0.551600  0.163340  0.283678  1
  O  O92  1  0.551696  0.333755  0.283551  1
  O  O93  1  0.553223  0.185911  0.190007  1
  O  O94  1  0.498932  0.498872  0.263868  1
  O  O95  1  0.500092  0.009906  0.225481  1
  O  O96  1  0.555919  0.093532  0.249272  1
  O  O97  1  0.625513  0.498985  0.338416  1
  O  O98  1  0.344168  0.359564  0.180748  1
  O  O99  1  0.338565  0.408966  0.317229  1
  O  O100  1  0.334333  0.100547  0.247931  1
  O  O101  1  0.156209  0.358925  0.180980  1
  O  O102  1  0.250191  0.432545  0.196615  1
  O  O103  1  0.155437  0.334295  0.233894  1
  O  O104  1  0.150380  0.186636  0.189888  1
  O  O105  1  0.048452  0.298675  0.170604  1
  O  O106  1  0.149181  0.344923  0.376455  1
  O  O107  1  0.150625  0.165337  0.282942  1
  O  O108  1  0.151922  0.330729  0.283708  1
  O  O109  1  0.048969  0.279383  0.265461  1
  O  O110  1  0.250117  0.450264  0.344396  1
  O  O111  1  0.161298  0.408438  0.317498  1
  O  O112  1  0.249608  0.445282  0.276809  1
  O  O113  1  0.165987  0.100426  0.247938  1
  O  O114  1  0.250165  0.049315  0.290635  1
  O  O115  1  0.250150  0.068513  0.217556  1
  O  O116  1  -0.000000  0.010360  0.225386  1
  O  O117  1  0.844177  0.640159  0.588112  1
  O  O118  1  0.750183  0.567247  0.572225  1
  O  O119  1  0.844925  0.665698  0.535069  1
  O  O120  1  0.849728  0.812807  0.578986  1
  O  O121  1  0.951752  0.701040  0.598345  1
  O  O122  1  0.851089  0.654941  0.392532  1
  O  O123  1  0.849585  0.834240  0.485897  1
  O  O124  1  0.847573  0.668407  0.485384  1
  O  O125  1  0.951094  0.719963  0.503349  1
  O  O126  1  0.750135  0.549544  0.424435  1
  O  O127  1  0.838590  0.590729  0.451630  1
  O  O128  1  0.749616  0.554383  0.492043  1
  O  O129  1  0.834319  0.899193  0.520892  1
  O  O130  1  0.750150  0.950439  0.478184  1
  O  O131  1  0.750141  0.931264  0.551259  1
  O  O132  1  0.998938  0.500858  0.504987  1
  O  O133  1  0.372314  0.523602  0.577325  1
  O  O134  1  0.655434  0.665513  0.534936  1
  O  O135  1  0.650351  0.813180  0.578931  1
  O  O136  1  0.548444  0.701081  0.598245  1
  O  O137  1  0.649204  0.654906  0.392372  1
  O  O138  1  0.650584  0.834446  0.485877  1
  O  O139  1  0.651968  0.669020  0.485132  1
  O  O140  1  0.548967  0.720309  0.503364  1
  O  O141  1  0.443888  0.664406  0.534557  1
  O  O142  1  0.499583  0.513789  0.578910  1
  O  O143  1  0.443201  0.638534  0.588159  1
  O  O144  1  0.450846  0.650356  0.393178  1
  O  O145  1  0.445846  0.581082  0.453061  1
  O  O146  1  0.665972  0.899356  0.520879  1
  O  O147  1  0.374593  0.978950  0.544265  1
  O  O148  1  0.374170  0.997174  0.470386  1
  O  O149  1  0.448263  0.836297  0.485184  1
  O  O150  1  0.448525  0.666109  0.485216  1
  O  O151  1  0.446745  0.813439  0.578854  1
  O  O152  1  0.500142  0.989379  0.543440  1
  O  O153  1  0.444056  0.906089  0.519594  1
  O  O154  1  0.374899  0.500906  0.430541  1
  O  O155  1  0.656200  0.640894  0.587848  1
  O  O156  1  0.661318  0.591349  0.451336  1
  O  O157  1  0.372978  0.512505  0.502542  1
  O  O158  1  0.127987  0.523773  0.577383  1
  O  O159  1  0.056285  0.664573  0.534534  1
  O  O160  1  0.000000  0.514233  0.579011  1
  O  O161  1  0.057181  0.639225  0.588055  1
  O  O162  1  0.049652  0.650573  0.393107  1
  O  O163  1  0.055700  0.582126  0.452810  1
  O  O164  1  0.125826  0.511517  0.503063  1
  O  O165  1  0.125670  0.978941  0.544232  1
  O  O166  1  0.126063  0.996909  0.470435  1
  O  O167  1  0.051608  0.836422  0.485148  1
  O  O168  1  0.051684  0.665991  0.485289  1
  O  O169  1  0.053236  0.813894  0.578818  1
  O  O170  1  0.055951  0.906244  0.519548  1
  O  O171  1  0.125516  0.500829  0.430416  1
  O  O172  1  0.000000  0.989872  0.543331  1
  O  O173  1  0.872322  0.476179  0.434017  1
  O  O174  1  0.943870  0.335398  0.476803  1
  O  O175  1  -0.000000  0.485968  0.432435  1
  O  O176  1  0.943194  0.361162  0.423216  1
  O  O177  1  0.950859  0.349413  0.618184  1
  O  O178  1  0.945865  0.418644  0.558310  1
  O  O179  1  0.874885  0.498829  0.580823  1
  O  O180  1  0.874590  0.020753  0.467069  1
  O  O181  1  0.874167  0.002564  0.540951  1
  O  O182  1  0.948243  0.163450  0.526152  1
  O  O183  1  0.948588  0.333577  0.526161  1
  O  O184  1  0.946751  0.186290  0.432488  1
  O  O185  1  0.944027  0.093649  0.491740  1
  O  O186  1  0.872993  0.487139  0.508836  1
  O  O187  1  0.628005  0.476045  0.433957  1
  O  O188  1  0.344909  0.334043  0.476302  1
  O  O189  1  0.349759  0.186952  0.432357  1
  O  O190  1  0.451750  0.298793  0.412998  1
  O  O191  1  0.351063  0.344862  0.618827  1
  O  O192  1  0.349634  0.165452  0.525453  1
  O  O193  1  0.347577  0.331234  0.525999  1
  O  O194  1  0.451109  0.279818  0.507995  1
  O  O195  1  0.556316  0.335218  0.476815  1
  O  O196  1  0.500777  0.485561  0.432347  1
  O  O197  1  0.557187  0.360580  0.423294  1
  O  O198  1  0.549663  0.349228  0.618243  1
  O  O199  1  0.555736  0.417621  0.558547  1
  O  O200  1  0.625822  0.488244  0.508284  1
  O  O201  1  0.625663  0.020859  0.467100  1
  O  O202  1  0.626059  0.002893  0.540889  1
  O  O203  1  0.551600  0.163340  0.526193  1
  O  O204  1  0.551696  0.333755  0.526065  1
  O  O205  1  0.553223  0.185911  0.432521  1
  O  O206  1  0.498932  0.498872  0.506383  1
  O  O207  1  0.500092  0.009906  0.467996  1
  O  O208  1  0.555919  0.093532  0.491787  1
  O  O209  1  0.625513  0.498985  0.580930  1
  O  O210  1  0.344168  0.359564  0.423262  1
  O  O211  1  0.338565  0.408966  0.559744  1
  O  O212  1  0.334333  0.100547  0.490446  1
  O  O213  1  0.156209  0.358925  0.423495  1
  O  O214  1  0.250191  0.432545  0.439130  1
  O  O215  1  0.155437  0.334295  0.476409  1
  O  O216  1  0.150380  0.186636  0.432402  1
  O  O217  1  0.048452  0.298675  0.413118  1
  O  O218  1  0.149181  0.344923  0.618970  1
  O  O219  1  0.150625  0.165337  0.525457  1
  O  O220  1  0.151922  0.330729  0.526223  1
  O  O221  1  0.048969  0.279383  0.507976  1
  O  O222  1  0.250117  0.450264  0.586910  1
  O  O223  1  0.161298  0.408438  0.560013  1
  O  O224  1  0.249608  0.445282  0.519324  1
  O  O225  1  0.165987  0.100426  0.490452  1
  O  O226  1  0.250165  0.049315  0.533150  1
  O  O227  1  0.250150  0.068513  0.460070  1
  O  O228  1  -0.000000  0.010360  0.467901  1
  O  O229  1  0.851089  0.654941  0.635046  1
  O  O230  1  0.649204  0.654906  0.634886  1
  O  O231  1  0.450846  0.650356  0.635693  1
  O  O232  1  0.049652  0.650573  0.635621  1
  Si  Si233  1  0.827465  0.590294  0.327174  1
  Si  Si234  1  0.672929  0.590537  0.327068  1
  Si  Si235  1  0.673439  0.912586  0.306617  1
  Si  Si236  1  0.826805  0.912276  0.306653  1
  Si  Si237  1  0.673442  0.928531  0.243759  1
  Si  Si238  1  0.873982  0.702970  0.357982  1
  Si  Si239  1  0.873130  0.723441  0.258890  1
  Si  Si240  1  0.827305  0.568369  0.182952  1
  Si  Si241  1  0.672920  0.568422  0.182801  1
  Si  Si242  1  0.826881  0.574440  0.241985  1
  Si  Si243  1  0.672489  0.575048  0.241712  1
  Si  Si244  1  0.826847  0.928401  0.243769  1
  Si  Si245  1  0.440536  0.935376  0.242410  1
  Si  Si246  1  0.440369  0.918444  0.305544  1
  Si  Si247  1  0.626209  0.703239  0.357838  1
  Si  Si248  1  0.626913  0.723747  0.258814  1
  Si  Si249  1  0.438647  0.585413  0.327391  1
  Si  Si250  1  0.441992  0.557538  0.184551  1
  Si  Si251  1  0.470978  0.724813  0.258103  1
  Si  Si252  1  0.470579  0.702888  0.358046  1
  Si  Si253  1  0.440137  0.566493  0.243293  1
  Si  Si254  1  0.059758  0.918742  0.305471  1
  Si  Si255  1  0.061736  0.585817  0.327381  1
  Si  Si256  1  0.058630  0.557799  0.184461  1
  Si  Si257  1  0.029081  0.724854  0.258100  1
  Si  Si258  1  0.029623  0.703262  0.358018  1
  Si  Si259  1  0.059601  0.566647  0.243206  1
  Si  Si260  1  0.059513  0.935492  0.242367  1
  Si  Si261  1  0.940356  0.081275  0.220764  1
  Si  Si262  1  0.938648  0.414347  0.198935  1
  Si  Si263  1  0.941992  0.442222  0.341783  1
  Si  Si264  1  0.970983  0.274916  0.268222  1
  Si  Si265  1  0.970587  0.296851  0.168287  1
  Si  Si266  1  0.940166  0.433192  0.283054  1
  Si  Si267  1  0.940525  0.064378  0.283893  1
  Si  Si268  1  0.559495  0.064280  0.283939  1
  Si  Si269  1  0.559745  0.081047  0.220831  1
  Si  Si270  1  0.373980  0.296812  0.168344  1
  Si  Si271  1  0.373147  0.276259  0.267445  1
  Si  Si272  1  0.561756  0.413988  0.198939  1
  Si  Si273  1  0.558642  0.441987  0.341858  1
  Si  Si274  1  0.529096  0.274914  0.268217  1
  Si  Si275  1  0.529622  0.296551  0.168300  1
  Si  Si276  1  0.559611  0.433097  0.283121  1
  Si  Si277  1  0.173450  0.087205  0.219684  1
  Si  Si278  1  0.172934  0.409278  0.199248  1
  Si  Si279  1  0.326817  0.087474  0.219653  1
  Si  Si280  1  0.173461  0.071251  0.282543  1
  Si  Si281  1  0.327468  0.409453  0.199165  1
  Si  Si282  1  0.326866  0.071323  0.282540  1
  Si  Si283  1  0.126216  0.296571  0.168479  1
  Si  Si284  1  0.126914  0.276014  0.267501  1
  Si  Si285  1  0.327286  0.431410  0.343374  1
  Si  Si286  1  0.172902  0.431395  0.343512  1
  Si  Si287  1  0.326867  0.425207  0.284364  1
  Si  Si288  1  0.172472  0.424692  0.284614  1
  Si  Si289  1  0.827465  0.590294  0.569689  1
  Si  Si290  1  0.672929  0.590537  0.569582  1
  Si  Si291  1  0.673439  0.912586  0.549131  1
  Si  Si292  1  0.826805  0.912276  0.549168  1
  Si  Si293  1  0.673442  0.928531  0.486274  1
  Si  Si294  1  0.873982  0.702970  0.600497  1
  Si  Si295  1  0.873130  0.723441  0.501405  1
  Si  Si296  1  0.827305  0.568369  0.425466  1
  Si  Si297  1  0.672920  0.568422  0.425315  1
  Si  Si298  1  0.826881  0.574440  0.484500  1
  Si  Si299  1  0.672489  0.575048  0.484227  1
  Si  Si300  1  0.826847  0.928401  0.486284  1
  Si  Si301  1  0.440536  0.935376  0.484925  1
  Si  Si302  1  0.440369  0.918444  0.548059  1
  Si  Si303  1  0.626209  0.703239  0.600352  1
  Si  Si304  1  0.626913  0.723747  0.501328  1
  Si  Si305  1  0.438647  0.585413  0.569906  1
  Si  Si306  1  0.441992  0.557538  0.427065  1
  Si  Si307  1  0.470978  0.724813  0.500617  1
  Si  Si308  1  0.470579  0.702888  0.600561  1
  Si  Si309  1  0.440137  0.566493  0.485808  1
  Si  Si310  1  0.059758  0.918742  0.547986  1
  Si  Si311  1  0.061736  0.585817  0.569895  1
  Si  Si312  1  0.058630  0.557799  0.426976  1
  Si  Si313  1  0.029081  0.724854  0.500615  1
  Si  Si314  1  0.029623  0.703262  0.600533  1
  Si  Si315  1  0.059601  0.566647  0.485721  1
  Si  Si316  1  0.059513  0.935492  0.484881  1
  Si  Si317  1  0.940356  0.081275  0.463279  1
  Si  Si318  1  0.938648  0.414347  0.441449  1
  Si  Si319  1  0.941992  0.442222  0.584298  1
  Si  Si320  1  0.970983  0.274916  0.510737  1
  Si  Si321  1  0.970587  0.296851  0.410801  1
  Si  Si322  1  0.940166  0.433192  0.525568  1
  Si  Si323  1  0.940525  0.064378  0.526407  1
  Si  Si324  1  0.559495  0.064280  0.526453  1
  Si  Si325  1  0.559745  0.081047  0.463346  1
  Si  Si326  1  0.373980  0.296812  0.410859  1
  Si  Si327  1  0.373147  0.276259  0.509960  1
  Si  Si328  1  0.561756  0.413988  0.441453  1
  Si  Si329  1  0.558642  0.441987  0.584372  1
  Si  Si330  1  0.529096  0.274914  0.510732  1
  Si  Si331  1  0.529622  0.296551  0.410815  1
  Si  Si332  1  0.559611  0.433097  0.525635  1
  Si  Si333  1  0.173450  0.087205  0.462198  1
  Si  Si334  1  0.172934  0.409278  0.441763  1
  Si  Si335  1  0.326817  0.087474  0.462167  1
  Si  Si336  1  0.173461  0.071251  0.525057  1
  Si  Si337  1  0.327468  0.409453  0.441679  1
  Si  Si338  1  0.326866  0.071323  0.525055  1
  Si  Si339  1  0.126216  0.296571  0.410994  1
  Si  Si340  1  0.126914  0.276014  0.510016  1
  Si  Si341  1  0.327286  0.431410  0.585889  1
  Si  Si342  1  0.172902  0.431395  0.586027  1
  Si  Si343  1  0.326867  0.425207  0.526879  1
  Si  Si344  1  0.172472  0.424692  0.527128  1
  H  H345  1  0.950859  0.349413  0.115576  1
  H  H346  1  0.351063  0.344862  0.116220  1
  H  H347  1  0.549663  0.349228  0.115636  1
  H  H348  1  0.149181  0.344923  0.116363  1
  H  H349  1  0.851089  0.654941  0.132439  1
  H  H350  1  0.649204  0.654906  0.132279  1
  H  H351  1  0.450846  0.650356  0.133085  1
  H  H352  1  0.049652  0.650573  0.133014  1
  H  H353  1  0.950859  0.349413  0.635762  1
  H  H354  1  0.351063  0.344862  0.636406  1
  H  H355  1  0.549663  0.349228  0.635822  1
  H  H356  1  0.149181  0.344923  0.636548  1
  H  H357  1  0.851089  0.654941  0.652625  1
  H  H358  1  0.649204  0.654906  0.652465  1
  H  H359  1  0.450846  0.650356  0.653271  1
  H  H360  1  0.049652  0.650573  0.653199  1
