# generated using pymatgen
data_Si14H2O29
_symmetry_space_group_name_H-M   'P 1'
_cell_length_a   8.41979979
_cell_length_b   33.60885434
_cell_length_c   50.40194272
_cell_angle_alpha   59.66755629
_cell_angle_beta   90.00000000
_cell_angle_gamma   90.00000000
_symmetry_Int_Tables_number   1
_chemical_formula_structural   Si14H2O29
_chemical_formula_sum   'Si112 H16 O232'
_cell_volume   12310.3034658
_cell_formula_units_Z   8
loop_
 _symmetry_equiv_pos_site_id
 _symmetry_equiv_pos_as_xyz
  1  'x, y, z'
loop_
 _atom_site_type_symbol
 _atom_site_label
 _atom_site_symmetry_multiplicity
 _atom_site_fract_x
 _atom_site_fract_y
 _atom_site_fract_z
 _atom_site_occupancy
  O  O1  1  0.734077  0.667716  0.133418  1
  O  O2  1  0.266058  0.667716  0.133419  1
  O  O3  1  0.743085  0.166309  0.132793  1
  O  O4  1  0.257047  0.166309  0.132793  1
  O  O5  1  -0.000000  0.861582  0.606150  1
  O  O6  1  0.742235  0.997213  0.543967  1
  O  O7  1  0.257897  0.997213  0.543966  1
  O  O8  1  0.500067  0.947049  0.548011  1
  O  O9  1  -0.000000  0.790743  0.240549  1
  O  O10  1  0.786274  0.245810  0.430807  1
  O  O11  1  0.786275  0.754139  0.339320  1
  O  O12  1  0.213858  0.754139  0.339321  1
  O  O13  1  0.213858  0.245810  0.430807  1
  O  O14  1  0.783540  0.828465  0.344433  1
  O  O15  1  0.216592  0.828466  0.344433  1
  O  O16  1  0.723124  0.833304  0.292193  1
  O  O17  1  0.277008  0.833303  0.292193  1
  O  O18  1  -0.000000  0.814631  0.315632  1
  O  O19  1  0.762203  0.942789  0.281392  1
  O  O20  1  0.237931  0.942790  0.281391  1
  O  O21  1  -0.000000  0.955872  0.246992  1
  O  O22  1  0.761500  0.837170  0.241260  1
  O  O23  1  0.238633  0.837169  0.241260  1
  O  O24  1  0.500067  0.864044  0.252936  1
  O  O25  1  0.500066  0.802756  0.180984  1
  O  O26  1  0.750838  0.912372  0.245114  1
  O  O27  1  0.249295  0.912372  0.245114  1
  O  O28  1  0.737878  0.248586  0.507900  1
  O  O29  1  0.737876  0.751363  0.262227  1
  O  O30  1  0.262256  0.751363  0.262228  1
  O  O31  1  0.262256  0.248586  0.507900  1
  O  O32  1  0.743084  0.833640  0.145850  1
  O  O33  1  0.257046  0.833640  0.145850  1
  O  O34  1  0.743326  0.906271  0.582497  1
  O  O35  1  0.256806  0.906271  0.582497  1
  O  O36  1  0.766280  0.803783  0.204578  1
  O  O37  1  0.233855  0.803782  0.204579  1
  O  O38  1  0.764437  0.253231  0.339968  1
  O  O39  1  0.764436  0.746714  0.430159  1
  O  O40  1  0.235698  0.746716  0.430160  1
  O  O41  1  0.235697  0.253231  0.339968  1
  O  O42  1  0.785463  0.826512  0.589601  1
  O  O43  1  0.214673  0.826513  0.589601  1
  O  O44  1  0.731418  0.831863  0.537875  1
  O  O45  1  0.268713  0.831862  0.537874  1
  O  O46  1  -0.000000  0.804775  0.564007  1
  O  O47  1  0.764557  0.941672  0.525358  1
  O  O48  1  0.235577  0.941671  0.525359  1
  O  O49  1  -0.000000  0.953660  0.490642  1
  O  O50  1  0.759312  0.834552  0.487288  1
  O  O51  1  0.240828  0.834552  0.487285  1
  O  O52  1  0.500064  0.859704  0.500635  1
  O  O53  1  -0.000000  0.800101  0.475369  1
  O  O54  1  0.500066  0.786565  0.424657  1
  O  O55  1  -0.000000  0.862038  0.362086  1
  O  O56  1  0.500067  0.949001  0.304258  1
  O  O57  1  0.741925  0.832709  0.393046  1
  O  O58  1  0.258211  0.832709  0.393045  1
  O  O59  1  0.743885  0.907622  0.338563  1
  O  O60  1  0.256247  0.907622  0.338563  1
  O  O61  1  0.783559  0.252137  0.260819  1
  O  O62  1  0.783556  0.747813  0.509307  1
  O  O63  1  0.216576  0.747812  0.509308  1
  O  O64  1  0.216575  0.252137  0.260818  1
  O  O65  1  0.732710  0.799485  0.451792  1
  O  O66  1  0.267424  0.799482  0.451793  1
  O  O67  1  0.747693  0.910320  0.489988  1
  O  O68  1  0.252438  0.910320  0.489987  1
  O  O69  1  0.760051  0.332434  0.391196  1
  O  O70  1  0.760053  0.667515  0.378931  1
  O  O71  1  0.240082  0.667516  0.378932  1
  O  O72  1  0.240083  0.332434  0.391196  1
  O  O73  1  0.736325  0.406427  0.337160  1
  O  O74  1  0.736326  0.593520  0.432967  1
  O  O75  1  0.263806  0.593522  0.432967  1
  O  O76  1  0.263808  0.406427  0.337160  1
  O  O77  1  0.500066  0.352694  0.361306  1
  O  O78  1  0.500065  0.647253  0.408821  1
  O  O79  1  -0.000000  0.448048  0.314435  1
  O  O80  1  -0.000000  0.551900  0.455693  1
  O  O81  1  0.733740  0.301644  0.450023  1
  O  O82  1  0.733741  0.698306  0.320103  1
  O  O83  1  0.266396  0.698305  0.320104  1
  O  O84  1  0.266394  0.301644  0.450023  1
  O  O85  1  0.500067  0.299580  0.483137  1
  O  O86  1  0.500067  0.700369  0.286991  1
  O  O87  1  0.769964  0.675184  0.180513  1
  O  O88  1  0.769965  0.324764  0.589615  1
  O  O89  1  0.230170  0.324765  0.589614  1
  O  O90  1  0.230168  0.675184  0.180513  1
  O  O91  1  0.500066  0.688721  0.197315  1
  O  O92  1  0.500067  0.311228  0.572812  1
  O  O93  1  0.764480  0.589735  0.279331  1
  O  O94  1  0.764480  0.410214  0.490796  1
  O  O95  1  0.235654  0.410213  0.490797  1
  O  O96  1  0.235655  0.589735  0.279331  1
  O  O97  1  0.500066  0.548752  0.282952  1
  O  O98  1  0.500066  0.451196  0.487176  1
  O  O99  1  -0.000000  0.645949  0.260585  1
  O  O100  1  -0.000000  0.353999  0.509543  1
  O  O101  1  -0.000000  0.300861  0.426712  1
  O  O102  1  -0.000000  0.699089  0.343414  1
  O  O103  1  0.715388  0.748061  0.185271  1
  O  O104  1  0.715387  0.251888  0.584856  1
  O  O105  1  0.284746  0.251888  0.584857  1
  O  O106  1  0.284746  0.748061  0.185271  1
  O  O107  1  0.736732  0.668878  0.232770  1
  O  O108  1  0.736731  0.331072  0.537357  1
  O  O109  1  0.263401  0.331070  0.537357  1
  O  O110  1  0.263402  0.668878  0.232770  1
  O  O111  1  0.709626  0.556394  0.245167  1
  O  O112  1  0.709626  0.443555  0.524961  1
  O  O113  1  0.290506  0.443555  0.524961  1
  O  O114  1  0.290507  0.556394  0.245167  1
  O  O115  1  0.760562  0.665117  0.283559  1
  O  O116  1  0.760561  0.334832  0.486569  1
  O  O117  1  0.239572  0.334832  0.486569  1
  O  O118  1  0.239571  0.665117  0.283559  1
  O  O119  1  0.750436  0.498202  0.300768  1
  O  O120  1  0.750435  0.501746  0.469359  1
  O  O121  1  0.249698  0.501747  0.469359  1
  O  O122  1  0.249698  0.498202  0.300768  1
  O  O123  1  0.757630  0.752684  0.585549  1
  O  O124  1  0.757630  0.247264  0.184579  1
  O  O125  1  0.242504  0.247264  0.184579  1
  O  O126  1  0.242505  0.752684  0.585549  1
  O  O127  1  0.737555  0.327023  0.343166  1
  O  O128  1  0.737559  0.672920  0.426964  1
  O  O129  1  0.262576  0.672926  0.426961  1
  O  O130  1  0.262576  0.327022  0.343167  1
  O  O131  1  0.765949  0.331544  0.291578  1
  O  O132  1  0.765950  0.668408  0.478550  1
  O  O133  1  0.234183  0.668405  0.478550  1
  O  O134  1  0.234184  0.331544  0.291578  1
  O  O135  1  -0.000000  0.307196  0.328022  1
  O  O136  1  -0.000000  0.692753  0.442105  1
  O  O137  1  0.790883  0.444783  0.280045  1
  O  O138  1  0.790881  0.555166  0.490082  1
  O  O139  1  0.209250  0.555166  0.490082  1
  O  O140  1  0.209251  0.444783  0.280045  1
  O  O141  1  -0.000000  0.452168  0.242230  1
  O  O142  1  -0.000000  0.547781  0.527897  1
  O  O143  1  0.739829  0.337898  0.240031  1
  O  O144  1  0.739828  0.662052  0.530096  1
  O  O145  1  0.260302  0.662052  0.530095  1
  O  O146  1  0.260304  0.337897  0.240032  1
  O  O147  1  0.500067  0.354806  0.264334  1
  O  O148  1  0.500069  0.645144  0.505793  1
  O  O149  1  -0.000000  0.308265  0.229980  1
  O  O150  1  -0.000000  0.691684  0.540147  1
  O  O151  1  0.500067  0.711286  0.589278  1
  O  O152  1  0.500067  0.288663  0.180850  1
  O  O153  1  -0.000000  0.647550  0.161666  1
  O  O154  1  -0.000000  0.352399  0.608461  1
  O  O155  1  0.749858  0.502932  0.224481  1
  O  O156  1  0.749858  0.497017  0.545646  1
  O  O157  1  0.250276  0.497017  0.545646  1
  O  O158  1  0.250275  0.502932  0.224482  1
  O  O159  1  0.500066  0.553096  0.210887  1
  O  O160  1  0.500067  0.446854  0.559240  1
  O  O161  1  0.734077  0.667716  0.624903  1
  O  O162  1  0.734078  0.332233  0.145224  1
  O  O163  1  0.266057  0.332233  0.145224  1
  O  O164  1  0.266058  0.667716  0.624903  1
  O  O165  1  0.763683  0.594528  0.187931  1
  O  O166  1  0.763682  0.405420  0.582196  1
  O  O167  1  0.236452  0.405421  0.582196  1
  O  O168  1  0.236450  0.594528  0.187931  1
  O  O169  1  0.747385  0.695435  0.566908  1
  O  O170  1  0.747386  0.304514  0.203219  1
  O  O171  1  0.252747  0.304514  0.203218  1
  O  O172  1  0.252745  0.695435  0.566908  1
  O  O173  1  0.734281  0.411542  0.245930  1
  O  O174  1  0.734283  0.588408  0.524197  1
  O  O175  1  0.265854  0.588407  0.524198  1
  O  O176  1  0.265852  0.411542  0.245929  1
  O  O177  1  0.743071  0.998633  0.299989  1
  O  O178  1  0.257062  0.998634  0.299988  1
  O  O179  1  0.500067  0.213383  0.345471  1
  O  O180  1  -0.000000  0.209206  0.529579  1
  O  O181  1  0.500066  0.197193  0.589143  1
  O  O182  1  0.000000  0.199847  0.294758  1
  O  O183  1  0.732708  0.200467  0.318336  1
  O  O184  1  0.267426  0.200467  0.318336  1
  O  O185  1  -0.000000  0.195174  0.206121  1
  O  O186  1  0.743071  0.001316  0.470138  1
  O  O187  1  0.257063  0.001315  0.470139  1
  O  O188  1  0.783540  0.171484  0.425694  1
  O  O189  1  0.216593  0.171484  0.425694  1
  O  O190  1  -0.000000  0.185318  0.454495  1
  O  O191  1  0.761499  0.162779  0.528868  1
  O  O192  1  0.238633  0.162780  0.528867  1
  O  O193  1  0.743085  0.166309  0.624277  1
  O  O194  1  0.257047  0.166309  0.624277  1
  O  O195  1  0.766279  0.196168  0.565548  1
  O  O196  1  0.233854  0.196167  0.565548  1
  O  O197  1  0.785463  0.173435  0.180528  1
  O  O198  1  0.214671  0.173436  0.180527  1
  O  O199  1  0.731421  0.168087  0.232253  1
  O  O200  1  0.268712  0.168087  0.232253  1
  O  O201  1  0.759303  0.165397  0.282842  1
  O  O202  1  0.240830  0.165396  0.282842  1
  O  O203  1  0.723124  0.166646  0.477934  1
  O  O204  1  0.277010  0.166646  0.477934  1
  O  O205  1  0.741925  0.167240  0.377083  1
  O  O206  1  0.258208  0.167240  0.377083  1
  O  O207  1  -0.000000  0.138367  0.163977  1
  O  O208  1  0.742236  0.002736  0.226161  1
  O  O209  1  0.257898  0.002737  0.226161  1
  O  O210  1  0.500067  0.052900  0.222117  1
  O  O211  1  0.762202  0.057160  0.488736  1
  O  O212  1  0.237931  0.057159  0.488736  1
  O  O213  1  -0.000000  0.044077  0.523136  1
  O  O214  1  0.500067  0.135905  0.517192  1
  O  O215  1  0.750839  0.087577  0.525014  1
  O  O216  1  0.249295  0.087578  0.525013  1
  O  O217  1  0.743327  0.093678  0.187631  1
  O  O218  1  0.256808  0.093678  0.187631  1
  O  O219  1  0.764557  0.058277  0.244770  1
  O  O220  1  0.235575  0.058278  0.244769  1
  O  O221  1  -0.000000  0.046289  0.279487  1
  O  O222  1  0.500067  0.140245  0.269492  1
  O  O223  1  -0.000000  0.137910  0.408042  1
  O  O224  1  0.500066  0.050948  0.465869  1
  O  O225  1  0.743885  0.092327  0.431565  1
  O  O226  1  0.256248  0.092327  0.431565  1
  O  O227  1  0.747694  0.089629  0.280140  1
  O  O228  1  0.252441  0.089629  0.280140  1
  O  O229  1  0.743084  0.833640  0.637335  1
  O  O230  1  0.257046  0.833640  0.637335  1
  O  O231  1  0.734078  0.332233  0.636709  1
  O  O232  1  0.266057  0.332233  0.636708  1
  Si  Si233  1  0.683897  0.862388  0.257050  1
  Si  Si234  1  0.316237  0.862388  0.257050  1
  Si  Si235  1  0.816372  0.796484  0.236629  1
  Si  Si236  1  0.183761  0.796484  0.236630  1
  Si  Si237  1  0.684166  0.859667  0.503217  1
  Si  Si238  1  0.315964  0.859666  0.503216  1
  Si  Si239  1  0.683745  0.792090  0.424702  1
  Si  Si240  1  0.316392  0.792089  0.424703  1
  Si  Si241  1  0.683773  0.355011  0.358527  1
  Si  Si242  1  0.683770  0.644935  0.411600  1
  Si  Si243  1  0.316362  0.644937  0.411600  1
  Si  Si244  1  0.316362  0.355011  0.358527  1
  Si  Si245  1  0.683908  0.296697  0.481380  1
  Si  Si246  1  0.683907  0.703253  0.288747  1
  Si  Si247  1  0.316227  0.703252  0.288748  1
  Si  Si248  1  0.316227  0.296697  0.481380  1
  Si  Si249  1  0.816591  0.641635  0.265017  1
  Si  Si250  1  0.816591  0.358314  0.505110  1
  Si  Si251  1  0.183543  0.358314  0.505110  1
  Si  Si252  1  0.183543  0.641635  0.265017  1
  Si  Si253  1  0.815965  0.304548  0.325963  1
  Si  Si254  1  0.815958  0.695403  0.444162  1
  Si  Si255  1  0.184171  0.695403  0.444164  1
  Si  Si256  1  0.184169  0.304548  0.325963  1
  Si  Si257  1  0.683651  0.359654  0.259614  1
  Si  Si258  1  0.683652  0.640296  0.510513  1
  Si  Si259  1  0.316484  0.640296  0.510513  1
  Si  Si260  1  0.316484  0.359654  0.259614  1
  Si  Si261  1  0.816433  0.645660  0.165689  1
  Si  Si262  1  0.816433  0.354289  0.604438  1
  Si  Si263  1  0.183700  0.354289  0.604439  1
  Si  Si264  1  0.183700  0.645660  0.165689  1
  Si  Si265  1  0.683988  0.706068  0.591764  1
  Si  Si266  1  0.683988  0.293880  0.178364  1
  Si  Si267  1  0.316145  0.293880  0.178364  1
  Si  Si268  1  0.316146  0.706068  0.591764  1
  Si  Si269  1  0.684873  0.947916  0.551082  1
  Si  Si270  1  0.315260  0.947915  0.551083  1
  Si  Si271  1  0.814790  0.953460  0.248654  1
  Si  Si272  1  0.185343  0.953461  0.248653  1
  Si  Si273  1  0.683489  0.798201  0.178848  1
  Si  Si274  1  0.316644  0.798201  0.178849  1
  Si  Si275  1  0.816396  0.857246  0.604388  1
  Si  Si276  1  0.183737  0.857246  0.604388  1
  Si  Si277  1  0.816667  0.803706  0.569523  1
  Si  Si278  1  0.183469  0.803706  0.569523  1
  Si  Si279  1  0.684874  0.949380  0.307184  1
  Si  Si280  1  0.315260  0.949380  0.307183  1
  Si  Si281  1  0.815893  0.858193  0.359993  1
  Si  Si282  1  0.184240  0.858194  0.359992  1
  Si  Si283  1  0.816563  0.796340  0.480457  1
  Si  Si284  1  0.183565  0.796338  0.480457  1
  Si  Si285  1  0.814802  0.951955  0.492609  1
  Si  Si286  1  0.185334  0.951954  0.492609  1
  Si  Si287  1  0.816737  0.296194  0.424308  1
  Si  Si288  1  0.816738  0.703755  0.345819  1
  Si  Si289  1  0.183398  0.703755  0.345819  1
  Si  Si290  1  0.183397  0.296194  0.424308  1
  Si  Si291  1  0.683404  0.695345  0.198539  1
  Si  Si292  1  0.683404  0.304604  0.571588  1
  Si  Si293  1  0.316730  0.304604  0.571588  1
  Si  Si294  1  0.316730  0.695345  0.198539  1
  Si  Si295  1  0.816077  0.698304  0.537205  1
  Si  Si296  1  0.816079  0.301647  0.232921  1
  Si  Si297  1  0.184055  0.301647  0.232921  1
  Si  Si298  1  0.184054  0.698302  0.537206  1
  Si  Si299  1  0.817430  0.807619  0.323187  1
  Si  Si300  1  0.182703  0.807619  0.323187  1
  Si  Si301  1  0.683601  0.548082  0.278455  1
  Si  Si302  1  0.683600  0.451867  0.491672  1
  Si  Si303  1  0.316531  0.451867  0.491672  1
  Si  Si304  1  0.316532  0.548082  0.278455  1
  Si  Si305  1  0.816780  0.449271  0.309247  1
  Si  Si306  1  0.816780  0.550677  0.460881  1
  Si  Si307  1  0.183354  0.550678  0.460880  1
  Si  Si308  1  0.183354  0.449271  0.309247  1
  Si  Si309  1  0.683474  0.551885  0.215979  1
  Si  Si310  1  0.683475  0.448065  0.554148  1
  Si  Si311  1  0.316660  0.448064  0.554148  1
  Si  Si312  1  0.316658  0.551885  0.215979  1
  Si  Si313  1  0.816570  0.453013  0.246787  1
  Si  Si314  1  0.816570  0.546936  0.523341  1
  Si  Si315  1  0.183564  0.546936  0.523341  1
  Si  Si316  1  0.183564  0.453013  0.246787  1
  Si  Si317  1  0.683750  0.207861  0.345424  1
  Si  Si318  1  0.316383  0.207861  0.345424  1
  Si  Si319  1  0.816372  0.203466  0.533498  1
  Si  Si320  1  0.183761  0.203466  0.533498  1
  Si  Si321  1  0.683489  0.201748  0.591279  1
  Si  Si322  1  0.316644  0.201748  0.591279  1
  Si  Si323  1  0.816665  0.196243  0.200604  1
  Si  Si324  1  0.183468  0.196243  0.200604  1
  Si  Si325  1  0.816570  0.203611  0.289669  1
  Si  Si326  1  0.183563  0.203611  0.289668  1
  Si  Si327  1  0.817430  0.192330  0.446940  1
  Si  Si328  1  0.182702  0.192330  0.446940  1
  Si  Si329  1  0.683897  0.137561  0.513077  1
  Si  Si330  1  0.316237  0.137561  0.513077  1
  Si  Si331  1  0.684167  0.140283  0.266911  1
  Si  Si332  1  0.315966  0.140283  0.266911  1
  Si  Si333  1  0.684873  0.052034  0.219045  1
  Si  Si334  1  0.315260  0.052034  0.219045  1
  Si  Si335  1  0.814791  0.046489  0.521474  1
  Si  Si336  1  0.185343  0.046489  0.521474  1
  Si  Si337  1  0.816397  0.142702  0.165740  1
  Si  Si338  1  0.183737  0.142703  0.165739  1
  Si  Si339  1  0.684873  0.050569  0.462944  1
  Si  Si340  1  0.315260  0.050569  0.462944  1
  Si  Si341  1  0.815894  0.141755  0.410135  1
  Si  Si342  1  0.184240  0.141755  0.410135  1
  Si  Si343  1  0.814800  0.047995  0.277519  1
  Si  Si344  1  0.185332  0.047995  0.277519  1
  H  H345  1  0.734077  0.667716  0.115562  1
  H  H346  1  0.266058  0.667716  0.115562  1
  H  H347  1  0.743085  0.166309  0.114936  1
  H  H348  1  0.257047  0.166309  0.114936  1
  H  H349  1  0.743084  0.833640  0.127993  1
  H  H350  1  0.257046  0.833640  0.127994  1
  H  H351  1  0.734077  0.667716  0.642759  1
  H  H352  1  0.734078  0.332233  0.127368  1
  H  H353  1  0.266057  0.332233  0.127367  1
  H  H354  1  0.266058  0.667716  0.642760  1
  H  H355  1  0.743085  0.166309  0.642134  1
  H  H356  1  0.257047  0.166309  0.642134  1
  H  H357  1  0.743084  0.833640  0.655191  1
  H  H358  1  0.257046  0.833640  0.655191  1
  H  H359  1  0.734078  0.332233  0.654565  1
  H  H360  1  0.266057  0.332233  0.654565  1
