# generated using pymatgen
data_Si18H2O37
_symmetry_space_group_name_H-M   'P 1'
_cell_length_a   17.25289407
_cell_length_b   17.25278161
_cell_length_c   54.77843132
_cell_angle_alpha   90.00000000
_cell_angle_beta   90.00000000
_cell_angle_gamma   120.00000000
_symmetry_Int_Tables_number   1
_chemical_formula_structural   Si18H2O37
_chemical_formula_sum   'Si108 H12 O222'
_cell_volume   14120.8650878
_cell_formula_units_Z   6
loop_
 _symmetry_equiv_pos_site_id
 _symmetry_equiv_pos_as_xyz
  1  'x, y, z'
loop_
 _atom_site_type_symbol
 _atom_site_label
 _atom_site_symmetry_multiplicity
 _atom_site_fract_x
 _atom_site_fract_y
 _atom_site_fract_z
 _atom_site_occupancy
  O  O1  1  0.242447  0.484856  0.189047  1
  O  O2  1  0.100609  0.413726  0.107721  1
  O  O3  1  0.313249  0.413779  0.107720  1
  O  O4  1  0.353471  0.433930  0.203679  1
  O  O5  1  0.080477  0.433859  0.203703  1
  O  O6  1  0.128514  0.461758  0.155710  1
  O  O7  1  0.333356  0.461863  0.155703  1
  O  O8  1  0.343097  0.457072  0.250167  1
  O  O9  1  0.114124  0.457085  0.250180  1
  O  O10  1  0.258817  0.030173  0.269223  1
  O  O11  1  0.970093  0.228459  0.269259  1
  O  O12  1  0.258822  0.228460  0.269255  1
  O  O13  1  0.771900  0.030070  0.269265  1
  O  O14  1  0.663946  0.041262  0.238350  1
  O  O15  1  0.377419  0.336181  0.238375  1
  O  O16  1  0.958891  0.336173  0.238426  1
  O  O17  1  0.377389  0.041151  0.238314  1
  O  O18  1  0.811026  0.189074  0.256572  1
  O  O19  1  0.378544  0.189244  0.256517  1
  O  O20  1  0.237412  0.474596  0.280893  1
  O  O21  1  0.666987  0.082585  0.282200  1
  O  O22  1  0.416433  0.082810  0.282106  1
  O  O23  1  0.416338  0.333488  0.282197  1
  O  O24  1  0.091256  0.181152  0.375368  1
  O  O25  1  0.182649  0.090891  0.442070  1
  O  O26  1  0.909566  0.090928  0.442058  1
  O  O27  1  0.157790  0.078253  0.378745  1
  O  O28  1  0.921851  0.078352  0.378712  1
  O  O29  1  0.079005  0.156719  0.438743  1
  O  O30  1  0.253753  0.020225  0.360705  1
  O  O31  1  0.980606  0.232656  0.360736  1
  O  O32  1  0.253250  0.232572  0.360730  1
  O  O33  1  0.767604  0.020132  0.360751  1
  O  O34  1  0.233221  0.252767  0.456700  1
  O  O35  1  0.020715  0.252818  0.456668  1
  O  O36  1  -0.000000  0.204632  0.408703  1
  O  O37  1  0.205284  0.204598  0.408720  1
  O  O38  1  0.192461  0.096016  0.533939  1
  O  O39  1  0.210041  0.219246  0.503187  1
  O  O40  1  0.010078  0.219251  0.503152  1
  O  O41  1  0.219714  0.009737  0.314227  1
  O  O42  1  0.990720  0.209641  0.314246  1
  O  O43  1  0.219553  0.209595  0.314243  1
  O  O44  1  0.790742  0.009820  0.314277  1
  O  O45  1  0.076331  0.151872  0.530877  1
  O  O46  1  0.152203  0.075951  0.286534  1
  O  O47  1  0.924343  0.075998  0.286545  1
  O  O48  1  0.363636  0.438291  0.295161  1
  O  O49  1  0.074953  0.438249  0.295181  1
  O  O50  1  0.438522  0.074645  0.522334  1
  O  O51  1  0.925303  0.363298  0.522286  1
  O  O52  1  0.636860  0.074819  0.522326  1
  O  O53  1  0.438492  0.363444  0.522286  1
  O  O54  1  0.375071  0.044244  0.325936  1
  O  O55  1  0.956465  0.330529  0.326086  1
  O  O56  1  0.374752  0.330599  0.326017  1
  O  O57  1  0.669979  0.044290  0.326053  1
  O  O58  1  0.330871  0.374439  0.491402  1
  O  O59  1  0.044434  0.374466  0.491366  1
  O  O60  1  0.904334  0.096003  0.533878  1
  O  O61  1  0.096325  0.192101  0.283504  1
  O  O62  1  0.522705  0.477703  0.307886  1
  O  O63  1  0.522921  0.045057  0.307792  1
  O  O64  1  0.955232  0.477471  0.307901  1
  O  O65  1  0.320182  0.159979  0.333574  1
  O  O66  1  0.840656  0.159994  0.333699  1
  O  O67  1  0.160323  0.319691  0.483790  1
  O  O68  1  0.917426  0.333235  0.282272  1
  O  O69  1  0.082786  0.415872  0.535210  1
  O  O70  1  0.333591  0.416083  0.535212  1
  O  O71  1  0.484980  0.242461  0.628418  1
  O  O72  1  0.757785  0.242424  0.628407  1
  O  O73  1  0.848555  0.424255  0.695085  1
  O  O74  1  0.575805  0.424258  0.695088  1
  O  O75  1  0.575908  0.151580  0.695106  1
  O  O76  1  0.588383  0.176440  0.631753  1
  O  O77  1  0.823773  0.411803  0.631737  1
  O  O78  1  0.588245  0.411830  0.631748  1
  O  O79  1  0.745195  0.490294  0.691753  1
  O  O80  1  0.509794  0.254880  0.691766  1
  O  O81  1  0.745293  0.254884  0.691755  1
  O  O82  1  0.434110  0.080498  0.613802  1
  O  O83  1  0.919762  0.353479  0.613772  1
  O  O84  1  0.646693  0.080432  0.613799  1
  O  O85  1  0.434016  0.353447  0.613758  1
  O  O86  1  0.413882  0.313206  0.709737  1
  O  O87  1  0.686921  0.100622  0.709732  1
  O  O88  1  0.413929  0.100595  0.709740  1
  O  O89  1  0.899536  0.313300  0.709734  1
  O  O90  1  0.462047  0.128593  0.661765  1
  O  O91  1  0.871630  0.333375  0.661747  1
  O  O92  1  0.666814  0.128573  0.661758  1
  O  O93  1  0.461919  0.333328  0.661751  1
  O  O94  1  0.457204  0.113962  0.567319  1
  O  O95  1  0.886241  0.343029  0.567296  1
  O  O96  1  0.657137  0.113928  0.567326  1
  O  O97  1  0.457225  0.342980  0.567281  1
  O  O98  1  0.590904  0.181360  0.539621  1
  O  O99  1  0.818778  0.409233  0.539588  1
  O  O100  1  0.590897  0.409227  0.539573  1
  O  O101  1  0.228712  0.258573  0.548176  1
  O  O102  1  0.030400  0.258438  0.548151  1
  O  O103  1  0.041501  0.377502  0.579067  1
  O  O104  1  0.336322  0.377347  0.579037  1
  O  O105  1  0.762910  0.237227  0.536621  1
  O  O106  1  0.474745  0.237196  0.536578  1
  O  O107  1  0.189329  0.378307  0.560848  1
  O  O108  1  0.986597  0.493229  0.586690  1
  O  O109  1  0.506934  0.493178  0.586649  1
  O  O110  1  0.506939  0.013527  0.586712  1
  O  O111  1  0.151476  0.575641  0.122369  1
  O  O112  1  0.424264  0.575720  0.122363  1
  O  O113  1  0.424283  0.848368  0.122347  1
  O  O114  1  0.515328  0.757564  0.189047  1
  O  O115  1  0.242443  0.757441  0.189034  1
  O  O116  1  0.254849  0.509639  0.125699  1
  O  O117  1  0.490379  0.745093  0.125701  1
  O  O118  1  0.254859  0.745022  0.125685  1
  O  O119  1  0.411881  0.823500  0.185698  1
  O  O120  1  0.176291  0.588072  0.185710  1
  O  O121  1  0.411889  0.588186  0.185713  1
  O  O122  1  0.586223  0.686703  0.107723  1
  O  O123  1  0.313257  0.899300  0.107707  1
  O  O124  1  0.586252  0.899348  0.107717  1
  O  O125  1  0.100614  0.686695  0.107718  1
  O  O126  1  0.566177  0.919536  0.203663  1
  O  O127  1  0.080465  0.646500  0.203694  1
  O  O128  1  0.353516  0.919421  0.203642  1
  O  O129  1  0.566183  0.646476  0.203688  1
  O  O130  1  0.538199  0.666588  0.155708  1
  O  O131  1  0.333367  0.871308  0.155683  1
  O  O132  1  0.538202  0.871411  0.155697  1
  O  O133  1  0.128522  0.666589  0.155703  1
  O  O134  1  0.543102  0.886044  0.250135  1
  O  O135  1  0.114097  0.656981  0.250170  1
  O  O136  1  0.343105  0.885937  0.250126  1
  O  O137  1  0.543087  0.656931  0.250166  1
  O  O138  1  0.409435  0.818606  0.277834  1
  O  O139  1  0.181549  0.590741  0.277881  1
  O  O140  1  0.409417  0.590721  0.277871  1
  O  O141  1  0.771837  0.741548  0.269310  1
  O  O142  1  0.970027  0.741407  0.269276  1
  O  O143  1  0.958879  0.622626  0.238418  1
  O  O144  1  0.663876  0.622460  0.238399  1
  O  O145  1  0.810908  0.621680  0.256613  1
  O  O146  1  0.013622  0.506769  0.230801  1
  O  O147  1  0.493248  0.506732  0.230773  1
  O  O148  1  0.493303  0.986431  0.230739  1
  O  O149  1  0.525559  0.762731  0.280842  1
  O  O150  1  0.237432  0.762769  0.280871  1
  O  O151  1  0.818630  0.909107  0.375390  1
  O  O152  1  0.091917  0.908994  0.375403  1
  O  O153  1  0.909926  0.818574  0.442083  1
  O  O154  1  0.922398  0.843391  0.378708  1
  O  O155  1  0.843562  0.921623  0.438745  1
  O  O156  1  0.079339  0.921599  0.438719  1
  O  O157  1  0.767931  0.747235  0.360787  1
  O  O158  1  0.980403  0.747217  0.360750  1
  O  O159  1  0.747587  0.979885  0.456723  1
  O  O160  1  0.020635  0.767313  0.456725  1
  O  O161  1  0.747860  0.767320  0.456711  1
  O  O162  1  0.233390  0.979779  0.456771  1
  O  O163  1  0.796052  0.795393  0.408735  1
  O  O164  1  -0.000000  0.795291  0.408730  1
  O  O165  1  0.096346  0.903954  0.283524  1
  O  O166  1  0.781039  0.990199  0.503199  1
  O  O167  1  0.009987  0.790343  0.503214  1
  O  O168  1  0.781153  0.790346  0.503207  1
  O  O169  1  0.209987  0.990200  0.503245  1
  O  O170  1  0.790737  0.780718  0.314308  1
  O  O171  1  0.990683  0.780761  0.314264  1
  O  O172  1  0.848439  0.923974  0.530921  1
  O  O173  1  0.076292  0.923989  0.530939  1
  O  O174  1  0.924346  0.848118  0.286575  1
  O  O175  1  0.561943  0.925141  0.295140  1
  O  O176  1  0.074933  0.636531  0.295165  1
  O  O177  1  0.363783  0.925341  0.295102  1
  O  O178  1  0.561877  0.636665  0.295179  1
  O  O179  1  0.636798  0.561734  0.522280  1
  O  O180  1  0.925415  0.561657  0.522288  1
  O  O181  1  0.669858  0.625523  0.326101  1
  O  O182  1  0.956334  0.625533  0.326053  1
  O  O183  1  0.625798  0.955736  0.491414  1
  O  O184  1  0.044211  0.669372  0.491433  1
  O  O185  1  0.625985  0.669473  0.491385  1
  O  O186  1  0.330854  0.955772  0.491500  1
  O  O187  1  0.666807  0.584116  0.282257  1
  O  O188  1  0.205818  0.000000  0.408748  1
  O  O189  1  0.477850  0.522511  0.509563  1
  O  O190  1  0.477934  0.954930  0.509646  1
  O  O191  1  0.045082  0.522262  0.509567  1
  O  O192  1  0.840540  0.680297  0.333664  1
  O  O193  1  0.680737  0.840027  0.483780  1
  O  O194  1  0.160223  0.839995  0.483872  1
  O  O195  1  0.904278  0.807835  0.533955  1
  O  O196  1  0.808196  0.903979  0.283596  1
  O  O197  1  0.584275  0.666735  0.535201  1
  O  O198  1  0.917393  0.583895  0.282242  1
  O  O199  1  0.795586  0.000000  0.408736  1
  O  O200  1  0.757629  0.515086  0.628407  1
  O  O201  1  0.646656  0.566062  0.613757  1
  O  O202  1  0.919607  0.566056  0.613772  1
  O  O203  1  0.899432  0.586162  0.709737  1
  O  O204  1  0.686826  0.586170  0.709737  1
  O  O205  1  0.666746  0.538152  0.661747  1
  O  O206  1  0.871519  0.538120  0.661748  1
  O  O207  1  0.762901  0.525362  0.536562  1
  O  O208  1  0.657136  0.542874  0.567278  1
  O  O209  1  0.886122  0.542895  0.567286  1
  O  O210  1  0.741917  0.969907  0.548205  1
  O  O211  1  0.030436  0.771473  0.548200  1
  O  O212  1  0.741721  0.771515  0.548200  1
  O  O213  1  0.228712  0.969767  0.548237  1
  O  O214  1  0.336351  0.958782  0.579120  1
  O  O215  1  0.622830  0.663802  0.579041  1
  O  O216  1  0.041343  0.663770  0.579076  1
  O  O217  1  0.622760  0.958702  0.579113  1
  O  O218  1  0.333700  0.917165  0.535319  1
  O  O219  1  0.082922  0.666457  0.535251  1
  O  O220  1  0.584462  0.917375  0.535263  1
  O  O221  1  0.189403  0.810688  0.560917  1
  O  O222  1  0.622046  0.810903  0.560896  1
  Si  Si223  1  0.154807  0.488644  0.276573  1
  Si  Si224  1  0.334055  0.488630  0.276567  1
  Si  Si225  1  0.391162  0.430541  0.229856  1
  Si  Si226  1  0.039462  0.430530  0.229888  1
  Si  Si227  1  0.154453  0.487522  0.127810  1
  Si  Si228  1  0.333175  0.487589  0.127802  1
  Si  Si229  1  0.333538  0.487821  0.183601  1
  Si  Si230  1  0.154257  0.487707  0.183610  1
  Si  Si231  1  0.731237  0.089985  0.260437  1
  Si  Si232  1  0.359389  0.269099  0.260458  1
  Si  Si233  1  0.910012  0.268983  0.260500  1
  Si  Si234  1  0.359345  0.090191  0.260397  1
  Si  Si235  1  0.822261  0.000000  0.287889  1
  Si  Si236  1  0.821457  0.000000  0.380831  1
  Si  Si237  1  0.178966  0.000000  0.287841  1
  Si  Si238  1  -0.000000  0.178096  0.287840  1
  Si  Si239  1  0.178913  0.178039  0.287846  1
  Si  Si240  1  -0.000000  0.178611  0.380807  1
  Si  Si241  1  0.179552  0.178529  0.380826  1
  Si  Si242  1  0.179427  0.178883  0.436626  1
  Si  Si243  1  -0.000000  0.178917  0.436609  1
  Si  Si244  1  0.423926  0.025946  0.303856  1
  Si  Si245  1  0.974419  0.397614  0.304005  1
  Si  Si246  1  0.423713  0.397801  0.303949  1
  Si  Si247  1  0.602712  0.025742  0.303959  1
  Si  Si248  1  0.397986  0.423486  0.513481  1
  Si  Si249  1  0.025873  0.423208  0.513451  1
  Si  Si250  1  0.294245  0.236147  0.334529  1
  Si  Si251  1  0.764299  0.057964  0.334586  1
  Si  Si252  1  0.942761  0.236153  0.334589  1
  Si  Si253  1  0.294469  0.057934  0.334496  1
  Si  Si254  1  0.058261  0.293896  0.482854  1
  Si  Si255  1  0.236541  0.293826  0.482876  1
  Si  Si256  1  0.178430  0.178623  0.529587  1
  Si  Si257  1  -0.000000  0.178602  0.529545  1
  Si  Si258  1  0.180055  0.000000  0.380841  1
  Si  Si259  1  0.488805  0.333866  0.540890  1
  Si  Si260  1  0.487996  0.154365  0.633868  1
  Si  Si261  1  0.845905  0.333532  0.633844  1
  Si  Si262  1  0.666672  0.154326  0.633858  1
  Si  Si263  1  0.487867  0.333521  0.633851  1
  Si  Si264  1  0.487683  0.333163  0.689650  1
  Si  Si265  1  0.666976  0.154505  0.689655  1
  Si  Si266  1  0.487760  0.154508  0.689665  1
  Si  Si267  1  0.845667  0.333203  0.689643  1
  Si  Si268  1  0.090254  0.359031  0.556968  1
  Si  Si269  1  0.269203  0.359155  0.556951  1
  Si  Si270  1  0.430682  0.391108  0.587570  1
  Si  Si271  1  0.608994  0.039302  0.587627  1
  Si  Si272  1  0.430716  0.039387  0.587630  1
  Si  Si273  1  0.960863  0.391182  0.587597  1
  Si  Si274  1  0.488804  0.154603  0.540921  1
  Si  Si275  1  0.845523  0.333885  0.540912  1
  Si  Si276  1  0.666264  0.154629  0.540939  1
  Si  Si277  1  0.512428  0.666771  0.127810  1
  Si  Si278  1  0.333188  0.845402  0.127783  1
  Si  Si279  1  0.512440  0.845472  0.127800  1
  Si  Si280  1  0.154463  0.666744  0.127804  1
  Si  Si281  1  0.512296  0.845652  0.183597  1
  Si  Si282  1  0.154248  0.666395  0.183604  1
  Si  Si283  1  0.333547  0.845541  0.183580  1
  Si  Si284  1  0.512304  0.666439  0.183610  1
  Si  Si285  1  0.909936  0.640824  0.260502  1
  Si  Si286  1  0.731106  0.640950  0.260497  1
  Si  Si287  1  0.569561  0.608779  0.229866  1
  Si  Si288  1  0.391204  0.960546  0.229812  1
  Si  Si289  1  0.569583  0.960660  0.229834  1
  Si  Si290  1  0.039447  0.608846  0.229881  1
  Si  Si291  1  0.511528  0.845340  0.276523  1
  Si  Si292  1  0.154818  0.666102  0.276561  1
  Si  Si293  1  0.334087  0.845353  0.276524  1
  Si  Si294  1  0.511509  0.666070  0.276551  1
  Si  Si295  1  -0.000000  0.821361  0.287864  1
  Si  Si296  1  0.179755  0.000000  0.436640  1
  Si  Si297  1  0.821676  0.821872  0.529615  1
  Si  Si298  1  0.821946  0.821165  0.380833  1
  Si  Si299  1  -0.000000  0.821108  0.380828  1
  Si  Si300  1  0.822259  0.821387  0.287913  1
  Si  Si301  1  -0.000000  0.821290  0.436628  1
  Si  Si302  1  0.821687  0.821315  0.436638  1
  Si  Si303  1  0.178391  0.000000  0.529633  1
  Si  Si304  1  0.602548  0.576769  0.304015  1
  Si  Si305  1  0.974387  0.576490  0.303972  1
  Si  Si306  1  0.577026  0.974226  0.513505  1
  Si  Si307  1  0.025980  0.602158  0.513497  1
  Si  Si308  1  0.576888  0.602370  0.513464  1
  Si  Si309  1  0.398047  0.974050  0.513570  1
  Si  Si310  1  0.942629  0.706168  0.334575  1
  Si  Si311  1  0.764279  0.706089  0.334604  1
  Si  Si312  1  0.706641  0.763844  0.482875  1
  Si  Si313  1  0.236523  0.942046  0.482964  1
  Si  Si314  1  0.058118  0.763804  0.482923  1
  Si  Si315  1  0.706456  0.942073  0.482888  1
  Si  Si316  1  0.821724  0.000000  0.529588  1
  Si  Si317  1  -0.000000  0.821896  0.529615  1
  Si  Si318  1  0.821397  0.000000  0.436634  1
  Si  Si319  1  0.960708  0.569425  0.587599  1
  Si  Si320  1  0.845508  0.511325  0.540887  1
  Si  Si321  1  0.666254  0.511323  0.540885  1
  Si  Si322  1  0.609015  0.569423  0.587570  1
  Si  Si323  1  0.666573  0.512201  0.633848  1
  Si  Si324  1  0.845778  0.512164  0.633849  1
  Si  Si325  1  0.845582  0.512377  0.689647  1
  Si  Si326  1  0.666896  0.512385  0.689647  1
  Si  Si327  1  0.269249  0.909743  0.557036  1
  Si  Si328  1  0.641130  0.730998  0.556969  1
  Si  Si329  1  0.090381  0.730844  0.556992  1
  Si  Si330  1  0.641327  0.909983  0.557024  1
  H  H331  1  0.100609  0.413726  0.091291  1
  H  H332  1  0.313249  0.413779  0.091290  1
  H  H333  1  0.413882  0.313206  0.726167  1
  H  H334  1  0.686921  0.100622  0.726162  1
  H  H335  1  0.413929  0.100595  0.726170  1
  H  H336  1  0.899536  0.313300  0.726164  1
  H  H337  1  0.586223  0.686703  0.091294  1
  H  H338  1  0.313257  0.899300  0.091277  1
  H  H339  1  0.586252  0.899348  0.091287  1
  H  H340  1  0.100614  0.686695  0.091288  1
  H  H341  1  0.899432  0.586162  0.726167  1
  H  H342  1  0.686826  0.586170  0.726167  1
