# generated using pymatgen
data_Si8H2O17
_symmetry_space_group_name_H-M   'P 1'
_cell_length_a   8.29678981
_cell_length_b   31.32088306
_cell_length_c   40.02571200
_cell_angle_alpha   117.84520996
_cell_angle_beta   90.00000000
_cell_angle_gamma   90.00000000
_symmetry_Int_Tables_number   1
_chemical_formula_structural   Si8H2O17
_chemical_formula_sum   'Si64 H16 O136'
_cell_volume   9196.86679435
_cell_formula_units_Z   8
loop_
 _symmetry_equiv_pos_site_id
 _symmetry_equiv_pos_as_xyz
  1  'x, y, z'
loop_
 _atom_site_type_symbol
 _atom_site_label
 _atom_site_symmetry_multiplicity
 _atom_site_fract_x
 _atom_site_fract_y
 _atom_site_fract_z
 _atom_site_occupancy
  O  O1  1  0.249931  0.795071  0.283793  1
  O  O2  1  0.749946  0.295071  0.283805  1
  O  O3  1  0.749940  0.795070  0.283793  1
  O  O4  1  0.249912  0.295072  0.283805  1
  O  O5  1  0.230270  0.820226  0.232449  1
  O  O6  1  0.730228  0.320225  0.232460  1
  O  O7  1  0.769525  0.320221  0.353541  1
  O  O8  1  0.269569  0.820219  0.353529  1
  O  O9  1  0.769601  0.820226  0.232449  1
  O  O10  1  0.269630  0.320226  0.232461  1
  O  O11  1  0.230334  0.320222  0.353541  1
  O  O12  1  0.730301  0.820219  0.353529  1
  O  O13  1  0.257832  0.730761  0.216777  1
  O  O14  1  0.757837  0.230761  0.216791  1
  O  O15  1  0.742079  0.230756  0.303799  1
  O  O16  1  0.242074  0.730755  0.303786  1
  O  O17  1  0.742038  0.730760  0.216777  1
  O  O18  1  0.242022  0.230762  0.216791  1
  O  O19  1  0.257778  0.230756  0.303799  1
  O  O20  1  0.757798  0.730755  0.303786  1
  O  O21  1  0.499935  0.788038  0.243467  1
  O  O22  1  0.000000  0.288046  0.243474  1
  O  O23  1  0.499929  0.288011  0.318973  1
  O  O24  1  0.000000  0.788019  0.318972  1
  O  O25  1  0.755249  0.355584  0.188178  1
  O  O26  1  0.255332  0.855583  0.188165  1
  O  O27  1  0.755254  0.644533  0.163763  1
  O  O28  1  0.255327  0.144535  0.163777  1
  O  O29  1  0.244479  0.144533  0.293780  1
  O  O30  1  0.744400  0.644532  0.293766  1
  O  O31  1  0.244617  0.644533  0.163763  1
  O  O32  1  0.744531  0.144534  0.163777  1
  O  O33  1  0.244610  0.355585  0.188178  1
  O  O34  1  0.744539  0.855582  0.188164  1
  O  O35  1  0.755380  0.144533  0.293780  1
  O  O36  1  0.255470  0.644533  0.293767  1
  O  O37  1  0.750028  0.665472  0.236415  1
  O  O38  1  0.249976  0.165473  0.236430  1
  O  O39  1  0.249844  0.665472  0.236415  1
  O  O40  1  0.749882  0.165473  0.236430  1
  O  O41  1  -0.000000  0.682991  0.207433  1
  O  O42  1  0.499929  0.183004  0.207471  1
  O  O43  1  0.000000  0.182982  0.278169  1
  O  O44  1  0.499936  0.682994  0.278139  1
  O  O45  1  0.499930  0.370797  0.228064  1
  O  O46  1  -0.000000  0.870752  0.228007  1
  O  O47  1  0.499929  0.129409  0.322532  1
  O  O48  1  0.000000  0.629456  0.322507  1
  O  O49  1  0.240664  0.410511  0.262699  1
  O  O50  1  0.740842  0.910521  0.262693  1
  O  O51  1  0.758884  0.089594  0.328149  1
  O  O52  1  0.258698  0.589580  0.328134  1
  O  O53  1  0.759198  0.410510  0.262699  1
  O  O54  1  0.259025  0.910521  0.262693  1
  O  O55  1  0.240976  0.089594  0.328149  1
  O  O56  1  0.741172  0.589580  0.328134  1
  O  O57  1  0.249175  0.434741  0.334852  1
  O  O58  1  0.749717  0.934739  0.334845  1
  O  O59  1  0.750687  0.434740  0.334851  1
  O  O60  1  0.250150  0.934740  0.334846  1
  O  O61  1  0.499933  0.551289  0.343629  1
  O  O62  1  0.000000  0.050959  0.343389  1
  O  O63  1  0.499933  0.949418  0.306168  1
  O  O64  1  0.000000  0.449743  0.306160  1
  O  O65  1  0.251017  0.500042  0.314977  1
  O  O66  1  0.750239  -0.000000  0.314981  1
  O  O67  1  0.748846  0.500041  0.314977  1
  O  O68  1  0.249626  -0.000000  0.314981  1
  O  O69  1  0.249935  0.205047  0.433652  1
  O  O70  1  0.749953  0.705046  0.433639  1
  O  O71  1  0.749923  0.205046  0.433651  1
  O  O72  1  0.249917  0.705046  0.433639  1
  O  O73  1  0.230261  0.179891  0.484996  1
  O  O74  1  0.730235  0.679891  0.484983  1
  O  O75  1  0.769530  0.679895  0.363902  1
  O  O76  1  0.269561  0.179898  0.363915  1
  O  O77  1  0.769597  0.179891  0.484996  1
  O  O78  1  0.269637  0.679892  0.484983  1
  O  O79  1  0.230340  0.679896  0.363902  1
  O  O80  1  0.730298  0.179898  0.363916  1
  O  O81  1  0.257820  0.269357  0.500668  1
  O  O82  1  0.757842  0.769356  0.500654  1
  O  O83  1  0.742086  0.769361  0.413645  1
  O  O84  1  0.242060  0.269362  0.413659  1
  O  O85  1  0.742039  0.269357  0.500668  1
  O  O86  1  0.242028  0.769356  0.500654  1
  O  O87  1  0.257786  0.769361  0.413645  1
  O  O88  1  0.757797  0.269361  0.413658  1
  O  O89  1  0.499929  0.212082  0.473982  1
  O  O90  1  0.000000  0.712071  0.473970  1
  O  O91  1  0.499936  0.712106  0.398471  1
  O  O92  1  0.000000  0.212096  0.398475  1
  O  O93  1  0.755249  0.355584  0.553680  1
  O  O94  1  0.255332  0.855583  0.553667  1
  O  O95  1  0.755254  0.644533  0.529266  1
  O  O96  1  0.255327  0.144535  0.529280  1
  O  O97  1  0.244484  0.855584  0.423664  1
  O  O98  1  0.744395  0.355584  0.423677  1
  O  O99  1  0.244617  0.644533  0.529266  1
  O  O100  1  0.744531  0.144534  0.529279  1
  O  O101  1  0.244610  0.355585  0.553681  1
  O  O102  1  0.744539  0.855582  0.553667  1
  O  O103  1  0.755386  0.855584  0.423665  1
  O  O104  1  0.255464  0.355584  0.423677  1
  O  O105  1  0.750012  0.334645  0.481029  1
  O  O106  1  0.249983  0.834644  0.481014  1
  O  O107  1  0.249846  0.334645  0.481029  1
  O  O108  1  0.749888  0.834644  0.481014  1
  O  O109  1  0.000000  0.317129  0.510010  1
  O  O110  1  0.499935  0.817114  0.509974  1
  O  O111  1  0.000000  0.817135  0.439276  1
  O  O112  1  0.499929  0.317120  0.439301  1
  O  O113  1  0.499935  0.629320  0.489380  1
  O  O114  1  0.000000  0.129364  0.489437  1
  O  O115  1  0.499935  0.870709  0.394913  1
  O  O116  1  0.000000  0.370662  0.394937  1
  O  O117  1  0.240665  0.589607  0.454745  1
  O  O118  1  0.740839  0.089596  0.454751  1
  O  O119  1  0.758889  0.910523  0.389295  1
  O  O120  1  0.258694  0.410537  0.389310  1
  O  O121  1  0.759202  0.589606  0.454744  1
  O  O122  1  0.259022  0.089596  0.454751  1
  O  O123  1  0.240980  0.910523  0.389295  1
  O  O124  1  0.741165  0.410537  0.389310  1
  O  O125  1  0.249178  0.565377  0.382593  1
  O  O126  1  0.749715  0.065377  0.382598  1
  O  O127  1  0.750688  0.565376  0.382592  1
  O  O128  1  0.250148  0.065378  0.382599  1
  O  O129  1  0.499931  0.448828  0.373814  1
  O  O130  1  -0.000000  0.949159  0.374055  1
  O  O131  1  0.499931  0.050699  0.411276  1
  O  O132  1  0.000000  0.550374  0.411283  1
  O  O133  1  0.251018  0.500076  0.402467  1
  O  O134  1  0.750238  -0.000000  0.402463  1
  O  O135  1  0.748848  0.500076  0.402467  1
  O  O136  1  0.249625  -0.000000  0.402464  1
  Si  Si137  1  0.311972  0.783891  0.243564  1
  Si  Si138  1  0.811966  0.283894  0.243575  1
  Si  Si139  1  0.687894  0.283884  0.315857  1
  Si  Si140  1  0.187900  0.783885  0.315848  1
  Si  Si141  1  0.687899  0.783891  0.243564  1
  Si  Si142  1  0.187892  0.283894  0.243574  1
  Si  Si143  1  0.311964  0.283884  0.315857  1
  Si  Si144  1  0.811971  0.783885  0.315848  1
  Si  Si145  1  0.812359  0.679126  0.205368  1
  Si  Si146  1  0.312355  0.179130  0.205388  1
  Si  Si147  1  0.187503  0.179121  0.277446  1
  Si  Si148  1  0.687506  0.679123  0.277428  1
  Si  Si149  1  0.187512  0.679126  0.205368  1
  Si  Si150  1  0.687503  0.179130  0.205389  1
  Si  Si151  1  0.812355  0.179120  0.277446  1
  Si  Si152  1  0.312365  0.679123  0.277428  1
  Si  Si153  1  0.313241  0.365753  0.227959  1
  Si  Si154  1  0.813245  0.865744  0.227938  1
  Si  Si155  1  0.686619  0.134387  0.326128  1
  Si  Si156  1  0.186626  0.634396  0.326113  1
  Si  Si157  1  0.686618  0.365753  0.227959  1
  Si  Si158  1  0.186625  0.865744  0.227938  1
  Si  Si159  1  0.313240  0.134388  0.326129  1
  Si  Si160  1  0.813244  0.634395  0.326113  1
  Si  Si161  1  0.313013  0.552476  0.341808  1
  Si  Si162  1  0.813008  0.052415  0.341762  1
  Si  Si163  1  0.686858  0.947753  0.303480  1
  Si  Si164  1  0.186858  0.447815  0.303479  1
  Si  Si165  1  0.686853  0.552476  0.341808  1
  Si  Si166  1  0.186854  0.052415  0.341762  1
  Si  Si167  1  0.313008  0.947753  0.303480  1
  Si  Si168  1  0.813005  0.447815  0.303479  1
  Si  Si169  1  0.311966  0.216227  0.473882  1
  Si  Si170  1  0.811973  0.716223  0.473870  1
  Si  Si171  1  0.687900  0.716233  0.401586  1
  Si  Si172  1  0.187893  0.216231  0.401597  1
  Si  Si173  1  0.687892  0.216227  0.473882  1
  Si  Si174  1  0.187898  0.716224  0.473870  1
  Si  Si175  1  0.311971  0.716233  0.401586  1
  Si  Si176  1  0.811965  0.216231  0.401597  1
  Si  Si177  1  0.812353  0.320992  0.512076  1
  Si  Si178  1  0.312361  0.820988  0.512056  1
  Si  Si179  1  0.187509  0.820997  0.439998  1
  Si  Si180  1  0.687500  0.320993  0.440015  1
  Si  Si181  1  0.187506  0.320992  0.512076  1
  Si  Si182  1  0.687509  0.820987  0.512056  1
  Si  Si183  1  0.812362  0.820996  0.439998  1
  Si  Si184  1  0.312358  0.320993  0.440015  1
  Si  Si185  1  0.313246  0.634364  0.489485  1
  Si  Si186  1  0.813240  0.134373  0.489506  1
  Si  Si187  1  0.686625  0.865729  0.391315  1
  Si  Si188  1  0.186620  0.365722  0.391331  1
  Si  Si189  1  0.686624  0.634364  0.489485  1
  Si  Si190  1  0.186619  0.134373  0.489506  1
  Si  Si191  1  0.313245  0.865730  0.391316  1
  Si  Si192  1  0.813239  0.365722  0.391331  1
  Si  Si193  1  0.313012  0.447641  0.375636  1
  Si  Si194  1  0.813010  0.947702  0.375682  1
  Si  Si195  1  0.686856  0.052364  0.413964  1
  Si  Si196  1  0.186860  0.552302  0.413965  1
  Si  Si197  1  0.686851  0.447641  0.375636  1
  Si  Si198  1  0.186856  0.947702  0.375682  1
  Si  Si199  1  0.313006  0.052364  0.413964  1
  Si  Si200  1  0.813007  0.552302  0.413965  1
  H  H201  1  0.755249  0.355584  0.165692  1
  H  H202  1  0.255332  0.855583  0.165679  1
  H  H203  1  0.755254  0.644533  0.141278  1
  H  H204  1  0.255327  0.144535  0.141292  1
  H  H205  1  0.244617  0.644533  0.141278  1
  H  H206  1  0.744531  0.144534  0.141291  1
  H  H207  1  0.244610  0.355585  0.165693  1
  H  H208  1  0.744539  0.855582  0.165679  1
  H  H209  1  0.755249  0.355584  0.576166  1
  H  H210  1  0.255332  0.855583  0.576153  1
  H  H211  1  0.755254  0.644533  0.551751  1
  H  H212  1  0.255327  0.144535  0.551765  1
  H  H213  1  0.244617  0.644533  0.551751  1
  H  H214  1  0.744531  0.144534  0.551765  1
  H  H215  1  0.244610  0.355585  0.576166  1
  H  H216  1  0.744539  0.855582  0.576152  1
