# generated using pymatgen
data_Si8H2O17
_symmetry_space_group_name_H-M   'P 1'
_cell_length_a   27.63734077
_cell_length_b   26.13931827
_cell_length_c   48.56922975
_cell_angle_alpha   45.00033254
_cell_angle_beta   90.00000000
_cell_angle_gamma   90.00000000
_symmetry_Int_Tables_number   1
_chemical_formula_structural   Si8H2O17
_chemical_formula_sum   'Si128 H32 O272'
_cell_volume   24810.7132333
_cell_formula_units_Z   16
loop_
 _symmetry_equiv_pos_site_id
 _symmetry_equiv_pos_as_xyz
  1  'x, y, z'
loop_
 _atom_site_type_symbol
 _atom_site_label
 _atom_site_symmetry_multiplicity
 _atom_site_fract_x
 _atom_site_fract_y
 _atom_site_fract_z
 _atom_site_occupancy
  O  O1  1  0.935664  0.632786  0.164142  1
  O  O2  1  0.435667  0.867276  0.164134  1
  O  O3  1  0.251687  0.863204  0.164118  1
  O  O4  1  0.248251  0.636922  0.164119  1
  O  O5  1  0.064279  0.632814  0.164126  1
  O  O6  1  0.564279  0.132782  0.164144  1
  O  O7  1  0.435665  0.132801  0.164127  1
  O  O8  1  0.251689  0.136919  0.164119  1
  O  O9  1  0.248263  0.363206  0.164117  1
  O  O10  1  0.064280  0.367287  0.164132  1
  O  O11  1  0.812361  0.405167  0.289791  1
  O  O12  1  0.812346  0.735308  0.491257  1
  O  O13  1  0.812351  0.594856  0.217604  1
  O  O14  1  0.812361  0.264709  0.289791  1
  O  O15  1  0.687608  0.094858  0.419072  1
  O  O16  1  0.687595  0.764707  0.217604  1
  O  O17  1  0.687599  0.905171  0.491259  1
  O  O18  1  0.687608  0.235308  0.419070  1
  O  O19  1  0.723679  0.404042  0.301996  1
  O  O20  1  0.723664  0.766255  0.479909  1
  O  O21  1  0.723669  0.595972  0.228955  1
  O  O22  1  0.723677  0.233765  0.301996  1
  O  O23  1  0.776290  0.095978  0.406866  1
  O  O24  1  0.776279  0.733765  0.228955  1
  O  O25  1  0.776279  0.904045  0.479908  1
  O  O26  1  0.776292  0.266256  0.406867  1
  O  O27  1  0.757211  0.500007  0.233172  1
  O  O28  1  0.742752  0.000000  0.475692  1
  O  O29  1  0.751703  0.363148  0.268320  1
  O  O30  1  0.751689  0.636867  0.164155  1
  O  O31  1  0.748270  0.136871  0.440544  1
  O  O32  1  0.748257  0.863150  0.164157  1
  O  O33  1  0.904731  0.400316  0.301280  1
  O  O34  1  0.904717  0.760670  0.483452  1
  O  O35  1  0.904721  0.599724  0.225393  1
  O  O36  1  0.904732  0.239361  0.301284  1
  O  O37  1  0.935668  0.367255  0.265192  1
  O  O38  1  0.935664  0.632786  0.544695  1
  O  O39  1  0.939053  0.500022  0.233366  1
  O  O40  1  0.000000  0.723560  0.495031  1
  O  O41  1  0.939060  0.318106  0.233374  1
  O  O42  1  0.851672  0.500015  0.283442  1
  O  O43  1  0.851653  0.813480  0.425414  1
  O  O44  1  0.836395  0.137343  0.351465  1
  O  O45  1  0.836387  0.629559  0.252866  1
  O  O46  1  0.836380  0.862675  0.455994  1
  O  O47  1  0.836398  0.370468  0.351466  1
  O  O48  1  0.805679  0.000000  0.408803  1
  O  O49  1  0.694278  0.500007  0.300060  1
  O  O50  1  0.694261  0.857132  0.408805  1
  O  O51  1  0.749986  0.395799  0.354432  1
  O  O52  1  0.749970  0.895801  0.433746  1
  O  O53  1  0.749976  0.604222  0.275114  1
  O  O54  1  0.749981  0.104223  0.354430  1
  O  O55  1  0.939056  0.681941  0.475468  1
  O  O56  1  0.757195  0.681372  0.475690  1
  O  O57  1  0.851672  0.186544  0.283442  1
  O  O58  1  0.694271  0.142892  0.300057  1
  O  O59  1  0.757211  0.318648  0.233173  1
  O  O60  1  -0.000000  0.593060  0.213793  1
  O  O61  1  -0.000000  0.407009  0.284595  1
  O  O62  1  0.000000  0.276510  0.284603  1
  O  O63  1  0.595236  0.099722  0.407574  1
  O  O64  1  0.595224  0.739361  0.225398  1
  O  O65  1  0.595227  0.900316  0.483457  1
  O  O66  1  0.595235  0.260664  0.407569  1
  O  O67  1  0.404738  0.099744  0.407550  1
  O  O68  1  0.404713  0.739397  0.225376  1
  O  O69  1  0.404725  0.900339  0.483436  1
  O  O70  1  0.404728  0.260702  0.407544  1
  O  O71  1  0.564283  0.132781  0.443658  1
  O  O72  1  0.564280  0.867253  0.164151  1
  O  O73  1  0.435668  0.132807  0.443638  1
  O  O74  1  0.435667  0.867276  0.544688  1
  O  O75  1  0.560894  0.000000  0.475480  1
  O  O76  1  0.439058  0.000000  0.475464  1
  O  O77  1  0.499983  0.093054  0.424236  1
  O  O78  1  0.499971  0.776504  0.213799  1
  O  O79  1  0.499975  0.907003  0.495037  1
  O  O80  1  0.499978  0.223554  0.424227  1
  O  O81  1  0.648290  0.000000  0.425417  1
  O  O82  1  0.351676  0.000000  0.425386  1
  O  O83  1  0.663574  0.362673  0.357395  1
  O  O84  1  0.663562  0.870466  0.455996  1
  O  O85  1  0.663562  0.637341  0.252869  1
  O  O86  1  0.663571  0.129561  0.357396  1
  O  O87  1  0.336391  0.362727  0.357363  1
  O  O88  1  0.336390  0.870505  0.455963  1
  O  O89  1  0.336372  0.637396  0.252835  1
  O  O90  1  0.336406  0.129601  0.357362  1
  O  O91  1  0.351671  0.313522  0.425386  1
  O  O92  1  0.351647  0.686594  0.283412  1
  O  O93  1  0.439055  0.181958  0.475455  1
  O  O94  1  0.312340  0.764764  0.217570  1
  O  O95  1  0.312368  0.094899  0.419038  1
  O  O96  1  0.312358  0.235361  0.419036  1
  O  O97  1  0.312354  0.905209  0.491225  1
  O  O98  1  0.187593  0.735367  0.491223  1
  O  O99  1  0.187605  0.405211  0.289757  1
  O  O100  1  0.187618  0.264769  0.289755  1
  O  O101  1  0.187591  0.594899  0.217571  1
  O  O102  1  0.223657  0.733818  0.228917  1
  O  O103  1  0.223688  0.096028  0.406830  1
  O  O104  1  0.223673  0.266299  0.406834  1
  O  O105  1  0.223672  0.904100  0.479870  1
  O  O106  1  0.276279  0.766302  0.479874  1
  O  O107  1  0.276286  0.404096  0.301962  1
  O  O108  1  0.276302  0.233820  0.301959  1
  O  O109  1  0.276271  0.596027  0.228921  1
  O  O110  1  0.257216  0.000000  0.475655  1
  O  O111  1  0.242746  0.500061  0.233136  1
  O  O112  1  0.251687  0.863204  0.544671  1
  O  O113  1  0.251705  0.136919  0.440508  1
  O  O114  1  0.248251  0.636922  0.544672  1
  O  O115  1  0.248275  0.363205  0.268283  1
  O  O116  1  0.095232  0.400345  0.301256  1
  O  O117  1  0.095223  0.760710  0.483431  1
  O  O118  1  0.095220  0.599749  0.225375  1
  O  O119  1  0.095244  0.239410  0.301259  1
  O  O120  1  0.064282  0.367288  0.265170  1
  O  O121  1  0.064279  0.632814  0.544679  1
  O  O122  1  0.060889  0.500047  0.233350  1
  O  O123  1  0.060889  0.681967  0.475454  1
  O  O124  1  0.060892  0.318134  0.233357  1
  O  O125  1  0.257189  0.818703  0.233136  1
  O  O126  1  0.148286  0.500051  0.283413  1
  O  O127  1  0.163584  0.137403  0.351430  1
  O  O128  1  0.163554  0.629604  0.252834  1
  O  O129  1  0.163563  0.862734  0.455956  1
  O  O130  1  0.163567  0.370504  0.351434  1
  O  O131  1  0.305671  0.500061  0.300027  1
  O  O132  1  0.194285  0.000000  0.408763  1
  O  O133  1  0.249995  0.104277  0.354392  1
  O  O134  1  0.249962  0.604273  0.275082  1
  O  O135  1  0.249979  0.895846  0.433713  1
  O  O136  1  0.249976  0.395842  0.354401  1
  O  O137  1  0.257208  0.181419  0.475656  1
  O  O138  1  0.194252  0.642945  0.300021  1
  O  O139  1  0.194265  0.357172  0.408773  1
  O  O140  1  0.812351  0.264710  0.217603  1
  O  O141  1  0.812341  0.594859  0.419071  1
  O  O142  1  0.812337  0.735313  0.419067  1
  O  O143  1  0.812349  0.405171  0.491258  1
  O  O144  1  0.687598  0.235307  0.491258  1
  O  O145  1  0.687583  0.905167  0.289791  1
  O  O146  1  0.687586  0.764706  0.289793  1
  O  O147  1  0.687591  0.094857  0.217604  1
  O  O148  1  0.723665  0.233767  0.228954  1
  O  O149  1  0.723659  0.595976  0.406867  1
  O  O150  1  0.723654  0.766258  0.406866  1
  O  O151  1  0.723668  0.404043  0.479909  1
  O  O152  1  0.776281  0.266254  0.479910  1
  O  O153  1  0.776264  0.904046  0.301994  1
  O  O154  1  0.776270  0.733765  0.301996  1
  O  O155  1  0.776274  0.095976  0.228954  1
  O  O156  1  0.757197  0.500012  0.475692  1
  O  O157  1  0.742731  0.000000  0.233171  1
  O  O158  1  0.751690  0.363152  0.164156  1
  O  O159  1  0.751678  0.636873  0.440542  1
  O  O160  1  0.748253  0.136867  0.164156  1
  O  O161  1  0.748242  0.863148  0.268321  1
  O  O162  1  0.904712  0.599726  0.407570  1
  O  O163  1  0.904723  0.239368  0.225394  1
  O  O164  1  0.904721  0.400320  0.483455  1
  O  O165  1  0.904710  0.760673  0.407565  1
  O  O166  1  0.935663  0.632791  0.443653  1
  O  O167  1  0.935668  0.367262  0.164148  1
  O  O168  1  0.939054  0.500027  0.475477  1
  O  O169  1  -0.000000  0.407013  0.495034  1
  O  O170  1  0.000000  0.723562  0.424224  1
  O  O171  1  0.851658  0.500016  0.425416  1
  O  O172  1  0.836370  0.862679  0.357393  1
  O  O173  1  0.836385  0.370465  0.455996  1
  O  O174  1  0.836384  0.137347  0.252866  1
  O  O175  1  0.836376  0.629560  0.357395  1
  O  O176  1  0.805685  0.357130  0.408806  1
  O  O177  1  0.805666  0.000000  0.300058  1
  O  O178  1  0.694268  0.500007  0.408805  1
  O  O179  1  0.749967  0.604221  0.354431  1
  O  O180  1  0.749969  0.104227  0.275112  1
  O  O181  1  0.749976  0.395797  0.433748  1
  O  O182  1  0.749958  0.895803  0.354430  1
  O  O183  1  -0.000000  0.593064  0.424232  1
  O  O184  1  0.742735  0.818647  0.233173  1
  O  O185  1  0.805675  0.642890  0.300058  1
  O  O186  1  0.742751  0.181370  0.475691  1
  O  O187  1  -0.000000  0.276512  0.213797  1
  O  O188  1  0.595213  0.900314  0.301282  1
  O  O189  1  0.595226  0.260667  0.483454  1
  O  O190  1  0.595221  0.099721  0.225395  1
  O  O191  1  0.595216  0.739357  0.301286  1
  O  O192  1  0.404711  0.900338  0.301258  1
  O  O193  1  0.404719  0.260697  0.483434  1
  O  O194  1  0.404722  0.099743  0.225374  1
  O  O195  1  0.404706  0.739398  0.301262  1
  O  O196  1  0.564277  0.867250  0.265194  1
  O  O197  1  0.564279  0.132782  0.544697  1
  O  O198  1  0.435664  0.867276  0.265175  1
  O  O199  1  0.435665  0.132801  0.544681  1
  O  O200  1  0.560887  0.818100  0.233376  1
  O  O201  1  0.560890  0.000000  0.233368  1
  O  O202  1  0.439055  0.000000  0.233353  1
  O  O203  1  0.499966  0.907002  0.284598  1
  O  O204  1  0.499971  0.223552  0.495033  1
  O  O205  1  0.499972  0.093053  0.213794  1
  O  O206  1  0.499965  0.776503  0.284606  1
  O  O207  1  0.648290  0.313476  0.425416  1
  O  O208  1  0.439056  0.818124  0.233360  1
  O  O209  1  0.648271  0.000000  0.283443  1
  O  O210  1  0.351658  0.000000  0.283413  1
  O  O211  1  0.663554  0.637340  0.351467  1
  O  O212  1  0.663556  0.129560  0.252867  1
  O  O213  1  0.663565  0.362672  0.455995  1
  O  O214  1  0.663547  0.870468  0.351466  1
  O  O215  1  0.336364  0.637395  0.351433  1
  O  O216  1  0.336391  0.129603  0.252832  1
  O  O217  1  0.336382  0.362725  0.455958  1
  O  O218  1  0.336376  0.870505  0.351433  1
  O  O219  1  0.560888  0.181935  0.475471  1
  O  O220  1  0.648277  0.686540  0.283444  1
  O  O221  1  0.312338  0.905209  0.289757  1
  O  O222  1  0.312348  0.235360  0.491224  1
  O  O223  1  0.312351  0.094897  0.217570  1
  O  O224  1  0.312332  0.764763  0.289758  1
  O  O225  1  0.187582  0.594901  0.419038  1
  O  O226  1  0.187609  0.264770  0.217568  1
  O  O227  1  0.187594  0.405211  0.491225  1
  O  O228  1  0.187585  0.735366  0.419035  1
  O  O229  1  0.223657  0.904097  0.301961  1
  O  O230  1  0.223663  0.266301  0.479874  1
  O  O231  1  0.223672  0.096029  0.228920  1
  O  O232  1  0.223649  0.733817  0.301960  1
  O  O233  1  0.276262  0.596026  0.406832  1
  O  O234  1  0.276291  0.233820  0.228916  1
  O  O235  1  0.276276  0.404097  0.479870  1
  O  O236  1  0.276269  0.766302  0.406834  1
  O  O237  1  0.257195  0.000000  0.233136  1
  O  O238  1  0.242734  0.500062  0.475656  1
  O  O239  1  0.251672  0.863201  0.268285  1
  O  O240  1  0.251689  0.136919  0.544672  1
  O  O241  1  0.248241  0.636921  0.440508  1
  O  O242  1  0.248263  0.363206  0.544670  1
  O  O243  1  0.095212  0.599753  0.407549  1
  O  O244  1  0.095235  0.239408  0.225372  1
  O  O245  1  0.095222  0.400346  0.483435  1
  O  O246  1  0.095215  0.760712  0.407543  1
  O  O247  1  0.064278  0.632816  0.443637  1
  O  O248  1  0.064280  0.367287  0.544685  1
  O  O249  1  0.060890  0.500049  0.475462  1
  O  O250  1  0.305678  0.857175  0.408771  1
  O  O251  1  0.242731  0.681422  0.475656  1
  O  O252  1  0.148272  0.500054  0.425386  1
  O  O253  1  0.163553  0.862734  0.357361  1
  O  O254  1  0.163555  0.370509  0.455962  1
  O  O255  1  0.163573  0.137403  0.252833  1
  O  O256  1  0.163543  0.629604  0.357363  1
  O  O257  1  0.305662  0.500060  0.408766  1
  O  O258  1  0.305696  0.142947  0.300019  1
  O  O259  1  0.194273  0.000000  0.300025  1
  O  O260  1  0.249967  0.895847  0.354399  1
  O  O261  1  0.249967  0.395842  0.433714  1
  O  O262  1  0.249983  0.104276  0.275080  1
  O  O263  1  0.249953  0.604272  0.354396  1
  O  O264  1  0.148299  0.186603  0.283409  1
  O  O265  1  0.242763  0.318706  0.233134  1
  O  O266  1  0.148274  0.813531  0.425384  1
  O  O267  1  0.751689  0.636867  0.544708  1
  O  O268  1  0.748257  0.863150  0.544710  1
  O  O269  1  0.564280  0.867253  0.544704  1
  O  O270  1  0.751690  0.363152  0.544709  1
  O  O271  1  0.748253  0.136867  0.544709  1
  O  O272  1  0.935668  0.367262  0.544701  1
  Si  Si273  1  0.794581  0.916747  0.444540  1
  Si  Si274  1  0.794597  0.346492  0.381167  1
  Si  Si275  1  0.705375  0.416743  0.327697  1
  Si  Si276  1  0.705360  0.846491  0.444541  1
  Si  Si277  1  0.794586  0.653530  0.264321  1
  Si  Si278  1  0.705365  0.583274  0.264322  1
  Si  Si279  1  0.705370  0.153531  0.327695  1
  Si  Si280  1  0.794592  0.083278  0.381165  1
  Si  Si281  1  0.760410  0.416876  0.272561  1
  Si  Si282  1  0.760394  0.701740  0.499575  1
  Si  Si283  1  0.760401  0.583140  0.209288  1
  Si  Si284  1  0.760410  0.298277  0.272561  1
  Si  Si285  1  0.739560  0.083145  0.436302  1
  Si  Si286  1  0.739545  0.798276  0.209289  1
  Si  Si287  1  0.739550  0.916879  0.499577  1
  Si  Si288  1  0.739559  0.201743  0.436301  1
  Si  Si289  1  0.944623  0.416851  0.272298  1
  Si  Si290  1  0.944620  0.701066  0.499842  1
  Si  Si291  1  0.944616  0.583195  0.208995  1
  Si  Si292  1  0.944627  0.298980  0.272304  1
  Si  Si293  1  0.853022  0.205524  0.307948  1
  Si  Si294  1  0.853015  0.583391  0.244489  1
  Si  Si295  1  0.853005  0.794496  0.464368  1
  Si  Si296  1  0.853023  0.416637  0.307949  1
  Si  Si297  1  0.353029  0.083426  0.400881  1
  Si  Si298  1  0.353019  0.916672  0.464341  1
  Si  Si299  1  0.352999  0.705576  0.244459  1
  Si  Si300  1  0.555333  0.083191  0.436548  1
  Si  Si301  1  0.555325  0.798974  0.209003  1
  Si  Si302  1  0.555327  0.916848  0.499850  1
  Si  Si303  1  0.555329  0.201063  0.436540  1
  Si  Si304  1  0.444628  0.083210  0.436533  1
  Si  Si305  1  0.444619  0.798997  0.208987  1
  Si  Si306  1  0.444621  0.916867  0.499834  1
  Si  Si307  1  0.444623  0.201084  0.436525  1
  Si  Si308  1  0.646946  0.294492  0.400911  1
  Si  Si309  1  0.646938  0.916639  0.464371  1
  Si  Si310  1  0.646932  0.705523  0.244490  1
  Si  Si311  1  0.646945  0.083393  0.400912  1
  Si  Si312  1  0.353020  0.294543  0.400879  1
  Si  Si313  1  0.294587  0.416793  0.327665  1
  Si  Si314  1  0.205384  0.083330  0.381128  1
  Si  Si315  1  0.205365  0.346533  0.381135  1
  Si  Si316  1  0.205369  0.916799  0.444502  1
  Si  Si317  1  0.205351  0.653583  0.264286  1
  Si  Si318  1  0.294588  0.846536  0.444508  1
  Si  Si319  1  0.260389  0.798332  0.209251  1
  Si  Si320  1  0.260417  0.083193  0.436266  1
  Si  Si321  1  0.260408  0.201790  0.436267  1
  Si  Si322  1  0.260404  0.916928  0.499539  1
  Si  Si323  1  0.239542  0.701795  0.499540  1
  Si  Si324  1  0.239557  0.416928  0.272526  1
  Si  Si325  1  0.239570  0.298333  0.272524  1
  Si  Si326  1  0.239543  0.583193  0.209252  1
  Si  Si327  1  0.055329  0.416875  0.272282  1
  Si  Si328  1  0.055326  0.701094  0.499827  1
  Si  Si329  1  0.055322  0.583218  0.208980  1
  Si  Si330  1  0.055333  0.299005  0.272288  1
  Si  Si331  1  0.146955  0.205586  0.307915  1
  Si  Si332  1  0.146931  0.583428  0.244460  1
  Si  Si333  1  0.146931  0.794550  0.464337  1
  Si  Si334  1  0.146941  0.416674  0.307917  1
  Si  Si335  1  0.294607  0.153584  0.327659  1
  Si  Si336  1  0.294573  0.583324  0.264290  1
  Si  Si337  1  0.705356  0.583274  0.381166  1
  Si  Si338  1  0.705358  0.153533  0.264320  1
  Si  Si339  1  0.760401  0.298277  0.209288  1
  Si  Si340  1  0.760390  0.583145  0.436302  1
  Si  Si341  1  0.760387  0.701745  0.436300  1
  Si  Si342  1  0.760397  0.416880  0.499576  1
  Si  Si343  1  0.739550  0.201740  0.499576  1
  Si  Si344  1  0.739533  0.916877  0.272560  1
  Si  Si345  1  0.739536  0.798276  0.272562  1
  Si  Si346  1  0.739541  0.083142  0.209288  1
  Si  Si347  1  0.944615  0.583199  0.436544  1
  Si  Si348  1  0.944622  0.298981  0.209000  1
  Si  Si349  1  0.944621  0.416856  0.499847  1
  Si  Si350  1  0.944616  0.701071  0.436537  1
  Si  Si351  1  0.852999  0.794498  0.400908  1
  Si  Si352  1  0.853010  0.416639  0.464370  1
  Si  Si353  1  0.853015  0.205529  0.244487  1
  Si  Si354  1  0.853003  0.583393  0.400911  1
  Si  Si355  1  0.794577  0.653530  0.327695  1
  Si  Si356  1  0.794580  0.083280  0.264320  1
  Si  Si357  1  0.794587  0.346489  0.444543  1
  Si  Si358  1  0.794569  0.916749  0.327694  1
  Si  Si359  1  0.705348  0.846493  0.381166  1
  Si  Si360  1  0.705365  0.416743  0.444541  1
  Si  Si361  1  0.353002  0.916672  0.307917  1
  Si  Si362  1  0.353012  0.294540  0.464339  1
  Si  Si363  1  0.555321  0.916846  0.272300  1
  Si  Si364  1  0.555323  0.201061  0.499845  1
  Si  Si365  1  0.555327  0.083190  0.208997  1
  Si  Si366  1  0.555320  0.798974  0.272307  1
  Si  Si367  1  0.444615  0.916865  0.272286  1
  Si  Si368  1  0.444617  0.201083  0.499828  1
  Si  Si369  1  0.444621  0.083208  0.208981  1
  Si  Si370  1  0.444615  0.798995  0.272292  1
  Si  Si371  1  0.646926  0.705520  0.307951  1
  Si  Si372  1  0.646927  0.083392  0.244489  1
  Si  Si373  1  0.646938  0.294493  0.464370  1
  Si  Si374  1  0.646921  0.916638  0.307948  1
  Si  Si375  1  0.352993  0.705577  0.307918  1
  Si  Si376  1  0.353011  0.083426  0.244458  1
  Si  Si377  1  0.205357  0.916799  0.327663  1
  Si  Si378  1  0.205356  0.346535  0.444508  1
  Si  Si379  1  0.205371  0.083330  0.264288  1
  Si  Si380  1  0.260386  0.916927  0.272526  1
  Si  Si381  1  0.260398  0.201791  0.499540  1
  Si  Si382  1  0.260398  0.083192  0.209252  1
  Si  Si383  1  0.260381  0.798330  0.272525  1
  Si  Si384  1  0.239533  0.583194  0.436268  1
  Si  Si385  1  0.239561  0.298335  0.209250  1
  Si  Si386  1  0.239545  0.416929  0.499538  1
  Si  Si387  1  0.239534  0.701793  0.436267  1
  Si  Si388  1  0.055321  0.583220  0.436531  1
  Si  Si389  1  0.055328  0.299007  0.208984  1
  Si  Si390  1  0.055327  0.416877  0.499832  1
  Si  Si391  1  0.055321  0.701092  0.436524  1
  Si  Si392  1  0.146925  0.794551  0.400877  1
  Si  Si393  1  0.146929  0.416677  0.464340  1
  Si  Si394  1  0.146948  0.205585  0.244456  1
  Si  Si395  1  0.146920  0.583431  0.400881  1
  Si  Si396  1  0.294577  0.846536  0.381133  1
  Si  Si397  1  0.294578  0.416793  0.444504  1
  Si  Si398  1  0.294596  0.153584  0.264285  1
  Si  Si399  1  0.294564  0.583324  0.381131  1
  Si  Si400  1  0.205343  0.653582  0.327661  1
  H  H401  1  0.935664  0.632786  0.145611  1
  H  H402  1  0.435667  0.867276  0.145604  1
  H  H403  1  0.251687  0.863204  0.145587  1
  H  H404  1  0.248251  0.636922  0.145589  1
  H  H405  1  0.064279  0.632814  0.145596  1
  H  H406  1  0.564279  0.132782  0.145614  1
  H  H407  1  0.435665  0.132801  0.145597  1
  H  H408  1  0.251689  0.136919  0.145589  1
  H  H409  1  0.248263  0.363206  0.145587  1
  H  H410  1  0.064280  0.367287  0.145601  1
  H  H411  1  0.751689  0.636867  0.145625  1
  H  H412  1  0.748257  0.863150  0.145627  1
  H  H413  1  0.935664  0.632786  0.563225  1
  H  H414  1  0.564280  0.867253  0.145621  1
  H  H415  1  0.435667  0.867276  0.563218  1
  H  H416  1  0.251687  0.863204  0.563201  1
  H  H417  1  0.248251  0.636922  0.563203  1
  H  H418  1  0.064279  0.632814  0.563210  1
  H  H419  1  0.751690  0.363152  0.145625  1
  H  H420  1  0.748253  0.136867  0.145625  1
  H  H421  1  0.935668  0.367262  0.145618  1
  H  H422  1  0.564279  0.132782  0.563227  1
  H  H423  1  0.435665  0.132801  0.563211  1
  H  H424  1  0.251689  0.136919  0.563203  1
  H  H425  1  0.248263  0.363206  0.563200  1
  H  H426  1  0.064280  0.367287  0.563215  1
  H  H427  1  0.751689  0.636867  0.563238  1
  H  H428  1  0.748257  0.863150  0.563240  1
  H  H429  1  0.564280  0.867253  0.563235  1
  H  H430  1  0.751690  0.363152  0.563239  1
  H  H431  1  0.748253  0.136867  0.563239  1
  H  H432  1  0.935668  0.367262  0.563232  1
