# generated using pymatgen
data_Si22H2O45
_symmetry_space_group_name_H-M   'P 1'
_cell_length_a   5.06483519
_cell_length_b   14.10770455
_cell_length_c   57.50120605
_cell_angle_alpha   90.00000000
_cell_angle_beta   90.00000000
_cell_angle_gamma   90.00000000
_symmetry_Int_Tables_number   1
_chemical_formula_structural   Si22H2O45
_chemical_formula_sum   'Si44 H4 O90'
_cell_volume   4108.64508728
_cell_formula_units_Z   2
loop_
 _symmetry_equiv_pos_site_id
 _symmetry_equiv_pos_as_xyz
  1  'x, y, z'
loop_
 _atom_site_type_symbol
 _atom_site_label
 _atom_site_symmetry_multiplicity
 _atom_site_fract_x
 _atom_site_fract_y
 _atom_site_fract_z
 _atom_site_occupancy
  O  O1  1  0.239765  0.802925  0.102693  1
  O  O2  1  0.241022  0.803011  0.148312  1
  O  O3  1  0.742972  0.197522  0.339983  1
  O  O4  1  0.742913  0.197565  0.294433  1
  O  O5  1  0.026110  0.936984  0.125510  1
  O  O6  1  0.525128  0.918812  0.125463  1
  O  O7  1  0.955105  0.063176  0.317186  1
  O  O8  1  0.456198  0.081978  0.317221  1
  O  O9  1  0.740659  0.050982  0.148400  1
  O  O10  1  0.740736  0.051064  0.102607  1
  O  O11  1  0.242615  0.949333  0.294356  1
  O  O12  1  0.241604  0.949292  0.340050  1
  O  O13  1  0.246763  0.674449  0.182278  1
  O  O14  1  0.751212  0.325368  0.260346  1
  O  O15  1  0.749990  0.325297  0.374067  1
  O  O16  1  0.034790  0.837134  0.187641  1
  O  O17  1  0.533025  0.823222  0.183905  1
  O  O18  1  0.037832  0.177036  0.259003  1
  O  O19  1  0.539522  0.162360  0.255070  1
  O  O20  1  0.036936  0.177092  0.375458  1
  O  O21  1  0.538608  0.162128  0.379305  1
  O  O22  1  0.244191  0.485758  0.197923  1
  O  O23  1  0.744820  0.513887  0.244804  1
  O  O24  1  0.744285  0.513876  0.389601  1
  O  O25  1  -0.000000  0.619753  0.217757  1
  O  O26  1  0.499483  0.618784  0.217126  1
  O  O27  1  0.965854  0.379811  0.223271  1
  O  O28  1  0.467203  0.381915  0.227285  1
  O  O29  1  0.965293  0.379770  0.411104  1
  O  O30  1  0.466641  0.381894  0.407153  1
  O  O31  1  0.248129  0.016432  0.253605  1
  O  O32  1  0.246142  0.016347  0.380796  1
  O  O33  1  0.747599  0.983471  0.189154  1
  O  O34  1  0.500033  0.864617  0.261610  1
  O  O35  1  -0.000000  0.863049  0.260847  1
  O  O36  1  0.499581  0.865026  0.372755  1
  O  O37  1  -0.000000  0.862457  0.373689  1
  O  O38  1  0.506714  0.138035  0.182222  1
  O  O39  1  0.006487  0.134195  0.180964  1
  O  O40  1  0.744117  0.712731  0.247393  1
  O  O41  1  0.740389  0.712716  0.387093  1
  O  O42  1  0.248658  0.287033  0.195454  1
  O  O43  1  0.741255  0.863422  0.223035  1
  O  O44  1  0.739122  0.863459  0.411407  1
  O  O45  1  0.243171  0.136580  0.219788  1
  O  O46  1  0.239765  0.802925  0.486127  1
  O  O47  1  0.241022  0.803011  0.531746  1
  O  O48  1  0.742972  0.197522  0.723417  1
  O  O49  1  0.742913  0.197565  0.677867  1
  O  O50  1  0.026110  0.936984  0.508945  1
  O  O51  1  0.525128  0.918812  0.508897  1
  O  O52  1  0.955105  0.063176  0.700620  1
  O  O53  1  0.456198  0.081978  0.700656  1
  O  O54  1  0.740659  0.050982  0.531834  1
  O  O55  1  0.740736  0.051064  0.486041  1
  O  O56  1  0.242615  0.949333  0.677791  1
  O  O57  1  0.241604  0.949292  0.723484  1
  O  O58  1  0.246763  0.674449  0.565713  1
  O  O59  1  0.243731  0.674456  0.452102  1
  O  O60  1  0.751212  0.325368  0.643780  1
  O  O61  1  0.034790  0.837134  0.571075  1
  O  O62  1  0.533025  0.823222  0.567340  1
  O  O63  1  0.032042  0.837056  0.446831  1
  O  O64  1  0.530238  0.823277  0.450491  1
  O  O65  1  0.037832  0.177036  0.642437  1
  O  O66  1  0.539522  0.162360  0.638504  1
  O  O67  1  0.244191  0.485758  0.581358  1
  O  O68  1  0.243291  0.485710  0.436495  1
  O  O69  1  0.744820  0.513887  0.628239  1
  O  O70  1  -0.000000  0.619753  0.601192  1
  O  O71  1  0.499483  0.618784  0.600560  1
  O  O72  1  0.011959  0.620102  0.415782  1
  O  O73  1  0.510693  0.617874  0.418174  1
  O  O74  1  0.965854  0.379811  0.606706  1
  O  O75  1  0.467203  0.381915  0.610719  1
  O  O76  1  0.248129  0.016432  0.637039  1
  O  O77  1  0.747599  0.983471  0.572588  1
  O  O78  1  0.745722  0.983497  0.445291  1
  O  O79  1  0.500033  0.864617  0.645045  1
  O  O80  1  -0.000000  0.863049  0.644281  1
  O  O81  1  0.506714  0.138035  0.565656  1
  O  O82  1  0.006487  0.134195  0.564398  1
  O  O83  1  0.505568  0.138092  0.452258  1
  O  O84  1  0.005383  0.134147  0.453402  1
  O  O85  1  0.744117  0.712731  0.630828  1
  O  O86  1  0.248658  0.287033  0.578889  1
  O  O87  1  0.247649  0.286975  0.438950  1
  O  O88  1  0.741255  0.863422  0.606469  1
  O  O89  1  0.243171  0.136580  0.603222  1
  O  O90  1  0.243005  0.136436  0.414629  1
  Si  Si91  1  0.257402  0.863935  0.125494  1
  Si  Si92  1  0.724361  0.136531  0.317206  1
  Si  Si93  1  0.757697  0.991105  0.125497  1
  Si  Si94  1  0.224207  0.009418  0.317206  1
  Si  Si95  1  0.263336  0.783060  0.175079  1
  Si  Si96  1  0.767302  0.216959  0.267666  1
  Si  Si97  1  0.766446  0.216877  0.366756  1
  Si  Si98  1  0.247387  0.597406  0.202375  1
  Si  Si99  1  0.732909  0.402267  0.240291  1
  Si  Si100  1  0.732097  0.402262  0.394112  1
  Si  Si101  1  0.247200  0.922182  0.267927  1
  Si  Si102  1  0.245703  0.922068  0.366485  1
  Si  Si103  1  0.750658  0.077798  0.174853  1
  Si  Si104  1  0.747579  0.616734  0.233236  1
  Si  Si105  1  0.751557  0.616671  0.401204  1
  Si  Si106  1  0.232720  0.383002  0.209561  1
  Si  Si107  1  0.746733  0.824986  0.248590  1
  Si  Si108  1  0.745095  0.824945  0.385861  1
  Si  Si109  1  0.250594  0.174863  0.194222  1
  Si  Si110  1  0.763787  0.876655  0.196131  1
  Si  Si111  1  0.267339  0.123249  0.246680  1
  Si  Si112  1  0.266437  0.123128  0.387731  1
  Si  Si113  1  0.257402  0.863935  0.508928  1
  Si  Si114  1  0.724361  0.136531  0.700640  1
  Si  Si115  1  0.757697  0.991105  0.508931  1
  Si  Si116  1  0.224207  0.009418  0.700640  1
  Si  Si117  1  0.263336  0.783060  0.558514  1
  Si  Si118  1  0.260812  0.783006  0.459350  1
  Si  Si119  1  0.767302  0.216959  0.651100  1
  Si  Si120  1  0.247387  0.597406  0.585809  1
  Si  Si121  1  0.251275  0.597336  0.432024  1
  Si  Si122  1  0.732909  0.402267  0.623726  1
  Si  Si123  1  0.247200  0.922182  0.651362  1
  Si  Si124  1  0.750658  0.077798  0.558287  1
  Si  Si125  1  0.749685  0.077835  0.459582  1
  Si  Si126  1  0.747579  0.616734  0.616670  1
  Si  Si127  1  0.232720  0.383002  0.592995  1
  Si  Si128  1  0.231892  0.382976  0.424850  1
  Si  Si129  1  0.746733  0.824986  0.632024  1
  Si  Si130  1  0.250594  0.174863  0.577656  1
  Si  Si131  1  0.249724  0.174811  0.440187  1
  Si  Si132  1  0.763787  0.876655  0.579565  1
  Si  Si133  1  0.761340  0.876677  0.438311  1
  Si  Si134  1  0.267339  0.123249  0.630115  1
  H  H135  1  0.239765  0.802925  0.087041  1
  H  H136  1  0.740736  0.051064  0.086955  1
  H  H137  1  0.742972  0.197522  0.739069  1
  H  H138  1  0.241604  0.949292  0.739136  1
