# generated using pymatgen
data_Si104H18O217
_symmetry_space_group_name_H-M   'P 1'
_cell_length_a   13.56605876
_cell_length_b   46.01197261
_cell_length_c   55.84128955
_cell_angle_alpha   107.14383045
_cell_angle_beta   120.00000000
_cell_angle_gamma   81.52454549
_symmetry_Int_Tables_number   1
_chemical_formula_structural   Si104H18O217
_chemical_formula_sum   'Si208 H36 O434'
_cell_volume   28845.1049305
_cell_formula_units_Z   2
loop_
 _symmetry_equiv_pos_site_id
 _symmetry_equiv_pos_as_xyz
  1  'x, y, z'
loop_
 _atom_site_type_symbol
 _atom_site_label
 _atom_site_symmetry_multiplicity
 _atom_site_fract_x
 _atom_site_fract_y
 _atom_site_fract_z
 _atom_site_occupancy
  O  O1  1  0.746528  0.000000  0.209989  1
  O  O2  1  0.000000  -0.000000  0.210037  1
  O  O3  1  0.883218  0.042567  0.225145  1
  O  O4  1  0.079518  0.111130  0.217511  1
  O  O5  1  0.333918  0.111167  0.156139  1
  O  O6  1  0.586331  0.111299  0.217500  1
  O  O7  1  0.079803  0.111093  0.156274  1
  O  O8  1  0.100603  0.068641  0.179055  1
  O  O9  1  0.450051  0.068747  0.263967  1
  O  O10  1  0.450246  0.068765  0.178962  1
  O  O11  1  0.233238  0.072312  0.232618  1
  O  O12  1  0.534086  0.072338  0.232534  1
  O  O13  1  0.233324  0.072206  0.159444  1
  O  O14  1  0.028432  0.055534  0.210988  1
  O  O15  1  0.305133  0.055543  0.123134  1
  O  O16  1  0.666856  0.055714  0.211006  1
  O  O17  1  0.028367  0.055548  0.123192  1
  O  O18  1  0.232463  0.150238  0.251643  1
  O  O19  1  0.533732  0.150288  0.251517  1
  O  O20  1  0.232734  0.150128  0.178376  1
  O  O21  1  0.799577  0.039004  0.256693  1
  O  O22  1  0.099805  0.153662  0.199718  1
  O  O23  1  0.449773  0.153768  0.199608  1
  O  O24  1  0.100445  0.038936  0.256707  1
  O  O25  1  0.027418  0.166661  0.237924  1
  O  O26  1  0.027500  0.166595  0.150272  1
  O  O27  1  0.746839  0.222250  0.264167  1
  O  O28  1  0.998952  0.222201  0.264052  1
  O  O29  1  0.666496  0.277831  0.265239  1
  O  O30  1  0.027969  0.277761  0.177544  1
  O  O31  1  0.028111  0.277863  0.265289  1
  O  O32  1  0.304616  0.277874  0.177383  1
  O  O33  1  0.666314  0.166817  0.237985  1
  O  O34  1  0.450144  0.290899  0.233113  1
  O  O35  1  0.882895  0.179663  0.258597  1
  O  O36  1  0.233060  0.294428  0.213750  1
  O  O37  1  0.099956  0.290871  0.233330  1
  O  O38  1  0.304745  0.166704  0.150187  1
  O  O39  1  0.638889  0.388654  0.123570  1
  O  O40  1  0.362133  0.388827  0.123636  1
  O  O41  1  0.361126  0.499935  0.150120  1
  O  O42  1  0.638945  0.499867  0.150131  1
  O  O43  1  0.000000  0.499958  0.237879  1
  O  O44  1  0.433717  0.372349  0.257118  1
  O  O45  1  0.413167  0.444583  0.217688  1
  O  O46  1  0.667604  0.444345  0.156328  1
  O  O47  1  0.919647  0.444459  0.217739  1
  O  O48  1  0.413208  0.444448  0.156399  1
  O  O49  1  0.433901  0.402045  0.179425  1
  O  O50  1  0.783500  0.402130  0.264420  1
  O  O51  1  0.783610  0.401960  0.179391  1
  O  O52  1  0.566482  0.405636  0.232971  1
  O  O53  1  0.867548  0.405611  0.232988  1
  O  O54  1  0.566875  0.405584  0.159877  1
  O  O55  1  0.361591  0.389058  0.211426  1
  O  O56  1  0.000000  0.388882  0.211425  1
  O  O57  1  0.566392  0.483574  0.251603  1
  O  O58  1  0.867394  0.483551  0.251665  1
  O  O59  1  0.566125  0.483496  0.178278  1
  O  O60  1  0.333255  0.333455  0.210410  1
  O  O61  1  0.433462  0.487080  0.199675  1
  O  O62  1  0.783165  0.486952  0.199681  1
  O  O63  1  0.216569  0.375898  0.225582  1
  O  O64  1  0.133051  0.372326  0.257180  1
  O  O65  1  0.080146  0.333343  0.210501  1
  O  O66  1  0.361423  0.611138  0.176956  1
  O  O67  1  0.638298  0.611116  0.176955  1
  O  O68  1  0.783375  0.624172  0.232683  1
  O  O69  1  0.361227  0.500083  0.237873  1
  O  O70  1  0.079949  0.555471  0.263776  1
  O  O71  1  0.332273  0.555547  0.263802  1
  O  O72  1  0.000000  0.611060  0.264737  1
  O  O73  1  0.361331  0.611123  0.264757  1
  O  O74  1  0.216088  0.512953  0.258352  1
  O  O75  1  0.432761  0.624176  0.232693  1
  O  O76  1  0.566265  0.627774  0.213247  1
  O  O77  1  0.694989  0.722266  0.210787  1
  O  O78  1  0.333347  0.722264  0.210796  1
  O  O79  1  0.333590  0.833316  0.237768  1
  O  O80  1  0.746486  0.777862  0.217318  1
  O  O81  1  0.253084  0.777838  0.217300  1
  O  O82  1  0.466201  0.705633  0.256522  1
  O  O83  1  0.766947  0.705628  0.256499  1
  O  O84  1  0.116954  0.820399  0.199480  1
  O  O85  1  0.767031  0.735391  0.178834  1
  O  O86  1  0.116677  0.735357  0.263791  1
  O  O87  1  0.116663  0.735378  0.178797  1
  O  O88  1  0.899811  0.738953  0.232394  1
  O  O89  1  0.200658  0.738923  0.232361  1
  O  O90  1  0.899768  0.816881  0.251412  1
  O  O91  1  0.201103  0.816871  0.251386  1
  O  O92  1  0.413262  0.666712  0.209874  1
  O  O93  1  0.549772  0.709228  0.224934  1
  O  O94  1  0.766916  0.820410  0.199518  1
  O  O95  1  0.666584  0.666705  0.209854  1
  O  O96  1  0.333293  0.944392  0.264832  1
  O  O97  1  0.694904  0.944493  0.264890  1
  O  O98  1  0.694760  0.833366  0.237762  1
  O  O99  1  0.550184  0.846285  0.258408  1
  O  O100  1  0.899525  0.961094  0.213355  1
  O  O101  1  0.116808  0.957481  0.232793  1
  O  O102  1  0.766087  0.957585  0.232807  1
  O  O103  1  0.413772  0.888812  0.263814  1
  O  O104  1  0.665987  0.888867  0.263795  1
  O  O105  1  0.694714  0.944507  0.177024  1
  O  O106  1  0.971668  0.944491  0.177061  1
  O  O107  1  0.746345  0.000000  0.271515  1
  O  O108  1  0.233769  0.042466  0.310277  1
  O  O109  1  0.746528  0.000000  0.452874  1
  O  O110  1  0.000000  -0.000000  0.452922  1
  O  O111  1  0.883218  0.042567  0.468030  1
  O  O112  1  0.079518  0.111130  0.460396  1
  O  O113  1  0.586001  0.111242  0.279236  1
  O  O114  1  0.333918  0.111167  0.399024  1
  O  O115  1  0.334053  0.111197  0.279350  1
  O  O116  1  0.586331  0.111299  0.460385  1
  O  O117  1  0.079803  0.111093  0.399159  1
  O  O118  1  0.100603  0.068641  0.421940  1
  O  O119  1  0.450051  0.068747  0.506852  1
  O  O120  1  0.450246  0.068765  0.421847  1
  O  O121  1  0.233238  0.072312  0.475503  1
  O  O122  1  0.534086  0.072338  0.475419  1
  O  O123  1  0.233324  0.072206  0.402329  1
  O  O124  1  0.028432  0.055534  0.453874  1
  O  O125  1  0.666771  0.055691  0.278244  1
  O  O126  1  0.305133  0.055543  0.366019  1
  O  O127  1  0.305361  0.055567  0.278256  1
  O  O128  1  0.666856  0.055714  0.453891  1
  O  O129  1  0.028367  0.055548  0.366077  1
  O  O130  1  0.232463  0.150238  0.494528  1
  O  O131  1  0.533732  0.150288  0.494402  1
  O  O132  1  0.232734  0.150128  0.421261  1
  O  O133  1  0.100294  0.038881  0.329741  1
  O  O134  1  0.799577  0.039004  0.499578  1
  O  O135  1  0.099805  0.153662  0.442603  1
  O  O136  1  0.449557  0.153787  0.284712  1
  O  O137  1  0.449773  0.153768  0.442493  1
  O  O138  1  0.883063  0.042537  0.310332  1
  O  O139  1  0.100445  0.038936  0.499592  1
  O  O140  1  0.027418  0.166661  0.480809  1
  O  O141  1  0.027500  0.166595  0.393157  1
  O  O142  1  0.305059  0.166667  0.305441  1
  O  O143  1  0.253166  0.222146  0.325944  1
  O  O144  1  0.746835  0.222135  0.325905  1
  O  O145  1  0.746839  0.222250  0.507052  1
  O  O146  1  0.998652  0.222167  0.387295  1
  O  O147  1  0.998952  0.222201  0.506937  1
  O  O148  1  0.252978  0.222229  0.387205  1
  O  O149  1  0.232202  0.264651  0.364422  1
  O  O150  1  0.883118  0.264680  0.279457  1
  O  O151  1  0.882945  0.264640  0.364531  1
  O  O152  1  0.099859  0.261028  0.310864  1
  O  O153  1  0.799309  0.261112  0.310929  1
  O  O154  1  0.099723  0.261132  0.384108  1
  O  O155  1  0.304821  0.277738  0.332590  1
  O  O156  1  0.666496  0.277831  0.508124  1
  O  O157  1  0.027969  0.277761  0.420429  1
  O  O158  1  0.028111  0.277863  0.508174  1
  O  O159  1  0.666303  0.277629  0.332400  1
  O  O160  1  0.304616  0.277874  0.420268  1
  O  O161  1  0.099990  0.183108  0.291714  1
  O  O162  1  0.798883  0.183128  0.291809  1
  O  O163  1  0.099662  0.183230  0.365021  1
  O  O164  1  0.666314  0.166817  0.480870  1
  O  O165  1  0.233104  0.294441  0.286940  1
  O  O166  1  0.333587  0.333300  0.333592  1
  O  O167  1  0.450144  0.290899  0.475998  1
  O  O168  1  0.232417  0.179635  0.343641  1
  O  O169  1  0.882895  0.179663  0.501482  1
  O  O170  1  0.882653  0.179593  0.343729  1
  O  O171  1  0.233060  0.294428  0.456635  1
  O  O172  1  0.533406  0.294349  0.286703  1
  O  O173  1  0.099956  0.290871  0.476215  1
  O  O174  1  0.450085  0.290720  0.318396  1
  O  O175  1  0.586612  0.333172  0.333399  1
  O  O176  1  0.666086  0.166692  0.305337  1
  O  O177  1  0.304745  0.166704  0.393072  1
  O  O178  1  0.638889  0.388654  0.366455  1
  O  O179  1  0.362133  0.388827  0.366521  1
  O  O180  1  0.361126  0.499935  0.393005  1
  O  O181  1  0.638945  0.499867  0.393016  1
  O  O182  1  0.000000  0.499958  0.480764  1
  O  O183  1  0.080127  0.333436  0.272055  1
  O  O184  1  0.567382  0.375803  0.310719  1
  O  O185  1  0.433717  0.372349  0.500003  1
  O  O186  1  0.413167  0.444583  0.460573  1
  O  O187  1  0.919822  0.444612  0.279593  1
  O  O188  1  0.667604  0.444345  0.399213  1
  O  O189  1  0.667388  0.444618  0.279544  1
  O  O190  1  0.919647  0.444459  0.460624  1
  O  O191  1  0.413208  0.444448  0.399284  1
  O  O192  1  0.433901  0.402045  0.422310  1
  O  O193  1  0.783500  0.402130  0.507305  1
  O  O194  1  0.783610  0.401960  0.422276  1
  O  O195  1  0.566482  0.405636  0.475856  1
  O  O196  1  0.867548  0.405611  0.475873  1
  O  O197  1  0.566875  0.405584  0.402762  1
  O  O198  1  0.361591  0.389058  0.454311  1
  O  O199  1  0.000000  0.389037  0.278741  1
  O  O200  1  0.638580  0.389014  0.278677  1
  O  O201  1  0.000000  0.388882  0.454310  1
  O  O202  1  0.566392  0.483574  0.494488  1
  O  O203  1  0.867394  0.483551  0.494550  1
  O  O204  1  0.566125  0.483496  0.421163  1
  O  O205  1  0.216736  0.375883  0.310806  1
  O  O206  1  0.333255  0.333455  0.453295  1
  O  O207  1  0.433462  0.487080  0.442560  1
  O  O208  1  0.783514  0.487149  0.284894  1
  O  O209  1  0.783165  0.486952  0.442566  1
  O  O210  1  0.433883  0.372191  0.330167  1
  O  O211  1  0.216569  0.375898  0.468467  1
  O  O212  1  0.133051  0.372326  0.500065  1
  O  O213  1  0.586643  0.333382  0.271926  1
  O  O214  1  0.080146  0.333343  0.453386  1
  O  O215  1  0.361423  0.611138  0.419841  1
  O  O216  1  0.638298  0.611116  0.419840  1
  O  O217  1  0.867007  0.627720  0.286307  1
  O  O218  1  0.783375  0.624172  0.475568  1
  O  O219  1  0.361227  0.500083  0.480758  1
  O  O220  1  0.783478  0.624142  0.317904  1
  O  O221  1  0.586445  0.555579  0.325623  1
  O  O222  1  0.079949  0.555471  0.506661  1
  O  O223  1  0.332568  0.555490  0.386946  1
  O  O224  1  0.332273  0.555547  0.506687  1
  O  O225  1  0.080490  0.555553  0.325665  1
  O  O226  1  0.587240  0.555460  0.386984  1
  O  O227  1  0.566257  0.597982  0.364046  1
  O  O228  1  0.216308  0.597985  0.278991  1
  O  O229  1  0.216792  0.597988  0.364031  1
  O  O230  1  0.433267  0.594516  0.310473  1
  O  O231  1  0.132517  0.594420  0.310451  1
  O  O232  1  0.433621  0.594318  0.383589  1
  O  O233  1  0.638183  0.611134  0.332052  1
  O  O234  1  0.000000  0.611060  0.507623  1
  O  O235  1  0.361331  0.611123  0.507642  1
  O  O236  1  0.000000  0.611122  0.332051  1
  O  O237  1  0.433177  0.516552  0.291626  1
  O  O238  1  0.132288  0.516475  0.291607  1
  O  O239  1  0.434010  0.516432  0.364931  1
  O  O240  1  0.000000  0.500115  0.305412  1
  O  O241  1  0.566301  0.627717  0.286317  1
  O  O242  1  0.566447  0.512978  0.343550  1
  O  O243  1  0.216088  0.512953  0.501237  1
  O  O244  1  0.216808  0.512963  0.343533  1
  O  O245  1  0.432761  0.624176  0.475578  1
  O  O246  1  0.566265  0.627774  0.456132  1
  O  O247  1  0.638366  0.500128  0.305342  1
  O  O248  1  0.919933  0.666650  0.271397  1
  O  O249  1  0.919924  0.666659  0.332945  1
  O  O250  1  0.694989  0.722266  0.453672  1
  O  O251  1  0.333347  0.722264  0.453681  1
  O  O252  1  0.333590  0.833316  0.480653  1
  O  O253  1  0.333565  0.833295  0.305187  1
  O  O254  1  0.413331  0.666677  0.271417  1
  O  O255  1  0.746486  0.777862  0.460203  1
  O  O256  1  0.253084  0.777838  0.460185  1
  O  O257  1  0.466201  0.705633  0.499407  1
  O  O258  1  0.766947  0.705628  0.499384  1
  O  O259  1  0.116954  0.820399  0.442365  1
  O  O260  1  0.900447  0.709169  0.310114  1
  O  O261  1  0.116967  0.820377  0.284557  1
  O  O262  1  0.253094  0.777812  0.279094  1
  O  O263  1  0.000000  0.777857  0.398882  1
  O  O264  1  0.000000  0.777825  0.279134  1
  O  O265  1  0.746478  0.777860  0.398919  1
  O  O266  1  0.767031  0.735391  0.421719  1
  O  O267  1  0.116677  0.735357  0.506676  1
  O  O268  1  0.116663  0.735378  0.421682  1
  O  O269  1  0.899811  0.738953  0.475279  1
  O  O270  1  0.200658  0.738923  0.475246  1
  O  O271  1  0.899787  0.738950  0.402137  1
  O  O272  1  0.333346  0.722224  0.278050  1
  O  O273  1  0.971815  0.722240  0.365852  1
  O  O274  1  0.971867  0.722211  0.278053  1
  O  O275  1  0.694991  0.722254  0.365886  1
  O  O276  1  0.899768  0.816881  0.494297  1
  O  O277  1  0.201103  0.816871  0.494271  1
  O  O278  1  0.899820  0.816869  0.421071  1
  O  O279  1  0.766916  0.705605  0.329568  1
  O  O280  1  0.413262  0.666712  0.452759  1
  O  O281  1  0.549787  0.709190  0.310143  1
  O  O282  1  0.549772  0.709228  0.467819  1
  O  O283  1  0.766916  0.820410  0.442403  1
  O  O284  1  0.666584  0.666705  0.452739  1
  O  O285  1  0.666630  0.666673  0.332959  1
  O  O286  1  0.333293  0.944392  0.507717  1
  O  O287  1  0.694904  0.944493  0.507775  1
  O  O288  1  0.253478  -0.000000  0.271530  1
  O  O289  1  0.694760  0.833366  0.480647  1
  O  O290  1  0.972365  0.833333  0.305201  1
  O  O291  1  0.972307  0.833392  0.392928  1
  O  O292  1  0.694833  0.833380  0.392951  1
  O  O293  1  0.550184  0.846285  0.501293  1
  O  O294  1  0.550129  0.846299  0.343479  1
  O  O295  1  0.899525  0.961094  0.456240  1
  O  O296  1  0.116808  0.957481  0.475678  1
  O  O297  1  0.253579  -0.000000  0.333085  1
  O  O298  1  0.900233  0.846310  0.343464  1
  O  O299  1  0.766087  0.957585  0.475692  1
  O  O300  1  0.116890  0.957484  0.317982  1
  O  O301  1  0.200498  0.961042  0.286386  1
  O  O302  1  0.899658  0.961162  0.286426  1
  O  O303  1  0.920333  0.888827  0.325620  1
  O  O304  1  0.413772  0.888812  0.506699  1
  O  O305  1  0.666038  0.888886  0.386920  1
  O  O306  1  0.665987  0.888867  0.506680  1
  O  O307  1  0.413690  0.888804  0.325612  1
  O  O308  1  0.920449  0.888899  0.386923  1
  O  O309  1  0.899800  0.931337  0.364089  1
  O  O310  1  0.550015  0.931310  0.279109  1
  O  O311  1  0.549984  0.931315  0.364077  1
  O  O312  1  0.766902  0.927743  0.310522  1
  O  O313  1  0.465891  0.927726  0.310514  1
  O  O314  1  0.766923  0.927793  0.383644  1
  O  O315  1  0.971799  0.944382  0.332098  1
  O  O316  1  0.694714  0.944507  0.419909  1
  O  O317  1  0.333239  0.944365  0.332093  1
  O  O318  1  0.971668  0.944491  0.419946  1
  O  O319  1  0.767286  0.849809  0.291541  1
  O  O320  1  0.465954  0.849790  0.291570  1
  O  O321  1  0.767271  0.849862  0.364778  1
  O  O322  1  0.000000  -0.000000  0.333111  1
  O  O323  1  0.746345  0.000000  0.514400  1
  O  O324  1  0.233769  0.042466  0.553162  1
  O  O325  1  0.586001  0.111242  0.522121  1
  O  O326  1  0.334053  0.111197  0.522235  1
  O  O327  1  0.666771  0.055691  0.521129  1
  O  O328  1  0.305133  0.055543  0.608904  1
  O  O329  1  0.305361  0.055567  0.521141  1
  O  O330  1  0.028367  0.055548  0.608962  1
  O  O331  1  0.100294  0.038881  0.572626  1
  O  O332  1  0.449557  0.153787  0.527597  1
  O  O333  1  0.883063  0.042537  0.553217  1
  O  O334  1  0.305059  0.166667  0.548326  1
  O  O335  1  0.253166  0.222146  0.568830  1
  O  O336  1  0.746835  0.222135  0.568790  1
  O  O337  1  0.232202  0.264651  0.607307  1
  O  O338  1  0.883118  0.264680  0.522342  1
  O  O339  1  0.882945  0.264640  0.607416  1
  O  O340  1  0.099859  0.261028  0.553749  1
  O  O341  1  0.799309  0.261112  0.553814  1
  O  O342  1  0.304821  0.277738  0.575475  1
  O  O343  1  0.666303  0.277629  0.575285  1
  O  O344  1  0.099990  0.183108  0.534599  1
  O  O345  1  0.798883  0.183128  0.534694  1
  O  O346  1  0.233104  0.294441  0.529825  1
  O  O347  1  0.333587  0.333300  0.576477  1
  O  O348  1  0.232417  0.179635  0.586526  1
  O  O349  1  0.882653  0.179593  0.586614  1
  O  O350  1  0.533406  0.294349  0.529588  1
  O  O351  1  0.450085  0.290720  0.561281  1
  O  O352  1  0.586612  0.333172  0.576284  1
  O  O353  1  0.666086  0.166692  0.548222  1
  O  O354  1  0.638889  0.388654  0.609340  1
  O  O355  1  0.362133  0.388827  0.609406  1
  O  O356  1  0.361126  0.499935  0.635890  1
  O  O357  1  0.638945  0.499867  0.635901  1
  O  O358  1  0.080127  0.333436  0.514940  1
  O  O359  1  0.567382  0.375803  0.553604  1
  O  O360  1  0.919822  0.444612  0.522478  1
  O  O361  1  0.667388  0.444618  0.522429  1
  O  O362  1  0.000000  0.389037  0.521626  1
  O  O363  1  0.638580  0.389014  0.521562  1
  O  O364  1  0.216736  0.375883  0.553691  1
  O  O365  1  0.783514  0.487149  0.527779  1
  O  O366  1  0.433883  0.372191  0.573052  1
  O  O367  1  0.586643  0.333382  0.514811  1
  O  O368  1  0.361423  0.611138  0.662726  1
  O  O369  1  0.638298  0.611116  0.662725  1
  O  O370  1  0.867007  0.627720  0.529192  1
  O  O371  1  0.783478  0.624142  0.560789  1
  O  O372  1  0.586445  0.555579  0.568508  1
  O  O373  1  0.332568  0.555490  0.629831  1
  O  O374  1  0.080490  0.555553  0.568550  1
  O  O375  1  0.587240  0.555460  0.629869  1
  O  O376  1  0.566257  0.597982  0.606931  1
  O  O377  1  0.216308  0.597985  0.521876  1
  O  O378  1  0.216792  0.597988  0.606916  1
  O  O379  1  0.433267  0.594516  0.553358  1
  O  O380  1  0.132517  0.594420  0.553336  1
  O  O381  1  0.433621  0.594318  0.626474  1
  O  O382  1  0.638183  0.611134  0.574937  1
  O  O383  1  0.000000  0.611122  0.574936  1
  O  O384  1  0.433177  0.516552  0.534511  1
  O  O385  1  0.132288  0.516475  0.534492  1
  O  O386  1  0.434010  0.516432  0.607816  1
  O  O387  1  0.000000  0.500115  0.548297  1
  O  O388  1  0.566301  0.627717  0.529202  1
  O  O389  1  0.566447  0.512978  0.586435  1
  O  O390  1  0.216808  0.512963  0.586418  1
  O  O391  1  0.638366  0.500128  0.548227  1
  O  O392  1  0.919933  0.666650  0.514282  1
  O  O393  1  0.919924  0.666659  0.575830  1
  O  O394  1  0.333565  0.833295  0.548072  1
  O  O395  1  0.413331  0.666677  0.514302  1
  O  O396  1  0.900447  0.709169  0.552999  1
  O  O397  1  0.116967  0.820377  0.527442  1
  O  O398  1  0.253094  0.777812  0.521979  1
  O  O399  1  0.000000  0.777825  0.522019  1
  O  O400  1  0.333346  0.722224  0.520935  1
  O  O401  1  0.971815  0.722240  0.608737  1
  O  O402  1  0.971867  0.722211  0.520938  1
  O  O403  1  0.694991  0.722254  0.608771  1
  O  O404  1  0.766916  0.705605  0.572453  1
  O  O405  1  0.549787  0.709190  0.553028  1
  O  O406  1  0.666630  0.666673  0.575844  1
  O  O407  1  0.253478  0.000000  0.514415  1
  O  O408  1  0.972365  0.833333  0.548086  1
  O  O409  1  0.972307  0.833392  0.635813  1
  O  O410  1  0.694833  0.833380  0.635836  1
  O  O411  1  0.550129  0.846299  0.586364  1
  O  O412  1  0.253579  -0.000000  0.575970  1
  O  O413  1  0.900233  0.846310  0.586349  1
  O  O414  1  0.116890  0.957484  0.560868  1
  O  O415  1  0.200498  0.961042  0.529271  1
  O  O416  1  0.899658  0.961162  0.529311  1
  O  O417  1  0.920333  0.888827  0.568505  1
  O  O418  1  0.666038  0.888886  0.629805  1
  O  O419  1  0.413690  0.888804  0.568497  1
  O  O420  1  0.920449  0.888899  0.629808  1
  O  O421  1  0.899800  0.931337  0.606974  1
  O  O422  1  0.550015  0.931310  0.521994  1
  O  O423  1  0.549984  0.931315  0.606962  1
  O  O424  1  0.766902  0.927743  0.553407  1
  O  O425  1  0.465891  0.927726  0.553399  1
  O  O426  1  0.766923  0.927793  0.626529  1
  O  O427  1  0.971799  0.944382  0.574983  1
  O  O428  1  0.694714  0.944507  0.662794  1
  O  O429  1  0.333239  0.944365  0.574978  1
  O  O430  1  0.971668  0.944491  0.662831  1
  O  O431  1  0.767286  0.849809  0.534426  1
  O  O432  1  0.465954  0.849790  0.534455  1
  O  O433  1  0.767271  0.849862  0.607663  1
  O  O434  1  0.000000  -0.000000  0.575996  1
  Si  Si435  1  0.106578  0.076152  0.209209  1
  Si  Si436  1  0.560465  0.076237  0.264239  1
  Si  Si437  1  0.333364  0.076159  0.153931  1
  Si  Si438  1  0.333421  0.076214  0.264325  1
  Si  Si439  1  0.560611  0.076283  0.209168  1
  Si  Si440  1  0.106717  0.076095  0.154002  1
  Si  Si441  1  0.106094  0.146146  0.226242  1
  Si  Si442  1  0.332956  0.146145  0.171006  1
  Si  Si443  1  0.560032  0.146279  0.226188  1
  Si  Si444  1  0.106324  0.146092  0.171097  1
  Si  Si445  1  0.772963  0.035077  0.224968  1
  Si  Si446  1  0.000000  0.035009  0.225005  1
  Si  Si447  1  0.772782  0.187239  0.262086  1
  Si  Si448  1  0.000000  0.187184  0.261986  1
  Si  Si449  1  0.106595  0.298434  0.263566  1
  Si  Si450  1  0.332977  0.298434  0.208223  1
  Si  Si451  1  0.560167  0.298381  0.263405  1
  Si  Si452  1  0.106544  0.298334  0.208335  1
  Si  Si453  1  0.439885  0.409564  0.209571  1
  Si  Si454  1  0.894018  0.409593  0.264715  1
  Si  Si455  1  0.666935  0.409388  0.154317  1
  Si  Si456  1  0.666686  0.409585  0.264684  1
  Si  Si457  1  0.893994  0.409469  0.209578  1
  Si  Si458  1  0.440225  0.409483  0.154389  1
  Si  Si459  1  0.439949  0.479558  0.226224  1
  Si  Si460  1  0.666608  0.479381  0.170998  1
  Si  Si461  1  0.893352  0.479459  0.226268  1
  Si  Si462  1  0.439754  0.479477  0.171018  1
  Si  Si463  1  0.106523  0.368339  0.225453  1
  Si  Si464  1  0.333584  0.368443  0.225408  1
  Si  Si465  1  0.105943  0.520480  0.261833  1
  Si  Si466  1  0.332975  0.520562  0.261847  1
  Si  Si467  1  0.439690  0.631669  0.262957  1
  Si  Si468  1  0.666349  0.631707  0.207754  1
  Si  Si469  1  0.893529  0.631655  0.262943  1
  Si  Si470  1  0.439653  0.631707  0.207762  1
  Si  Si471  1  0.773191  0.742864  0.209001  1
  Si  Si472  1  0.773321  0.812859  0.226042  1
  Si  Si473  1  0.227191  0.812837  0.226020  1
  Si  Si474  1  0.227138  0.742842  0.208979  1
  Si  Si475  1  0.227163  0.742819  0.264079  1
  Si  Si476  1  0.000000  0.742833  0.264107  1
  Si  Si477  1  0.439655  0.701711  0.224804  1
  Si  Si478  1  0.666834  0.701711  0.224786  1
  Si  Si479  1  0.227082  0.964983  0.263036  1
  Si  Si480  1  0.773055  0.965094  0.263080  1
  Si  Si481  1  0.439905  0.853819  0.261829  1
  Si  Si482  1  0.666900  0.853868  0.261809  1
  Si  Si483  1  0.000000  0.965010  0.207889  1
  Si  Si484  1  0.772893  0.965073  0.207849  1
  Si  Si485  1  0.227076  0.034984  0.280042  1
  Si  Si486  1  0.772972  0.035087  0.280053  1
  Si  Si487  1  0.106578  0.076152  0.452094  1
  Si  Si488  1  0.560465  0.076237  0.507124  1
  Si  Si489  1  0.333364  0.076159  0.396816  1
  Si  Si490  1  0.333421  0.076214  0.507210  1
  Si  Si491  1  0.560611  0.076283  0.452053  1
  Si  Si492  1  0.106717  0.076095  0.396887  1
  Si  Si493  1  0.106094  0.146146  0.469127  1
  Si  Si494  1  0.559733  0.146228  0.281248  1
  Si  Si495  1  0.332956  0.146145  0.413891  1
  Si  Si496  1  0.332934  0.146210  0.281370  1
  Si  Si497  1  0.560032  0.146279  0.469073  1
  Si  Si498  1  0.106324  0.146092  0.413982  1
  Si  Si499  1  0.772963  0.035077  0.467853  1
  Si  Si500  1  0.000000  0.035004  0.333254  1
  Si  Si501  1  0.000000  0.035009  0.467890  1
  Si  Si502  1  0.226865  0.034954  0.335214  1
  Si  Si503  1  0.226406  0.257134  0.334293  1
  Si  Si504  1  0.772742  0.257140  0.334283  1
  Si  Si505  1  0.226328  0.187139  0.317132  1
  Si  Si506  1  0.772602  0.187139  0.317145  1
  Si  Si507  1  0.772685  0.257239  0.279201  1
  Si  Si508  1  0.000000  0.257189  0.389598  1
  Si  Si509  1  0.000000  0.257178  0.279144  1
  Si  Si510  1  0.226244  0.257240  0.389509  1
  Si  Si511  1  0.772782  0.187239  0.504971  1
  Si  Si512  1  0.000000  0.187192  0.372371  1
  Si  Si513  1  0.000000  0.187184  0.504871  1
  Si  Si514  1  0.226058  0.187247  0.372290  1
  Si  Si515  1  0.106595  0.298434  0.506451  1
  Si  Si516  1  0.560013  0.298193  0.318416  1
  Si  Si517  1  0.332977  0.298434  0.451109  1
  Si  Si518  1  0.333212  0.298298  0.318639  1
  Si  Si519  1  0.560167  0.298381  0.506290  1
  Si  Si520  1  0.106544  0.298334  0.451220  1
  Si  Si521  1  0.439885  0.409564  0.452457  1
  Si  Si522  1  0.894018  0.409593  0.507600  1
  Si  Si523  1  0.666935  0.409388  0.397202  1
  Si  Si524  1  0.666686  0.409585  0.507569  1
  Si  Si525  1  0.893994  0.409469  0.452463  1
  Si  Si526  1  0.440225  0.409483  0.397274  1
  Si  Si527  1  0.439949  0.479558  0.469109  1
  Si  Si528  1  0.893736  0.479589  0.281455  1
  Si  Si529  1  0.666608  0.479381  0.413883  1
  Si  Si530  1  0.666572  0.479579  0.281388  1
  Si  Si531  1  0.893352  0.479459  0.469153  1
  Si  Si532  1  0.439754  0.479477  0.413903  1
  Si  Si533  1  0.560368  0.368390  0.280451  1
  Si  Si534  1  0.106523  0.368339  0.468338  1
  Si  Si535  1  0.333835  0.368296  0.335689  1
  Si  Si536  1  0.333584  0.368443  0.468293  1
  Si  Si537  1  0.106503  0.368438  0.280552  1
  Si  Si538  1  0.560445  0.368193  0.335611  1
  Si  Si539  1  0.559894  0.590590  0.333867  1
  Si  Si540  1  0.105903  0.590477  0.278718  1
  Si  Si541  1  0.333411  0.590472  0.389074  1
  Si  Si542  1  0.333149  0.590561  0.278741  1
  Si  Si543  1  0.106202  0.590546  0.333874  1
  Si  Si544  1  0.560268  0.590444  0.389084  1
  Si  Si545  1  0.559629  0.520596  0.317006  1
  Si  Si546  1  0.105943  0.520480  0.504718  1
  Si  Si547  1  0.333493  0.520476  0.372189  1
  Si  Si548  1  0.332975  0.520562  0.504732  1
  Si  Si549  1  0.106482  0.520551  0.317025  1
  Si  Si550  1  0.560440  0.520450  0.372230  1
  Si  Si551  1  0.439690  0.631669  0.505842  1
  Si  Si552  1  0.893593  0.631655  0.318029  1
  Si  Si553  1  0.666349  0.631707  0.450639  1
  Si  Si554  1  0.666386  0.631665  0.318038  1
  Si  Si555  1  0.893529  0.631655  0.505828  1
  Si  Si556  1  0.439653  0.631707  0.450648  1
  Si  Si557  1  0.773191  0.742864  0.451886  1
  Si  Si558  1  0.773321  0.812859  0.468927  1
  Si  Si559  1  0.227191  0.812837  0.468905  1
  Si  Si560  1  0.227138  0.742842  0.451864  1
  Si  Si561  1  0.227163  0.742819  0.506964  1
  Si  Si562  1  0.000000  0.742854  0.396648  1
  Si  Si563  1  0.000000  0.742833  0.506992  1
  Si  Si564  1  0.773173  0.742856  0.396674  1
  Si  Si565  1  0.227202  0.812816  0.281123  1
  Si  Si566  1  0.000000  0.812847  0.413742  1
  Si  Si567  1  0.000000  0.812828  0.279152  1
  Si  Si568  1  0.773370  0.812850  0.413769  1
  Si  Si569  1  0.893547  0.701660  0.279854  1
  Si  Si570  1  0.439655  0.701711  0.467690  1
  Si  Si571  1  0.666861  0.701674  0.335072  1
  Si  Si572  1  0.666834  0.701711  0.467671  1
  Si  Si573  1  0.439659  0.701676  0.279874  1
  Si  Si574  1  0.893529  0.701662  0.335051  1
  Si  Si575  1  0.227082  0.964983  0.505921  1
  Si  Si576  1  0.773055  0.965094  0.505965  1
  Si  Si577  1  0.893550  0.923823  0.333908  1
  Si  Si578  1  0.439532  0.923814  0.278808  1
  Si  Si579  1  0.666743  0.923886  0.389123  1
  Si  Si580  1  0.666747  0.923855  0.278808  1
  Si  Si581  1  0.439489  0.923806  0.333904  1
  Si  Si582  1  0.893596  0.923895  0.389140  1
  Si  Si583  1  0.893728  0.853826  0.316914  1
  Si  Si584  1  0.439905  0.853819  0.504714  1
  Si  Si585  1  0.666911  0.853892  0.372100  1
  Si  Si586  1  0.666900  0.853868  0.504694  1
  Si  Si587  1  0.439837  0.853821  0.316932  1
  Si  Si588  1  0.893727  0.853901  0.372093  1
  Si  Si589  1  0.227022  0.964960  0.318106  1
  Si  Si590  1  0.000000  0.965010  0.450774  1
  Si  Si591  1  0.000000  0.964997  0.320112  1
  Si  Si592  1  0.772893  0.965073  0.450734  1
  Si  Si593  1  0.227076  0.034984  0.522927  1
  Si  Si594  1  0.772972  0.035087  0.522938  1
  Si  Si595  1  0.559733  0.146228  0.524133  1
  Si  Si596  1  0.332934  0.146210  0.524256  1
  Si  Si597  1  0.000000  0.035004  0.576139  1
  Si  Si598  1  0.226865  0.034954  0.578099  1
  Si  Si599  1  0.226406  0.257134  0.577178  1
  Si  Si600  1  0.772742  0.257140  0.577169  1
  Si  Si601  1  0.226328  0.187139  0.560017  1
  Si  Si602  1  0.772602  0.187139  0.560030  1
  Si  Si603  1  0.772685  0.257239  0.522086  1
  Si  Si604  1  0.000000  0.257178  0.522029  1
  Si  Si605  1  0.560013  0.298193  0.561301  1
  Si  Si606  1  0.333212  0.298298  0.561524  1
  Si  Si607  1  0.893736  0.479589  0.524341  1
  Si  Si608  1  0.666572  0.479579  0.524273  1
  Si  Si609  1  0.560368  0.368390  0.523336  1
  Si  Si610  1  0.333835  0.368296  0.578574  1
  Si  Si611  1  0.106503  0.368438  0.523437  1
  Si  Si612  1  0.560445  0.368193  0.578496  1
  Si  Si613  1  0.559894  0.590590  0.576752  1
  Si  Si614  1  0.105903  0.590477  0.521603  1
  Si  Si615  1  0.333411  0.590472  0.631959  1
  Si  Si616  1  0.333149  0.590561  0.521626  1
  Si  Si617  1  0.106202  0.590546  0.576759  1
  Si  Si618  1  0.560268  0.590444  0.631969  1
  Si  Si619  1  0.559629  0.520596  0.559891  1
  Si  Si620  1  0.333493  0.520476  0.615074  1
  Si  Si621  1  0.106482  0.520551  0.559910  1
  Si  Si622  1  0.560440  0.520450  0.615115  1
  Si  Si623  1  0.893593  0.631655  0.560914  1
  Si  Si624  1  0.666386  0.631665  0.560923  1
  Si  Si625  1  0.227202  0.812816  0.524009  1
  Si  Si626  1  0.000000  0.812828  0.522037  1
  Si  Si627  1  0.893547  0.701660  0.522739  1
  Si  Si628  1  0.666861  0.701674  0.577957  1
  Si  Si629  1  0.439659  0.701676  0.522759  1
  Si  Si630  1  0.893529  0.701662  0.577936  1
  Si  Si631  1  0.893550  0.923823  0.576793  1
  Si  Si632  1  0.439532  0.923814  0.521693  1
  Si  Si633  1  0.666743  0.923886  0.632008  1
  Si  Si634  1  0.666747  0.923855  0.521693  1
  Si  Si635  1  0.439489  0.923806  0.576789  1
  Si  Si636  1  0.893596  0.923895  0.632025  1
  Si  Si637  1  0.893728  0.853826  0.559799  1
  Si  Si638  1  0.666911  0.853892  0.614985  1
  Si  Si639  1  0.439837  0.853821  0.559817  1
  Si  Si640  1  0.893727  0.853901  0.614978  1
  Si  Si641  1  0.227022  0.964960  0.560991  1
  Si  Si642  1  0.000000  0.964997  0.562997  1
  H  H643  1  0.305133  0.055543  0.107017  1
  H  H644  1  0.028367  0.055548  0.107075  1
  H  H645  1  0.027500  0.166595  0.134155  1
  H  H646  1  0.027969  0.277761  0.161427  1
  H  H647  1  0.304616  0.277874  0.161266  1
  H  H648  1  0.304745  0.166704  0.134070  1
  H  H649  1  0.638889  0.388654  0.107452  1
  H  H650  1  0.362133  0.388827  0.107519  1
  H  H651  1  0.361126  0.499935  0.134002  1
  H  H652  1  0.638945  0.499867  0.134014  1
  H  H653  1  0.361423  0.611138  0.160839  1
  H  H654  1  0.638298  0.611116  0.160838  1
  H  H655  1  0.116954  0.820399  0.183363  1
  H  H656  1  0.767031  0.735391  0.162717  1
  H  H657  1  0.116663  0.735378  0.162680  1
  H  H658  1  0.766916  0.820410  0.183401  1
  H  H659  1  0.694714  0.944507  0.160907  1
  H  H660  1  0.971668  0.944491  0.160944  1
  H  H661  1  0.305133  0.055543  0.625021  1
  H  H662  1  0.028367  0.055548  0.625080  1
  H  H663  1  0.232202  0.264651  0.623424  1
  H  H664  1  0.882945  0.264640  0.623534  1
  H  H665  1  0.232417  0.179635  0.602643  1
  H  H666  1  0.882653  0.179593  0.602731  1
  H  H667  1  0.638889  0.388654  0.625457  1
  H  H668  1  0.362133  0.388827  0.625523  1
  H  H669  1  0.361126  0.499935  0.652007  1
  H  H670  1  0.638945  0.499867  0.652018  1
  H  H671  1  0.361423  0.611138  0.678843  1
  H  H672  1  0.638298  0.611116  0.678843  1
  H  H673  1  0.971815  0.722240  0.624854  1
  H  H674  1  0.694991  0.722254  0.624888  1
  H  H675  1  0.972307  0.833392  0.651930  1
  H  H676  1  0.694833  0.833380  0.651953  1
  H  H677  1  0.694714  0.944507  0.678911  1
  H  H678  1  0.971668  0.944491  0.678948  1
