# generated using pymatgen
data_Si10H2O21
_symmetry_space_group_name_H-M   'P 1'
_cell_length_a   10.13810602
_cell_length_b   35.95875048
_cell_length_c   43.78201968
_cell_angle_alpha   106.37546612
_cell_angle_beta   90.00000000
_cell_angle_gamma   90.00000000
_symmetry_Int_Tables_number   1
_chemical_formula_structural   Si10H2O21
_chemical_formula_sum   'Si120 H24 O252'
_cell_volume   15313.4368661
_cell_formula_units_Z   12
loop_
 _symmetry_equiv_pos_site_id
 _symmetry_equiv_pos_as_xyz
  1  'x, y, z'
loop_
 _atom_site_type_symbol
 _atom_site_label
 _atom_site_symmetry_multiplicity
 _atom_site_fract_x
 _atom_site_fract_y
 _atom_site_fract_z
 _atom_site_occupancy
  O  O1  1  0.249929  0.457630  0.139587  1
  O  O2  1  0.749734  0.957637  0.139592  1
  O  O3  1  0.249892  0.152047  0.227711  1
  O  O4  1  0.249718  0.152040  0.373060  1
  O  O5  1  0.563593  0.098010  0.287903  1
  O  O6  1  0.935889  0.097985  0.287846  1
  O  O7  1  0.127455  0.125078  0.265829  1
  O  O8  1  0.372089  0.125079  0.322469  1
  O  O9  1  0.127471  0.124910  0.322439  1
  O  O10  1  0.372090  0.125020  0.265814  1
  O  O11  1  0.249601  0.076038  0.219392  1
  O  O12  1  0.250209  0.076022  0.346227  1
  O  O13  1  0.749681  0.046788  0.276037  1
  O  O14  1  0.540031  0.033499  0.243695  1
  O  O15  1  0.959373  0.033481  0.302198  1
  O  O16  1  0.540026  0.033476  0.302221  1
  O  O17  1  0.959252  0.033447  0.243660  1
  O  O18  1  0.122910  0.013425  0.338903  1
  O  O19  1  0.376508  0.013384  0.197705  1
  O  O20  1  0.122827  0.013365  0.197681  1
  O  O21  1  0.376602  0.013305  0.338899  1
  O  O22  1  0.249763  0.042402  0.159245  1
  O  O23  1  0.976135  0.326033  0.224898  1
  O  O24  1  0.523881  0.326012  0.224885  1
  O  O25  1  0.523734  0.174026  0.305457  1
  O  O26  1  0.975962  0.173996  0.305573  1
  O  O27  1  0.249838  0.203258  0.196461  1
  O  O28  1  0.250104  0.296786  0.333916  1
  O  O29  1  0.123614  0.216570  0.248104  1
  O  O30  1  0.376379  0.216562  0.248072  1
  O  O31  1  0.376284  0.283475  0.282262  1
  O  O32  1  0.123553  0.283500  0.379368  1
  O  O33  1  0.376334  0.283475  0.379399  1
  O  O34  1  0.123511  0.283467  0.282320  1
  O  O35  1  0.945029  0.236611  0.290600  1
  O  O36  1  0.554816  0.236670  0.349360  1
  O  O37  1  0.944934  0.236718  0.349363  1
  O  O38  1  0.554829  0.236690  0.290623  1
  O  O39  1  0.554944  0.263375  0.239770  1
  O  O40  1  0.945074  0.263373  0.181033  1
  O  O41  1  0.554922  0.263338  0.181023  1
  O  O42  1  0.945080  0.263377  0.239779  1
  O  O43  1  0.750019  0.292402  0.217118  1
  O  O44  1  0.749887  0.207639  0.313268  1
  O  O45  1  0.936103  0.402046  0.242510  1
  O  O46  1  0.563830  0.402024  0.242500  1
  O  O47  1  0.249919  0.347994  0.302668  1
  O  O48  1  0.249997  0.348006  0.157319  1
  O  O49  1  0.127680  0.375018  0.264564  1
  O  O50  1  0.372281  0.375013  0.207929  1
  O  O51  1  0.127652  0.375045  0.207926  1
  O  O52  1  0.372310  0.374993  0.264570  1
  O  O53  1  0.249983  0.424008  0.310997  1
  O  O54  1  0.250050  0.424016  0.184168  1
  O  O55  1  0.749921  0.453250  0.254362  1
  O  O56  1  0.959574  0.466572  0.286707  1
  O  O57  1  0.540268  0.466535  0.228157  1
  O  O58  1  0.959526  0.466565  0.228174  1
  O  O59  1  0.540241  0.466549  0.286693  1
  O  O60  1  0.376701  0.486687  0.191489  1
  O  O61  1  0.123125  0.486673  0.332693  1
  O  O62  1  0.376796  0.486671  0.332700  1
  O  O63  1  0.122997  0.486644  0.191470  1
  O  O64  1  0.249929  0.457630  0.371140  1
  O  O65  1  0.749928  0.652041  0.227680  1
  O  O66  1  0.749805  0.652027  0.373024  1
  O  O67  1  0.063804  0.597991  0.287844  1
  O  O68  1  0.436080  0.597989  0.287844  1
  O  O69  1  0.627521  0.625098  0.265801  1
  O  O70  1  0.872209  0.624972  0.322421  1
  O  O71  1  0.627588  0.624994  0.322417  1
  O  O72  1  0.872165  0.624983  0.265775  1
  O  O73  1  0.749607  0.576030  0.219363  1
  O  O74  1  0.749806  0.576013  0.346195  1
  O  O75  1  0.249997  0.546775  0.276006  1
  O  O76  1  0.040367  0.533465  0.243655  1
  O  O77  1  0.459648  0.533475  0.302197  1
  O  O78  1  0.040333  0.533481  0.302189  1
  O  O79  1  0.459657  0.533459  0.243662  1
  O  O80  1  0.623153  0.513331  0.338872  1
  O  O81  1  0.876748  0.513397  0.197689  1
  O  O82  1  0.623079  0.513330  0.197646  1
  O  O83  1  0.876840  0.513386  0.338887  1
  O  O84  1  0.749925  0.542397  0.159220  1
  O  O85  1  0.475824  0.826007  0.224921  1
  O  O86  1  0.023600  0.826044  0.224797  1
  O  O87  1  0.023630  0.673998  0.305444  1
  O  O88  1  0.475863  0.674009  0.305521  1
  O  O89  1  0.749747  0.703244  0.196425  1
  O  O90  1  0.749683  0.796780  0.333902  1
  O  O91  1  0.623412  0.716545  0.248058  1
  O  O92  1  0.876176  0.716580  0.248049  1
  O  O93  1  0.876087  0.783470  0.282279  1
  O  O94  1  0.623388  0.783486  0.379377  1
  O  O95  1  0.876168  0.783470  0.379351  1
  O  O96  1  0.623323  0.783450  0.282265  1
  O  O97  1  0.444860  0.736620  0.290578  1
  O  O98  1  0.054659  0.736664  0.349317  1
  O  O99  1  0.444789  0.736710  0.349341  1
  O  O100  1  0.054677  0.736658  0.290573  1
  O  O101  1  0.054595  0.763432  0.239756  1
  O  O102  1  0.444824  0.763363  0.181008  1
  O  O103  1  0.054678  0.763329  0.180991  1
  O  O104  1  0.444775  0.763333  0.239741  1
  O  O105  1  0.249712  0.792396  0.217089  1
  O  O106  1  0.249737  0.707630  0.313237  1
  O  O107  1  0.435953  0.902029  0.242485  1
  O  O108  1  0.063655  0.902051  0.242533  1
  O  O109  1  0.749702  0.847981  0.302654  1
  O  O110  1  0.749859  0.848000  0.157311  1
  O  O111  1  0.627460  0.875014  0.264563  1
  O  O112  1  0.872065  0.875130  0.207937  1
  O  O113  1  0.627439  0.874948  0.207906  1
  O  O114  1  0.872089  0.874970  0.264548  1
  O  O115  1  0.749886  0.923995  0.310995  1
  O  O116  1  0.749262  0.924014  0.184158  1
  O  O117  1  0.249853  0.953250  0.254360  1
  O  O118  1  0.459494  0.966542  0.286702  1
  O  O119  1  0.040164  0.966555  0.228192  1
  O  O120  1  0.459494  0.966567  0.228177  1
  O  O121  1  0.040257  0.966585  0.286729  1
  O  O122  1  0.876595  0.986605  0.191488  1
  O  O123  1  0.622999  0.986657  0.332691  1
  O  O124  1  0.876673  0.986667  0.332706  1
  O  O125  1  0.622902  0.986739  0.191495  1
  O  O126  1  0.749734  0.957637  0.371145  1
  O  O127  1  0.249892  0.152047  0.459264  1
  O  O128  1  0.249718  0.152040  0.604613  1
  O  O129  1  0.563593  0.098010  0.519456  1
  O  O130  1  0.935889  0.097985  0.519399  1
  O  O131  1  0.127455  0.125078  0.497382  1
  O  O132  1  0.372089  0.125079  0.554022  1
  O  O133  1  0.127471  0.124910  0.553993  1
  O  O134  1  0.372090  0.125020  0.497367  1
  O  O135  1  0.249601  0.076038  0.450945  1
  O  O136  1  0.250209  0.076022  0.577780  1
  O  O137  1  0.749681  0.046788  0.507590  1
  O  O138  1  0.540031  0.033499  0.475248  1
  O  O139  1  0.959373  0.033481  0.533751  1
  O  O140  1  0.540026  0.033476  0.533774  1
  O  O141  1  0.959252  0.033447  0.475213  1
  O  O142  1  0.122910  0.013425  0.570456  1
  O  O143  1  0.376508  0.013384  0.429258  1
  O  O144  1  0.122827  0.013365  0.429235  1
  O  O145  1  0.376602  0.013305  0.570452  1
  O  O146  1  0.249763  0.042402  0.390798  1
  O  O147  1  0.976135  0.326033  0.456451  1
  O  O148  1  0.523881  0.326012  0.456438  1
  O  O149  1  0.523734  0.174026  0.537010  1
  O  O150  1  0.975962  0.173996  0.537126  1
  O  O151  1  0.249838  0.203258  0.428014  1
  O  O152  1  0.250104  0.296786  0.565470  1
  O  O153  1  0.123614  0.216570  0.479657  1
  O  O154  1  0.376303  0.216546  0.382560  1
  O  O155  1  0.123528  0.216580  0.382542  1
  O  O156  1  0.376379  0.216562  0.479625  1
  O  O157  1  0.376284  0.283475  0.513815  1
  O  O158  1  0.123511  0.283467  0.513873  1
  O  O159  1  0.945029  0.236611  0.522153  1
  O  O160  1  0.554816  0.236670  0.580913  1
  O  O161  1  0.944934  0.236718  0.580917  1
  O  O162  1  0.554829  0.236690  0.522176  1
  O  O163  1  0.554944  0.263375  0.471324  1
  O  O164  1  0.945074  0.263373  0.412586  1
  O  O165  1  0.554922  0.263338  0.412576  1
  O  O166  1  0.945080  0.263377  0.471333  1
  O  O167  1  0.750019  0.292402  0.448671  1
  O  O168  1  0.749887  0.207639  0.544822  1
  O  O169  1  0.936103  0.402046  0.474064  1
  O  O170  1  0.563830  0.402024  0.474053  1
  O  O171  1  0.249919  0.347994  0.534222  1
  O  O172  1  0.249997  0.348006  0.388872  1
  O  O173  1  0.127680  0.375018  0.496117  1
  O  O174  1  0.372281  0.375013  0.439482  1
  O  O175  1  0.127652  0.375045  0.439479  1
  O  O176  1  0.372310  0.374993  0.496123  1
  O  O177  1  0.249983  0.424008  0.542550  1
  O  O178  1  0.250050  0.424016  0.415722  1
  O  O179  1  0.749921  0.453250  0.485915  1
  O  O180  1  0.959574  0.466572  0.518260  1
  O  O181  1  0.540268  0.466535  0.459710  1
  O  O182  1  0.959526  0.466565  0.459727  1
  O  O183  1  0.540241  0.466549  0.518246  1
  O  O184  1  0.376701  0.486687  0.423042  1
  O  O185  1  0.123125  0.486673  0.564246  1
  O  O186  1  0.376796  0.486671  0.564254  1
  O  O187  1  0.122997  0.486644  0.423024  1
  O  O188  1  0.249929  0.457630  0.602694  1
  O  O189  1  0.749928  0.652041  0.459233  1
  O  O190  1  0.749805  0.652027  0.604577  1
  O  O191  1  0.063804  0.597991  0.519397  1
  O  O192  1  0.436080  0.597989  0.519397  1
  O  O193  1  0.627521  0.625098  0.497354  1
  O  O194  1  0.872209  0.624972  0.553974  1
  O  O195  1  0.627588  0.624994  0.553970  1
  O  O196  1  0.872165  0.624983  0.497329  1
  O  O197  1  0.749607  0.576030  0.450917  1
  O  O198  1  0.749806  0.576013  0.577748  1
  O  O199  1  0.249997  0.546775  0.507560  1
  O  O200  1  0.040367  0.533465  0.475208  1
  O  O201  1  0.459648  0.533475  0.533750  1
  O  O202  1  0.040333  0.533481  0.533742  1
  O  O203  1  0.459657  0.533459  0.475215  1
  O  O204  1  0.623153  0.513331  0.570425  1
  O  O205  1  0.876748  0.513397  0.429242  1
  O  O206  1  0.623079  0.513330  0.429200  1
  O  O207  1  0.876840  0.513386  0.570440  1
  O  O208  1  0.749925  0.542397  0.390774  1
  O  O209  1  0.475824  0.826007  0.456475  1
  O  O210  1  0.023600  0.826044  0.456350  1
  O  O211  1  0.023630  0.673998  0.536997  1
  O  O212  1  0.475863  0.674009  0.537074  1
  O  O213  1  0.749747  0.703244  0.427979  1
  O  O214  1  0.749683  0.796780  0.565456  1
  O  O215  1  0.623412  0.716545  0.479612  1
  O  O216  1  0.876112  0.716546  0.382512  1
  O  O217  1  0.623326  0.716551  0.382521  1
  O  O218  1  0.876176  0.716580  0.479602  1
  O  O219  1  0.876087  0.783470  0.513833  1
  O  O220  1  0.623323  0.783450  0.513818  1
  O  O221  1  0.444860  0.736620  0.522131  1
  O  O222  1  0.054659  0.736664  0.580870  1
  O  O223  1  0.444789  0.736710  0.580894  1
  O  O224  1  0.054677  0.736658  0.522126  1
  O  O225  1  0.054595  0.763432  0.471310  1
  O  O226  1  0.444824  0.763363  0.412561  1
  O  O227  1  0.054678  0.763329  0.412544  1
  O  O228  1  0.444775  0.763333  0.471294  1
  O  O229  1  0.249712  0.792396  0.448642  1
  O  O230  1  0.249737  0.707630  0.544791  1
  O  O231  1  0.435953  0.902029  0.474039  1
  O  O232  1  0.063655  0.902051  0.474087  1
  O  O233  1  0.749702  0.847981  0.534208  1
  O  O234  1  0.749859  0.848000  0.388865  1
  O  O235  1  0.627460  0.875014  0.496117  1
  O  O236  1  0.872065  0.875130  0.439490  1
  O  O237  1  0.627439  0.874948  0.439460  1
  O  O238  1  0.872089  0.874970  0.496101  1
  O  O239  1  0.749886  0.923995  0.542548  1
  O  O240  1  0.749262  0.924014  0.415711  1
  O  O241  1  0.249853  0.953250  0.485914  1
  O  O242  1  0.459494  0.966542  0.518255  1
  O  O243  1  0.040164  0.966555  0.459746  1
  O  O244  1  0.459494  0.966567  0.459730  1
  O  O245  1  0.040257  0.966585  0.518283  1
  O  O246  1  0.876595  0.986605  0.423042  1
  O  O247  1  0.622999  0.986657  0.564244  1
  O  O248  1  0.876673  0.986667  0.564259  1
  O  O249  1  0.622902  0.986739  0.423049  1
  O  O250  1  0.749734  0.957637  0.602699  1
  O  O251  1  0.249763  0.042402  0.622352  1
  O  O252  1  0.749925  0.542397  0.622327  1
  Si  Si253  1  0.249752  0.117559  0.243188  1
  Si  Si254  1  0.249854  0.117527  0.341629  1
  Si  Si255  1  0.462367  0.132521  0.295868  1
  Si  Si256  1  0.037206  0.132475  0.295880  1
  Si  Si257  1  0.598062  0.053485  0.277593  1
  Si  Si258  1  0.901310  0.053466  0.277559  1
  Si  Si259  1  0.499732  0.000000  0.213598  1
  Si  Si260  1  0.249667  0.036270  0.193167  1
  Si  Si261  1  0.249850  0.036255  0.354035  1
  Si  Si262  1  -0.000000  0.000000  0.316803  1
  Si  Si263  1  0.249953  0.196568  0.230021  1
  Si  Si264  1  0.249948  0.303472  0.300355  1
  Si  Si265  1  0.250004  0.303482  0.370575  1
  Si  Si266  1  0.027096  0.250007  0.265202  1
  Si  Si267  1  0.472806  0.250025  0.265183  1
  Si  Si268  1  0.902642  0.286267  0.215706  1
  Si  Si269  1  0.597402  0.286251  0.215689  1
  Si  Si270  1  0.597269  0.213786  0.314686  1
  Si  Si271  1  0.902513  0.213769  0.314700  1
  Si  Si272  1  0.037399  0.367552  0.234514  1
  Si  Si273  1  0.462561  0.367522  0.234513  1
  Si  Si274  1  0.249981  0.382489  0.287200  1
  Si  Si275  1  0.249996  0.382507  0.188758  1
  Si  Si276  1  0.901548  0.446566  0.252813  1
  Si  Si277  1  0.598304  0.446549  0.252801  1
  Si  Si278  1  0.249952  0.463775  0.337223  1
  Si  Si279  1  0.249900  0.463777  0.176351  1
  Si  Si280  1  0.499919  0.499998  0.213568  1
  Si  Si281  1  0.749809  0.617553  0.243156  1
  Si  Si282  1  0.749871  0.617516  0.341593  1
  Si  Si283  1  0.962438  0.632471  0.295830  1
  Si  Si284  1  0.537268  0.632509  0.295852  1
  Si  Si285  1  0.098376  0.553471  0.277550  1
  Si  Si286  1  0.401621  0.553465  0.277555  1
  Si  Si287  1  0.000000  0.500030  0.316788  1
  Si  Si288  1  -0.000000  0.500016  0.213577  1
  Si  Si289  1  0.749869  0.536260  0.193140  1
  Si  Si290  1  0.749940  0.536250  0.354011  1
  Si  Si291  1  0.499961  0.500009  0.316785  1
  Si  Si292  1  0.749813  0.696562  0.229988  1
  Si  Si293  1  0.749682  0.803459  0.300338  1
  Si  Si294  1  0.749774  0.803478  0.370562  1
  Si  Si295  1  0.526899  0.749986  0.265160  1
  Si  Si296  1  0.972624  0.750001  0.380930  1
  Si  Si297  1  0.972595  0.750037  0.265165  1
  Si  Si298  1  0.402329  0.786242  0.215680  1
  Si  Si299  1  0.097081  0.786275  0.215656  1
  Si  Si300  1  0.097113  0.713767  0.314646  1
  Si  Si301  1  0.402359  0.713773  0.314675  1
  Si  Si302  1  0.537169  0.867515  0.234512  1
  Si  Si303  1  0.962333  0.867563  0.234495  1
  Si  Si304  1  0.749795  0.882479  0.287189  1
  Si  Si305  1  0.749671  0.882505  0.188747  1
  Si  Si306  1  0.401473  0.946554  0.252803  1
  Si  Si307  1  0.098225  0.946571  0.252832  1
  Si  Si308  1  -0.000000  0.000000  0.213586  1
  Si  Si309  1  0.749642  0.963784  0.176356  1
  Si  Si310  1  0.749833  0.963763  0.337222  1
  Si  Si311  1  0.499777  0.000000  0.316798  1
  Si  Si312  1  0.249752  0.117559  0.474742  1
  Si  Si313  1  0.249854  0.117527  0.573183  1
  Si  Si314  1  0.462367  0.132521  0.527421  1
  Si  Si315  1  0.037206  0.132475  0.527433  1
  Si  Si316  1  0.598062  0.053485  0.509146  1
  Si  Si317  1  0.901310  0.053466  0.509112  1
  Si  Si318  1  0.499732  -0.000000  0.445152  1
  Si  Si319  1  0.249667  0.036270  0.424720  1
  Si  Si320  1  0.249850  0.036255  0.585588  1
  Si  Si321  1  0.000000  -0.000000  0.548357  1
  Si  Si322  1  0.249953  0.196568  0.461574  1
  Si  Si323  1  0.249854  0.196564  0.391355  1
  Si  Si324  1  0.249948  0.303472  0.531908  1
  Si  Si325  1  0.027096  0.250007  0.496755  1
  Si  Si326  1  0.472799  0.250005  0.380975  1
  Si  Si327  1  0.027059  0.250047  0.380966  1
  Si  Si328  1  0.472806  0.250025  0.496737  1
  Si  Si329  1  0.902642  0.286267  0.447259  1
  Si  Si330  1  0.597402  0.286251  0.447243  1
  Si  Si331  1  0.597269  0.213786  0.546239  1
  Si  Si332  1  0.902513  0.213769  0.546254  1
  Si  Si333  1  0.037399  0.367552  0.466067  1
  Si  Si334  1  0.462561  0.367522  0.466066  1
  Si  Si335  1  0.249981  0.382489  0.518753  1
  Si  Si336  1  0.249996  0.382507  0.420311  1
  Si  Si337  1  0.901548  0.446566  0.484366  1
  Si  Si338  1  0.598304  0.446549  0.484354  1
  Si  Si339  1  0.249952  0.463775  0.568777  1
  Si  Si340  1  0.249900  0.463777  0.407904  1
  Si  Si341  1  0.499919  0.499998  0.445122  1
  Si  Si342  1  0.749809  0.617553  0.474709  1
  Si  Si343  1  0.749871  0.617516  0.573147  1
  Si  Si344  1  0.962438  0.632471  0.527383  1
  Si  Si345  1  0.537268  0.632509  0.527405  1
  Si  Si346  1  0.098376  0.553471  0.509103  1
  Si  Si347  1  0.401621  0.553465  0.509108  1
  Si  Si348  1  -0.000000  0.500030  0.548341  1
  Si  Si349  1  -0.000000  0.500016  0.445130  1
  Si  Si350  1  0.749869  0.536260  0.424694  1
  Si  Si351  1  0.749940  0.536250  0.585564  1
  Si  Si352  1  0.499961  0.500009  0.548338  1
  Si  Si353  1  0.749813  0.696562  0.461541  1
  Si  Si354  1  0.749727  0.696551  0.391320  1
  Si  Si355  1  0.749682  0.803459  0.531892  1
  Si  Si356  1  0.526899  0.749986  0.496713  1
  Si  Si357  1  0.526874  0.750027  0.380950  1
  Si  Si358  1  0.972595  0.750037  0.496718  1
  Si  Si359  1  0.402329  0.786242  0.447233  1
  Si  Si360  1  0.097081  0.786275  0.447209  1
  Si  Si361  1  0.097113  0.713767  0.546200  1
  Si  Si362  1  0.402359  0.713773  0.546228  1
  Si  Si363  1  0.537169  0.867515  0.466065  1
  Si  Si364  1  0.962333  0.867563  0.466048  1
  Si  Si365  1  0.749795  0.882479  0.518743  1
  Si  Si366  1  0.749671  0.882505  0.420300  1
  Si  Si367  1  0.401473  0.946554  0.484357  1
  Si  Si368  1  0.098225  0.946571  0.484385  1
  Si  Si369  1  -0.000000  -0.000000  0.445139  1
  Si  Si370  1  0.749642  0.963784  0.407909  1
  Si  Si371  1  0.749833  0.963763  0.568775  1
  Si  Si372  1  0.499777  -0.000000  0.548352  1
  H  H373  1  0.249929  0.457630  0.119031  1
  H  H374  1  0.749734  0.957637  0.119036  1
  H  H375  1  0.249763  0.042402  0.138689  1
  H  H376  1  0.249838  0.203258  0.175904  1
  H  H377  1  0.945074  0.263373  0.160476  1
  H  H378  1  0.554922  0.263338  0.160466  1
  H  H379  1  0.249997  0.348006  0.136763  1
  H  H380  1  0.749925  0.542397  0.138664  1
  H  H381  1  0.749747  0.703244  0.175869  1
  H  H382  1  0.444824  0.763363  0.160451  1
  H  H383  1  0.054678  0.763329  0.160434  1
  H  H384  1  0.749859  0.848000  0.136755  1
  H  H385  1  0.249718  0.152040  0.625169  1
  H  H386  1  0.250104  0.296786  0.586026  1
  H  H387  1  0.554816  0.236670  0.601469  1
  H  H388  1  0.944934  0.236718  0.601473  1
  H  H389  1  0.249929  0.457630  0.623250  1
  H  H390  1  0.749805  0.652027  0.625134  1
  H  H391  1  0.749683  0.796780  0.586012  1
  H  H392  1  0.054659  0.736664  0.601427  1
  H  H393  1  0.444789  0.736710  0.601450  1
  H  H394  1  0.749734  0.957637  0.623255  1
  H  H395  1  0.249763  0.042402  0.642908  1
  H  H396  1  0.749925  0.542397  0.642884  1
