# generated using pymatgen
data_Si20H2O41
_symmetry_space_group_name_H-M   'P 1'
_cell_length_a   5.06483519
_cell_length_b   14.10770455
_cell_length_c   52.25007155
_cell_angle_alpha   90.00000000
_cell_angle_beta   90.00000000
_cell_angle_gamma   90.00000000
_symmetry_Int_Tables_number   1
_chemical_formula_structural   Si20H2O41
_chemical_formula_sum   'Si40 H4 O82'
_cell_volume   3733.43473174
_cell_formula_units_Z   2
loop_
 _symmetry_equiv_pos_site_id
 _symmetry_equiv_pos_as_xyz
  1  'x, y, z'
loop_
 _atom_site_type_symbol
 _atom_site_label
 _atom_site_symmetry_multiplicity
 _atom_site_fract_x
 _atom_site_fract_y
 _atom_site_fract_z
 _atom_site_occupancy
  O  O1  1  0.241022  0.803011  0.112919  1
  O  O2  1  0.742972  0.197522  0.323853  1
  O  O3  1  0.742913  0.197565  0.273725  1
  O  O4  1  0.955105  0.063176  0.298764  1
  O  O5  1  0.456198  0.081978  0.298803  1
  O  O6  1  0.740659  0.050982  0.113015  1
  O  O7  1  0.242615  0.949333  0.273640  1
  O  O8  1  0.241604  0.949292  0.323926  1
  O  O9  1  0.246763  0.674449  0.150299  1
  O  O10  1  0.751212  0.325368  0.236212  1
  O  O11  1  0.749990  0.325297  0.361361  1
  O  O12  1  0.034790  0.837134  0.156200  1
  O  O13  1  0.533025  0.823222  0.152089  1
  O  O14  1  0.037832  0.177036  0.234734  1
  O  O15  1  0.539522  0.162360  0.230406  1
  O  O16  1  0.036936  0.177092  0.362893  1
  O  O17  1  0.538608  0.162128  0.367126  1
  O  O18  1  0.244191  0.485758  0.167516  1
  O  O19  1  0.744820  0.513887  0.219108  1
  O  O20  1  0.744285  0.513876  0.378458  1
  O  O21  1  -0.000000  0.619753  0.189343  1
  O  O22  1  0.499483  0.618784  0.188648  1
  O  O23  1  0.965854  0.379811  0.195411  1
  O  O24  1  0.467203  0.381915  0.199829  1
  O  O25  1  0.965293  0.379770  0.402121  1
  O  O26  1  0.466641  0.381894  0.397773  1
  O  O27  1  0.248129  0.016432  0.228793  1
  O  O28  1  0.246142  0.016347  0.368767  1
  O  O29  1  0.747599  0.983471  0.157865  1
  O  O30  1  0.500033  0.864617  0.237603  1
  O  O31  1  -0.000000  0.863049  0.236763  1
  O  O32  1  0.499581  0.865026  0.359918  1
  O  O33  1  -0.000000  0.862457  0.360946  1
  O  O34  1  0.506714  0.138035  0.150236  1
  O  O35  1  0.006487  0.134195  0.148852  1
  O  O36  1  0.744117  0.712731  0.221958  1
  O  O37  1  0.740389  0.712716  0.375697  1
  O  O38  1  0.248658  0.287033  0.164799  1
  O  O39  1  0.741255  0.863422  0.195151  1
  O  O40  1  0.739122  0.863459  0.402455  1
  O  O41  1  0.243171  0.136580  0.191578  1
  O  O42  1  0.239765  0.802925  0.484685  1
  O  O43  1  0.241022  0.803011  0.534888  1
  O  O44  1  0.742913  0.197565  0.695694  1
  O  O45  1  0.026110  0.936984  0.509795  1
  O  O46  1  0.525128  0.918812  0.509742  1
  O  O47  1  0.740659  0.050982  0.534985  1
  O  O48  1  0.740736  0.051064  0.484589  1
  O  O49  1  0.242615  0.949333  0.695610  1
  O  O50  1  0.246763  0.674449  0.572268  1
  O  O51  1  0.243731  0.674456  0.447240  1
  O  O52  1  0.751212  0.325368  0.658181  1
  O  O53  1  0.034790  0.837134  0.578169  1
  O  O54  1  0.533025  0.823222  0.574059  1
  O  O55  1  0.032042  0.837056  0.441439  1
  O  O56  1  0.530238  0.823277  0.445467  1
  O  O57  1  0.037832  0.177036  0.656703  1
  O  O58  1  0.539522  0.162360  0.652375  1
  O  O59  1  0.244191  0.485758  0.589485  1
  O  O60  1  0.243291  0.485710  0.430064  1
  O  O61  1  0.744820  0.513887  0.641078  1
  O  O62  1  -0.000000  0.619753  0.611313  1
  O  O63  1  0.499483  0.618784  0.610618  1
  O  O64  1  0.011959  0.620102  0.407270  1
  O  O65  1  0.510693  0.617874  0.409902  1
  O  O66  1  0.965854  0.379811  0.617381  1
  O  O67  1  0.467203  0.381915  0.621798  1
  O  O68  1  0.248129  0.016432  0.650762  1
  O  O69  1  0.747599  0.983471  0.579834  1
  O  O70  1  0.745722  0.983497  0.439744  1
  O  O71  1  0.500033  0.864617  0.659573  1
  O  O72  1  0.000000  0.863049  0.658733  1
  O  O73  1  0.506714  0.138035  0.572206  1
  O  O74  1  0.006487  0.134195  0.570821  1
  O  O75  1  0.505568  0.138092  0.447412  1
  O  O76  1  0.005383  0.134147  0.448670  1
  O  O77  1  0.744117  0.712731  0.643927  1
  O  O78  1  0.248658  0.287033  0.586768  1
  O  O79  1  0.247649  0.286975  0.432765  1
  O  O80  1  0.741255  0.863422  0.617121  1
  O  O81  1  0.243171  0.136580  0.613547  1
  O  O82  1  0.243005  0.136436  0.406000  1
  Si  Si83  1  0.724361  0.136531  0.298786  1
  Si  Si84  1  0.224207  0.009418  0.298786  1
  Si  Si85  1  0.263336  0.783060  0.142376  1
  Si  Si86  1  0.767302  0.216959  0.244267  1
  Si  Si87  1  0.766446  0.216877  0.353316  1
  Si  Si88  1  0.247387  0.597406  0.172415  1
  Si  Si89  1  0.732909  0.402267  0.214142  1
  Si  Si90  1  0.732097  0.402262  0.383422  1
  Si  Si91  1  0.247200  0.922182  0.244555  1
  Si  Si92  1  0.245703  0.922068  0.353018  1
  Si  Si93  1  0.750658  0.077798  0.142127  1
  Si  Si94  1  0.747579  0.616734  0.206377  1
  Si  Si95  1  0.751557  0.616671  0.391226  1
  Si  Si96  1  0.232720  0.383002  0.180323  1
  Si  Si97  1  0.746733  0.824986  0.223274  1
  Si  Si98  1  0.745095  0.824945  0.374341  1
  Si  Si99  1  0.250594  0.174863  0.163442  1
  Si  Si100  1  0.763787  0.876655  0.165544  1
  Si  Si101  1  0.267339  0.123249  0.221173  1
  Si  Si102  1  0.266437  0.123128  0.376399  1
  Si  Si103  1  0.257402  0.863935  0.509777  1
  Si  Si104  1  0.757697  0.991105  0.509780  1
  Si  Si105  1  0.263336  0.783060  0.564346  1
  Si  Si106  1  0.260812  0.783006  0.455216  1
  Si  Si107  1  0.767302  0.216959  0.666237  1
  Si  Si108  1  0.247387  0.597406  0.594384  1
  Si  Si109  1  0.251275  0.597336  0.425144  1
  Si  Si110  1  0.732909  0.402267  0.636111  1
  Si  Si111  1  0.247200  0.922182  0.666525  1
  Si  Si112  1  0.750658  0.077798  0.564096  1
  Si  Si113  1  0.749685  0.077835  0.455471  1
  Si  Si114  1  0.747579  0.616734  0.628347  1
  Si  Si115  1  0.232720  0.383002  0.602293  1
  Si  Si116  1  0.231892  0.382976  0.417248  1
  Si  Si117  1  0.746733  0.824986  0.645244  1
  Si  Si118  1  0.250594  0.174863  0.585412  1
  Si  Si119  1  0.249724  0.174811  0.434128  1
  Si  Si120  1  0.763787  0.876655  0.587513  1
  Si  Si121  1  0.761340  0.876677  0.432063  1
  Si  Si122  1  0.267339  0.123249  0.643143  1
  H  H123  1  0.241022  0.803011  0.095694  1
  H  H124  1  0.740659  0.050982  0.095790  1
  H  H125  1  0.742913  0.197565  0.712919  1
  H  H126  1  0.242615  0.949333  0.712835  1
