# generated using pymatgen
data_Si3H2O7
_symmetry_space_group_name_H-M   'P 1'
_cell_length_a   8.73685056
_cell_length_b   12.35561169
_cell_length_c   38.82097502
_cell_angle_alpha   134.99932688
_cell_angle_beta   90.00000000
_cell_angle_gamma   90.00000000
_symmetry_Int_Tables_number   1
_chemical_formula_structural   Si3H2O7
_chemical_formula_sum   'Si12 H8 O28'
_cell_volume   2963.30054794
_cell_formula_units_Z   4
loop_
 _symmetry_equiv_pos_site_id
 _symmetry_equiv_pos_as_xyz
  1  'x, y, z'
loop_
 _atom_site_type_symbol
 _atom_site_label
 _atom_site_symmetry_multiplicity
 _atom_site_fract_x
 _atom_site_fract_y
 _atom_site_fract_z
 _atom_site_occupancy
  O  O1  1  0.145398  0.500107  0.285194  1
  O  O2  1  0.645398  0.000000  0.285194  1
  O  O3  1  0.500284  0.854912  0.205327  1
  O  O4  1  -0.000000  0.354913  0.205327  1
  O  O5  1  0.855105  0.145253  0.350522  1
  O  O6  1  0.355105  0.645254  0.350523  1
  O  O7  1  0.855079  0.500013  0.285173  1
  O  O8  1  0.355079  0.000000  0.285173  1
  O  O9  1  0.145410  0.145218  0.350513  1
  O  O10  1  0.645409  0.645217  0.350512  1
  O  O11  1  0.145399  0.500143  0.350537  1
  O  O12  1  0.645399  -0.000000  0.350537  1
  O  O13  1  0.500276  0.854933  0.365045  1
  O  O14  1  0.000000  0.354934  0.365045  1
  O  O15  1  0.855081  0.500073  0.350522  1
  O  O16  1  0.355081  0.000000  0.350522  1
  O  O17  1  0.145374  0.854914  0.285193  1
  O  O18  1  0.645373  0.354914  0.285193  1
  O  O19  1  0.500207  0.145256  0.205337  1
  O  O20  1  0.000000  0.645255  0.205337  1
  O  O21  1  0.855069  0.854950  0.285198  1
  O  O22  1  0.355069  0.354950  0.285198  1
  O  O23  1  0.500191  0.145235  0.270668  1
  O  O24  1  0.000000  0.645234  0.270668  1
  O  O25  1  0.500284  0.854912  0.430376  1
  O  O26  1  0.000000  0.354913  0.430376  1
  O  O27  1  0.500207  0.145256  0.430386  1
  O  O28  1  -0.000000  0.645255  0.430386  1
  Si  Si29  1  0.000000  0.500066  0.261590  1
  Si  Si30  1  0.500238  0.000000  0.261590  1
  Si  Si31  1  0.500271  0.750082  0.374114  1
  Si  Si32  1  0.000000  0.250081  0.374114  1
  Si  Si33  1  0.750242  0.000000  0.317863  1
  Si  Si34  1  0.250241  0.500114  0.317863  1
  Si  Si35  1  0.250237  0.000000  0.317850  1
  Si  Si36  1  0.750238  0.500053  0.317850  1
  Si  Si37  1  0.000000  0.500102  0.374123  1
  Si  Si38  1  0.500241  0.000000  0.374123  1
  Si  Si39  1  -0.000000  0.750086  0.261599  1
  Si  Si40  1  0.500208  0.250086  0.261599  1
  H  H41  1  0.500284  0.854912  0.182143  1
  H  H42  1  0.000000  0.354913  0.182144  1
  H  H43  1  0.500207  0.145256  0.182154  1
  H  H44  1  -0.000000  0.645255  0.182153  1
  H  H45  1  0.500284  0.854912  0.453559  1
  H  H46  1  0.000000  0.354913  0.453560  1
  H  H47  1  0.500207  0.145256  0.453570  1
  H  H48  1  0.000000  0.645255  0.453569  1
