# generated using pymatgen
data_Si6H2O13
_symmetry_space_group_name_H-M   'P 1'
_cell_length_a   13.56605876
_cell_length_b   46.01197261
_cell_length_c   42.31457026
_cell_angle_alpha   107.14383045
_cell_angle_beta   120.00000000
_cell_angle_gamma   81.52454549
_symmetry_Int_Tables_number   1
_chemical_formula_structural   Si6H2O13
_chemical_formula_sum   'Si108 H36 O234'
_cell_volume   21857.8086071
_cell_formula_units_Z   18
loop_
 _symmetry_equiv_pos_site_id
 _symmetry_equiv_pos_as_xyz
  1  'x, y, z'
loop_
 _atom_site_type_symbol
 _atom_site_label
 _atom_site_symmetry_multiplicity
 _atom_site_fract_x
 _atom_site_fract_y
 _atom_site_fract_z
 _atom_site_occupancy
  O  O1  1  0.746528  -0.000000  0.277337  1
  O  O2  1  0.000000  0.000000  0.277401  1
  O  O3  1  0.883218  0.042567  0.297338  1
  O  O4  1  0.079518  0.111130  0.287263  1
  O  O5  1  0.333918  0.111167  0.206273  1
  O  O6  1  0.586331  0.111299  0.287249  1
  O  O7  1  0.079803  0.111093  0.206450  1
  O  O8  1  0.100603  0.068641  0.236514  1
  O  O9  1  0.450051  0.068747  0.348570  1
  O  O10  1  0.450246  0.068765  0.236392  1
  O  O11  1  0.233238  0.072312  0.307200  1
  O  O12  1  0.534086  0.072338  0.307089  1
  O  O13  1  0.233324  0.072206  0.210635  1
  O  O14  1  0.028432  0.055534  0.278656  1
  O  O15  1  0.305133  0.055543  0.162718  1
  O  O16  1  0.666856  0.055714  0.278679  1
  O  O17  1  0.028367  0.055548  0.162794  1
  O  O18  1  0.232463  0.150238  0.332307  1
  O  O19  1  0.533732  0.150288  0.332141  1
  O  O20  1  0.232734  0.150128  0.235618  1
  O  O21  1  0.799577  0.039004  0.338971  1
  O  O22  1  0.099805  0.153662  0.263782  1
  O  O23  1  0.449773  0.153768  0.263638  1
  O  O24  1  0.100445  0.038936  0.338990  1
  O  O25  1  0.027418  0.166661  0.314202  1
  O  O26  1  0.027500  0.166595  0.198530  1
  O  O27  1  0.746839  0.222250  0.348835  1
  O  O28  1  0.998952  0.222201  0.348683  1
  O  O29  1  0.666496  0.277831  0.350249  1
  O  O30  1  0.027969  0.277761  0.234520  1
  O  O31  1  0.028111  0.277863  0.350315  1
  O  O32  1  0.304616  0.277874  0.234308  1
  O  O33  1  0.666314  0.166817  0.314282  1
  O  O34  1  0.450144  0.290899  0.307853  1
  O  O35  1  0.882895  0.179663  0.341483  1
  O  O36  1  0.233060  0.294428  0.282301  1
  O  O37  1  0.099956  0.290871  0.308140  1
  O  O38  1  0.304745  0.166704  0.198418  1
  O  O39  1  0.638889  0.388654  0.163292  1
  O  O40  1  0.362133  0.388827  0.163380  1
  O  O41  1  0.361126  0.499935  0.198329  1
  O  O42  1  0.638945  0.499867  0.198344  1
  O  O43  1  0.000000  0.499958  0.314142  1
  O  O44  1  0.433717  0.372349  0.339532  1
  O  O45  1  0.413167  0.444583  0.287497  1
  O  O46  1  0.667604  0.444345  0.206522  1
  O  O47  1  0.919647  0.444459  0.287564  1
  O  O48  1  0.413208  0.444448  0.206615  1
  O  O49  1  0.433901  0.402045  0.237002  1
  O  O50  1  0.783500  0.402130  0.349167  1
  O  O51  1  0.783610  0.401960  0.236957  1
  O  O52  1  0.566482  0.405636  0.307666  1
  O  O53  1  0.867548  0.405611  0.307688  1
  O  O54  1  0.566875  0.405584  0.211205  1
  O  O55  1  0.361591  0.389058  0.279234  1
  O  O56  1  0.000000  0.388882  0.279232  1
  O  O57  1  0.566392  0.483574  0.332255  1
  O  O58  1  0.867394  0.483551  0.332336  1
  O  O59  1  0.566125  0.483496  0.235489  1
  O  O60  1  0.333255  0.333455  0.277893  1
  O  O61  1  0.433462  0.487080  0.263726  1
  O  O62  1  0.783165  0.486952  0.263734  1
  O  O63  1  0.216569  0.375898  0.297914  1
  O  O64  1  0.133051  0.372326  0.339614  1
  O  O65  1  0.080146  0.333343  0.278012  1
  O  O66  1  0.361423  0.611138  0.233744  1
  O  O67  1  0.638298  0.611116  0.233744  1
  O  O68  1  0.783375  0.624172  0.307285  1
  O  O69  1  0.361227  0.500083  0.314134  1
  O  O70  1  0.079949  0.555471  0.348318  1
  O  O71  1  0.332273  0.555547  0.348352  1
  O  O72  1  0.000000  0.611060  0.349587  1
  O  O73  1  0.361331  0.611123  0.349613  1
  O  O74  1  0.216088  0.512953  0.341161  1
  O  O75  1  0.432761  0.624176  0.307299  1
  O  O76  1  0.566265  0.627774  0.281636  1
  O  O77  1  0.694989  0.722266  0.278391  1
  O  O78  1  0.333347  0.722264  0.278402  1
  O  O79  1  0.333590  0.833316  0.313996  1
  O  O80  1  0.746486  0.777862  0.287009  1
  O  O81  1  0.253084  0.777838  0.286985  1
  O  O82  1  0.466201  0.705633  0.338745  1
  O  O83  1  0.766947  0.705628  0.338715  1
  O  O84  1  0.116954  0.820399  0.263469  1
  O  O85  1  0.000000  0.777857  0.206086  1
  O  O86  1  0.746478  0.777860  0.206134  1
  O  O87  1  0.767031  0.735391  0.236223  1
  O  O88  1  0.116677  0.735357  0.348338  1
  O  O89  1  0.116663  0.735378  0.236174  1
  O  O90  1  0.899811  0.738953  0.306905  1
  O  O91  1  0.200658  0.738923  0.306861  1
  O  O92  1  0.899787  0.738950  0.210381  1
  O  O93  1  0.971815  0.722240  0.162497  1
  O  O94  1  0.694991  0.722254  0.162541  1
  O  O95  1  0.899768  0.816881  0.332001  1
  O  O96  1  0.201103  0.816871  0.331967  1
  O  O97  1  0.899820  0.816869  0.235367  1
  O  O98  1  0.413262  0.666712  0.277185  1
  O  O99  1  0.549772  0.709228  0.297060  1
  O  O100  1  0.766916  0.820410  0.263519  1
  O  O101  1  0.666584  0.666705  0.277159  1
  O  O102  1  0.333293  0.944392  0.349712  1
  O  O103  1  0.694904  0.944493  0.349788  1
  O  O104  1  0.694760  0.833366  0.313989  1
  O  O105  1  0.972307  0.833392  0.198229  1
  O  O106  1  0.694833  0.833380  0.198258  1
  O  O107  1  0.550184  0.846285  0.341234  1
  O  O108  1  0.899525  0.961094  0.281779  1
  O  O109  1  0.116808  0.957481  0.307431  1
  O  O110  1  0.766087  0.957585  0.307449  1
  O  O111  1  0.413772  0.888812  0.348368  1
  O  O112  1  0.665987  0.888867  0.348343  1
  O  O113  1  0.694714  0.944507  0.233834  1
  O  O114  1  0.971668  0.944491  0.233883  1
  O  O115  1  0.746345  0.000000  0.358531  1
  O  O116  1  0.233769  0.042466  0.409685  1
  O  O117  1  0.586001  0.111242  0.368720  1
  O  O118  1  0.334053  0.111197  0.368871  1
  O  O119  1  0.666771  0.055691  0.367411  1
  O  O120  1  0.305133  0.055543  0.483246  1
  O  O121  1  0.305361  0.055567  0.367428  1
  O  O122  1  0.028367  0.055548  0.483322  1
  O  O123  1  0.100294  0.038881  0.435371  1
  O  O124  1  0.449557  0.153787  0.375947  1
  O  O125  1  0.883063  0.042537  0.409756  1
  O  O126  1  0.027500  0.166595  0.519059  1
  O  O127  1  0.305059  0.166667  0.403302  1
  O  O128  1  0.253166  0.222146  0.430360  1
  O  O129  1  0.746835  0.222135  0.430308  1
  O  O130  1  0.998652  0.222167  0.511323  1
  O  O131  1  0.252978  0.222229  0.511204  1
  O  O132  1  0.232202  0.264651  0.481138  1
  O  O133  1  0.883118  0.264680  0.369011  1
  O  O134  1  0.882945  0.264640  0.481282  1
  O  O135  1  0.099859  0.261028  0.410459  1
  O  O136  1  0.799309  0.261112  0.410544  1
  O  O137  1  0.099723  0.261132  0.507117  1
  O  O138  1  0.304821  0.277738  0.439130  1
  O  O139  1  0.027969  0.277761  0.555049  1
  O  O140  1  0.666303  0.277629  0.438879  1
  O  O141  1  0.304616  0.277874  0.554836  1
  O  O142  1  0.099990  0.183108  0.385187  1
  O  O143  1  0.798883  0.183128  0.385313  1
  O  O144  1  0.099662  0.183230  0.481928  1
  O  O145  1  0.233104  0.294441  0.378888  1
  O  O146  1  0.333587  0.333300  0.440453  1
  O  O147  1  0.232417  0.179635  0.453714  1
  O  O148  1  0.882653  0.179593  0.453830  1
  O  O149  1  0.533406  0.294349  0.378574  1
  O  O150  1  0.450085  0.290720  0.420398  1
  O  O151  1  0.586612  0.333172  0.440198  1
  O  O152  1  0.666086  0.166692  0.403166  1
  O  O153  1  0.304745  0.166704  0.518946  1
  O  O154  1  0.638889  0.388654  0.483820  1
  O  O155  1  0.362133  0.388827  0.483908  1
  O  O156  1  0.361126  0.499935  0.518857  1
  O  O157  1  0.638945  0.499867  0.518872  1
  O  O158  1  0.080127  0.333436  0.359243  1
  O  O159  1  0.567382  0.375803  0.410267  1
  O  O160  1  0.919822  0.444612  0.369192  1
  O  O161  1  0.667388  0.444618  0.369127  1
  O  O162  1  0.000000  0.389037  0.368066  1
  O  O163  1  0.638580  0.389014  0.367983  1
  O  O164  1  0.216736  0.375883  0.410382  1
  O  O165  1  0.783514  0.487149  0.376186  1
  O  O166  1  0.433883  0.372191  0.435932  1
  O  O167  1  0.586643  0.333382  0.359073  1
  O  O168  1  0.361423  0.611138  0.554273  1
  O  O169  1  0.638298  0.611116  0.554272  1
  O  O170  1  0.867007  0.627720  0.378051  1
  O  O171  1  0.783478  0.624142  0.419749  1
  O  O172  1  0.586445  0.555579  0.429936  1
  O  O173  1  0.332568  0.555490  0.510861  1
  O  O174  1  0.080490  0.555553  0.429992  1
  O  O175  1  0.587240  0.555460  0.510912  1
  O  O176  1  0.566257  0.597982  0.480642  1
  O  O177  1  0.216308  0.597985  0.368397  1
  O  O178  1  0.216792  0.597988  0.480622  1
  O  O179  1  0.433267  0.594516  0.409943  1
  O  O180  1  0.132517  0.594420  0.409914  1
  O  O181  1  0.433621  0.594318  0.506432  1
  O  O182  1  0.638183  0.611134  0.438420  1
  O  O183  1  0.000000  0.611122  0.438419  1
  O  O184  1  0.433177  0.516552  0.385071  1
  O  O185  1  0.132288  0.516475  0.385046  1
  O  O186  1  0.434010  0.516432  0.481809  1
  O  O187  1  0.000000  0.500115  0.403265  1
  O  O188  1  0.566301  0.627717  0.378065  1
  O  O189  1  0.566447  0.512978  0.453593  1
  O  O190  1  0.216808  0.512963  0.453571  1
  O  O191  1  0.638366  0.500128  0.403172  1
  O  O192  1  0.919933  0.666650  0.358376  1
  O  O193  1  0.919924  0.666659  0.439599  1
  O  O194  1  0.333565  0.833295  0.402967  1
  O  O195  1  0.413331  0.666677  0.358402  1
  O  O196  1  0.900447  0.709169  0.409469  1
  O  O197  1  0.116967  0.820377  0.375743  1
  O  O198  1  0.253094  0.777812  0.368533  1
  O  O199  1  -0.000000  0.777825  0.368586  1
  O  O200  1  0.333346  0.722224  0.367155  1
  O  O201  1  0.971815  0.722240  0.483025  1
  O  O202  1  0.971867  0.722211  0.367159  1
  O  O203  1  0.694991  0.722254  0.483069  1
  O  O204  1  0.766916  0.705605  0.435141  1
  O  O205  1  0.549787  0.709190  0.409507  1
  O  O206  1  0.666630  0.666673  0.439617  1
  O  O207  1  0.253478  0.000000  0.358551  1
  O  O208  1  0.972365  0.833333  0.402985  1
  O  O209  1  0.972307  0.833392  0.518757  1
  O  O210  1  0.694833  0.833380  0.518787  1
  O  O211  1  0.550129  0.846299  0.453500  1
  O  O212  1  0.253579  0.000000  0.439783  1
  O  O213  1  0.900233  0.846310  0.453480  1
  O  O214  1  0.116890  0.957484  0.419853  1
  O  O215  1  0.200498  0.961042  0.378156  1
  O  O216  1  0.899658  0.961162  0.378209  1
  O  O217  1  0.920333  0.888827  0.429932  1
  O  O218  1  0.666038  0.888886  0.510828  1
  O  O219  1  0.413690  0.888804  0.429921  1
  O  O220  1  0.920449  0.888899  0.510832  1
  O  O221  1  0.899800  0.931337  0.480699  1
  O  O222  1  0.550015  0.931310  0.368553  1
  O  O223  1  0.549984  0.931315  0.480682  1
  O  O224  1  0.766902  0.927743  0.410007  1
  O  O225  1  0.465891  0.927726  0.409996  1
  O  O226  1  0.766923  0.927793  0.506505  1
  O  O227  1  0.971799  0.944382  0.438480  1
  O  O228  1  0.694714  0.944507  0.554362  1
  O  O229  1  0.333239  0.944365  0.438474  1
  O  O230  1  0.971668  0.944491  0.554412  1
  O  O231  1  0.767286  0.849809  0.384958  1
  O  O232  1  0.465954  0.849790  0.384998  1
  O  O233  1  0.767271  0.849862  0.481608  1
  O  O234  1  0.000000  0.000000  0.439817  1
  Si  Si235  1  0.106578  0.076152  0.276308  1
  Si  Si236  1  0.560465  0.076237  0.348930  1
  Si  Si237  1  0.333364  0.076159  0.203359  1
  Si  Si238  1  0.333421  0.076214  0.349043  1
  Si  Si239  1  0.560611  0.076283  0.276254  1
  Si  Si240  1  0.106717  0.076095  0.203453  1
  Si  Si241  1  0.106094  0.146146  0.298786  1
  Si  Si242  1  0.332956  0.146145  0.225893  1
  Si  Si243  1  0.560032  0.146279  0.298715  1
  Si  Si244  1  0.106324  0.146092  0.226012  1
  Si  Si245  1  0.772963  0.035077  0.297105  1
  Si  Si246  1  0.000000  0.035009  0.297154  1
  Si  Si247  1  0.772782  0.187239  0.346088  1
  Si  Si248  1  0.000000  0.187184  0.345955  1
  Si  Si249  1  0.106595  0.298434  0.348041  1
  Si  Si250  1  0.332977  0.298434  0.275007  1
  Si  Si251  1  0.560167  0.298381  0.347828  1
  Si  Si252  1  0.106544  0.298334  0.275154  1
  Si  Si253  1  0.439885  0.409564  0.276786  1
  Si  Si254  1  0.894018  0.409593  0.349558  1
  Si  Si255  1  0.666935  0.409388  0.203868  1
  Si  Si256  1  0.666686  0.409585  0.349517  1
  Si  Si257  1  0.893994  0.409469  0.276795  1
  Si  Si258  1  0.440225  0.409483  0.203963  1
  Si  Si259  1  0.439949  0.479558  0.298762  1
  Si  Si260  1  0.666608  0.479381  0.225882  1
  Si  Si261  1  0.893352  0.479459  0.298821  1
  Si  Si262  1  0.439754  0.479477  0.225909  1
  Si  Si263  1  0.106523  0.368339  0.297744  1
  Si  Si264  1  0.333584  0.368443  0.297685  1
  Si  Si265  1  0.105943  0.520480  0.345755  1
  Si  Si266  1  0.332975  0.520562  0.345773  1
  Si  Si267  1  0.439690  0.631669  0.347238  1
  Si  Si268  1  0.666349  0.631707  0.274388  1
  Si  Si269  1  0.893529  0.631655  0.347219  1
  Si  Si270  1  0.439653  0.631707  0.274399  1
  Si  Si271  1  0.773191  0.742864  0.276034  1
  Si  Si272  1  0.773321  0.812859  0.298521  1
  Si  Si273  1  0.227191  0.812837  0.298493  1
  Si  Si274  1  0.227138  0.742842  0.276004  1
  Si  Si275  1  0.227163  0.742819  0.348718  1
  Si  Si276  1  -0.000000  0.742854  0.203138  1
  Si  Si277  1  0.000000  0.742833  0.348755  1
  Si  Si278  1  0.773173  0.742856  0.203172  1
  Si  Si279  1  0.000000  0.812847  0.225696  1
  Si  Si280  1  0.773370  0.812850  0.225731  1
  Si  Si281  1  0.439655  0.701711  0.296889  1
  Si  Si282  1  0.666834  0.701711  0.296864  1
  Si  Si283  1  0.227082  0.964983  0.347341  1
  Si  Si284  1  0.773055  0.965094  0.347399  1
  Si  Si285  1  0.439905  0.853819  0.345748  1
  Si  Si286  1  0.666900  0.853868  0.345723  1
  Si  Si287  1  0.000000  0.965010  0.274566  1
  Si  Si288  1  0.772893  0.965073  0.274514  1
  Si  Si289  1  0.227076  0.034984  0.369785  1
  Si  Si290  1  0.772972  0.035087  0.369799  1
  Si  Si291  1  0.559733  0.146228  0.371376  1
  Si  Si292  1  0.332934  0.146210  0.371537  1
  Si  Si293  1  0.000000  0.035004  0.440006  1
  Si  Si294  1  0.226865  0.034954  0.442593  1
  Si  Si295  1  0.226406  0.257134  0.441378  1
  Si  Si296  1  0.772742  0.257140  0.441365  1
  Si  Si297  1  0.226328  0.187139  0.418730  1
  Si  Si298  1  0.772602  0.187139  0.418747  1
  Si  Si299  1  0.772685  0.257239  0.368674  1
  Si  Si300  1  0.000000  0.257189  0.514361  1
  Si  Si301  1  0.000000  0.257178  0.368599  1
  Si  Si302  1  0.226244  0.257240  0.514245  1
  Si  Si303  1  0.000000  0.187192  0.491628  1
  Si  Si304  1  0.226058  0.187247  0.491521  1
  Si  Si305  1  0.560013  0.298193  0.420425  1
  Si  Si306  1  0.333212  0.298298  0.420719  1
  Si  Si307  1  0.893736  0.479589  0.371649  1
  Si  Si308  1  0.666572  0.479579  0.371560  1
  Si  Si309  1  0.560368  0.368390  0.370324  1
  Si  Si310  1  0.333835  0.368296  0.443219  1
  Si  Si311  1  0.106503  0.368438  0.370457  1
  Si  Si312  1  0.560445  0.368193  0.443117  1
  Si  Si313  1  0.559894  0.590590  0.440815  1
  Si  Si314  1  0.105903  0.590477  0.368037  1
  Si  Si315  1  0.333411  0.590472  0.513671  1
  Si  Si316  1  0.333149  0.590561  0.368067  1
  Si  Si317  1  0.106202  0.590546  0.440825  1
  Si  Si318  1  0.560268  0.590444  0.513683  1
  Si  Si319  1  0.559629  0.520596  0.418564  1
  Si  Si320  1  0.333493  0.520476  0.491388  1
  Si  Si321  1  0.106482  0.520551  0.418589  1
  Si  Si322  1  0.560440  0.520450  0.491442  1
  Si  Si323  1  0.893593  0.631655  0.419914  1
  Si  Si324  1  0.666386  0.631665  0.419926  1
  Si  Si325  1  0.227202  0.812816  0.371211  1
  Si  Si326  1  0.000000  0.812828  0.368610  1
  Si  Si327  1  0.893547  0.701660  0.369536  1
  Si  Si328  1  0.666861  0.701674  0.442405  1
  Si  Si329  1  0.439659  0.701676  0.369562  1
  Si  Si330  1  0.893529  0.701662  0.442377  1
  Si  Si331  1  0.893550  0.923823  0.440869  1
  Si  Si332  1  0.439532  0.923814  0.368156  1
  Si  Si333  1  0.666743  0.923886  0.513735  1
  Si  Si334  1  0.666747  0.923855  0.368155  1
  Si  Si335  1  0.439489  0.923806  0.440864  1
  Si  Si336  1  0.893596  0.923895  0.513757  1
  Si  Si337  1  0.893728  0.853826  0.418443  1
  Si  Si338  1  0.666911  0.853892  0.491270  1
  Si  Si339  1  0.439837  0.853821  0.418466  1
  Si  Si340  1  0.893727  0.853901  0.491261  1
  Si  Si341  1  0.227022  0.964960  0.420016  1
  Si  Si342  1  0.000000  0.964997  0.422663  1
  H  H343  1  0.305133  0.055543  0.141448  1
  H  H344  1  0.028367  0.055548  0.141525  1
  H  H345  1  0.027500  0.166595  0.177261  1
  H  H346  1  0.027969  0.277761  0.213251  1
  H  H347  1  0.304616  0.277874  0.213039  1
  H  H348  1  0.304745  0.166704  0.177149  1
  H  H349  1  0.638889  0.388654  0.142023  1
  H  H350  1  0.362133  0.388827  0.142110  1
  H  H351  1  0.361126  0.499935  0.177060  1
  H  H352  1  0.638945  0.499867  0.177075  1
  H  H353  1  0.361423  0.611138  0.212475  1
  H  H354  1  0.638298  0.611116  0.212474  1
  H  H355  1  0.971815  0.722240  0.141227  1
  H  H356  1  0.694991  0.722254  0.141272  1
  H  H357  1  0.972307  0.833392  0.176959  1
  H  H358  1  0.694833  0.833380  0.176989  1
  H  H359  1  0.694714  0.944507  0.212564  1
  H  H360  1  0.971668  0.944491  0.212614  1
  H  H361  1  0.305133  0.055543  0.504515  1
  H  H362  1  0.028367  0.055548  0.504592  1
  H  H363  1  0.027500  0.166595  0.540328  1
  H  H364  1  0.027969  0.277761  0.576318  1
  H  H365  1  0.304616  0.277874  0.576105  1
  H  H366  1  0.304745  0.166704  0.540216  1
  H  H367  1  0.638889  0.388654  0.505089  1
  H  H368  1  0.362133  0.388827  0.505177  1
  H  H369  1  0.361126  0.499935  0.540127  1
  H  H370  1  0.638945  0.499867  0.540141  1
  H  H371  1  0.361423  0.611138  0.575542  1
  H  H372  1  0.638298  0.611116  0.575541  1
  H  H373  1  0.971815  0.722240  0.504294  1
  H  H374  1  0.694991  0.722254  0.504339  1
  H  H375  1  0.972307  0.833392  0.540026  1
  H  H376  1  0.694833  0.833380  0.540056  1
  H  H377  1  0.694714  0.944507  0.575631  1
  H  H378  1  0.971668  0.944491  0.575681  1
