# generated using pymatgen
data_Si7H2O15
_symmetry_space_group_name_H-M   'P 1'
_cell_length_a   19.96193813
_cell_length_b   15.95154717
_cell_length_c   38.78273858
_cell_angle_alpha   57.66780087
_cell_angle_beta   90.00000000
_cell_angle_gamma   90.00000000
_symmetry_Int_Tables_number   1
_chemical_formula_structural   Si7H2O15
_chemical_formula_sum   'Si56 H16 O120'
_cell_volume   10434.7214979
_cell_formula_units_Z   8
loop_
 _symmetry_equiv_pos_site_id
 _symmetry_equiv_pos_as_xyz
  1  'x, y, z'
loop_
 _atom_site_type_symbol
 _atom_site_label
 _atom_site_symmetry_multiplicity
 _atom_site_fract_x
 _atom_site_fract_y
 _atom_site_fract_z
 _atom_site_occupancy
  O  O1  1  0.950859  0.349413  0.175785  1
  O  O2  1  0.351063  0.344862  0.176635  1
  O  O3  1  0.549663  0.349228  0.175864  1
  O  O4  1  0.149181  0.344923  0.176823  1
  O  O5  1  0.844177  0.640159  0.456243  1
  O  O6  1  0.750183  0.567247  0.435270  1
  O  O7  1  0.844925  0.665698  0.386218  1
  O  O8  1  0.849728  0.812807  0.444195  1
  O  O9  1  0.951752  0.701040  0.469752  1
  O  O10  1  0.851089  0.654941  0.198046  1
  O  O11  1  0.849585  0.834240  0.321303  1
  O  O12  1  0.847573  0.668407  0.320626  1
  O  O13  1  0.951094  0.719963  0.344343  1
  O  O14  1  0.750135  0.549544  0.240163  1
  O  O15  1  0.838590  0.590729  0.276065  1
  O  O16  1  0.749616  0.554383  0.329417  1
  O  O17  1  0.834319  0.899193  0.367501  1
  O  O18  1  0.750150  0.950439  0.311121  1
  O  O19  1  0.750141  0.931264  0.407592  1
  O  O20  1  0.998938  0.500858  0.346505  1
  O  O21  1  0.372314  0.523602  0.442002  1
  O  O22  1  0.655434  0.665513  0.386042  1
  O  O23  1  0.650351  0.813180  0.444123  1
  O  O24  1  0.548444  0.701081  0.469620  1
  O  O25  1  0.649204  0.654906  0.197835  1
  O  O26  1  0.650584  0.834446  0.321277  1
  O  O27  1  0.651968  0.669020  0.320294  1
  O  O28  1  0.548967  0.720309  0.344362  1
  O  O29  1  0.443888  0.664406  0.385542  1
  O  O30  1  0.499583  0.513789  0.444094  1
  O  O31  1  0.443201  0.638534  0.456304  1
  O  O32  1  0.450846  0.650356  0.198900  1
  O  O33  1  0.445846  0.581082  0.277955  1
  O  O34  1  0.665972  0.899356  0.367485  1
  O  O35  1  0.374593  0.978950  0.398359  1
  O  O36  1  0.374170  0.997174  0.300826  1
  O  O37  1  0.448263  0.836297  0.320362  1
  O  O38  1  0.448525  0.666109  0.320404  1
  O  O39  1  0.446745  0.813439  0.444022  1
  O  O40  1  0.500142  0.989379  0.397269  1
  O  O41  1  0.444056  0.906089  0.365788  1
  O  O42  1  0.374899  0.500906  0.248224  1
  O  O43  1  0.656200  0.640894  0.455895  1
  O  O44  1  0.661318  0.591349  0.275677  1
  O  O45  1  0.372978  0.512505  0.343277  1
  O  O46  1  0.127987  0.523773  0.442080  1
  O  O47  1  0.056285  0.664573  0.385511  1
  O  O48  1  0.000000  0.514233  0.444228  1
  O  O49  1  0.057181  0.639225  0.456168  1
  O  O50  1  0.049652  0.650573  0.198805  1
  O  O51  1  0.055700  0.582126  0.277623  1
  O  O52  1  0.125826  0.511517  0.343964  1
  O  O53  1  0.125670  0.978941  0.398314  1
  O  O54  1  0.126063  0.996909  0.300891  1
  O  O55  1  0.051608  0.836422  0.320314  1
  O  O56  1  0.051684  0.665991  0.320501  1
  O  O57  1  0.053236  0.813894  0.443974  1
  O  O58  1  0.055951  0.906244  0.365727  1
  O  O59  1  0.125516  0.500829  0.248060  1
  O  O60  1  -0.000000  0.989872  0.397125  1
  O  O61  1  0.872322  0.476179  0.252813  1
  O  O62  1  0.943870  0.335398  0.309298  1
  O  O63  1  -0.000000  0.485968  0.250725  1
  O  O64  1  0.943194  0.361162  0.238554  1
  O  O65  1  0.950859  0.349413  0.495943  1
  O  O66  1  0.945865  0.418644  0.416899  1
  O  O67  1  0.874885  0.498829  0.446621  1
  O  O68  1  0.874590  0.020753  0.296448  1
  O  O69  1  0.874167  0.002564  0.393983  1
  O  O70  1  0.948243  0.163450  0.374447  1
  O  O71  1  0.948588  0.333577  0.374458  1
  O  O72  1  0.946751  0.186290  0.250795  1
  O  O73  1  0.944027  0.093649  0.329017  1
  O  O74  1  0.872993  0.487139  0.351586  1
  O  O75  1  0.628005  0.476045  0.252734  1
  O  O76  1  0.344909  0.334043  0.308636  1
  O  O77  1  0.349759  0.186952  0.250622  1
  O  O78  1  0.451750  0.298793  0.225065  1
  O  O79  1  0.351063  0.344862  0.496792  1
  O  O80  1  0.349634  0.165452  0.373523  1
  O  O81  1  0.347577  0.331234  0.374244  1
  O  O82  1  0.451109  0.279818  0.350476  1
  O  O83  1  0.556316  0.335218  0.309314  1
  O  O84  1  0.500777  0.485561  0.250609  1
  O  O85  1  0.557187  0.360580  0.238658  1
  O  O86  1  0.549663  0.349228  0.496021  1
  O  O87  1  0.555736  0.417621  0.417212  1
  O  O88  1  0.625822  0.488244  0.350857  1
  O  O89  1  0.625663  0.020859  0.296488  1
  O  O90  1  0.626059  0.002893  0.393901  1
  O  O91  1  0.551600  0.163340  0.374500  1
  O  O92  1  0.551696  0.333755  0.374331  1
  O  O93  1  0.553223  0.185911  0.250839  1
  O  O94  1  0.498932  0.498872  0.348347  1
  O  O95  1  0.500092  0.009906  0.297671  1
  O  O96  1  0.555919  0.093532  0.329078  1
  O  O97  1  0.625513  0.498985  0.446762  1
  O  O98  1  0.344168  0.359564  0.238615  1
  O  O99  1  0.338565  0.408966  0.418792  1
  O  O100  1  0.334333  0.100547  0.327308  1
  O  O101  1  0.156209  0.358925  0.238922  1
  O  O102  1  0.250191  0.432545  0.259563  1
  O  O103  1  0.155437  0.334295  0.308777  1
  O  O104  1  0.150380  0.186636  0.250681  1
  O  O105  1  0.048452  0.298675  0.225224  1
  O  O106  1  0.149181  0.344923  0.496980  1
  O  O107  1  0.150625  0.165337  0.373528  1
  O  O108  1  0.151922  0.330729  0.374539  1
  O  O109  1  0.048969  0.279383  0.350451  1
  O  O110  1  0.250117  0.450264  0.454657  1
  O  O111  1  0.161298  0.408438  0.419148  1
  O  O112  1  0.249608  0.445282  0.365432  1
  O  O113  1  0.165987  0.100426  0.327317  1
  O  O114  1  0.250165  0.049315  0.383684  1
  O  O115  1  0.250150  0.068513  0.287208  1
  O  O116  1  0.000000  0.010360  0.297545  1
  O  O117  1  0.851089  0.654941  0.518204  1
  O  O118  1  0.649204  0.654906  0.517993  1
  O  O119  1  0.450846  0.650356  0.519057  1
  O  O120  1  0.049652  0.650573  0.518962  1
  Si  Si121  1  0.827465  0.590294  0.431921  1
  Si  Si122  1  0.672929  0.590537  0.431781  1
  Si  Si123  1  0.673439  0.912586  0.404782  1
  Si  Si124  1  0.826805  0.912276  0.404830  1
  Si  Si125  1  0.673442  0.928531  0.321800  1
  Si  Si126  1  0.873982  0.702970  0.472593  1
  Si  Si127  1  0.873130  0.723441  0.341776  1
  Si  Si128  1  0.827305  0.568369  0.241525  1
  Si  Si129  1  0.672920  0.568422  0.241326  1
  Si  Si130  1  0.826881  0.574440  0.319459  1
  Si  Si131  1  0.672489  0.575048  0.319098  1
  Si  Si132  1  0.826847  0.928401  0.321814  1
  Si  Si133  1  0.440536  0.935376  0.320020  1
  Si  Si134  1  0.440369  0.918444  0.403366  1
  Si  Si135  1  0.626209  0.703239  0.472402  1
  Si  Si136  1  0.626913  0.723747  0.341675  1
  Si  Si137  1  0.438647  0.585413  0.432208  1
  Si  Si138  1  0.441992  0.557538  0.243636  1
  Si  Si139  1  0.470978  0.724813  0.340736  1
  Si  Si140  1  0.470579  0.702888  0.472677  1
  Si  Si141  1  0.440137  0.566493  0.321185  1
  Si  Si142  1  0.059758  0.918742  0.403270  1
  Si  Si143  1  0.061736  0.585817  0.432194  1
  Si  Si144  1  0.058630  0.557799  0.243518  1
  Si  Si145  1  0.029081  0.724854  0.340733  1
  Si  Si146  1  0.029623  0.703262  0.472640  1
  Si  Si147  1  0.059601  0.566647  0.321071  1
  Si  Si148  1  0.059513  0.935492  0.319962  1
  Si  Si149  1  0.940356  0.081275  0.291444  1
  Si  Si150  1  0.938648  0.414347  0.262625  1
  Si  Si151  1  0.941992  0.442222  0.451208  1
  Si  Si152  1  0.970983  0.274916  0.354096  1
  Si  Si153  1  0.970587  0.296851  0.222165  1
  Si  Si154  1  0.940166  0.433192  0.373676  1
  Si  Si155  1  0.940525  0.064378  0.374783  1
  Si  Si156  1  0.559495  0.064280  0.374844  1
  Si  Si157  1  0.559745  0.081047  0.291532  1
  Si  Si158  1  0.373980  0.296812  0.222241  1
  Si  Si159  1  0.373147  0.276259  0.353070  1
  Si  Si160  1  0.561756  0.413988  0.262631  1
  Si  Si161  1  0.558642  0.441987  0.451306  1
  Si  Si162  1  0.529096  0.274914  0.354089  1
  Si  Si163  1  0.529622  0.296551  0.222183  1
  Si  Si164  1  0.559611  0.433097  0.373764  1
  Si  Si165  1  0.173450  0.087205  0.290017  1
  Si  Si166  1  0.172934  0.409278  0.263039  1
  Si  Si167  1  0.326817  0.087474  0.289976  1
  Si  Si168  1  0.173461  0.071251  0.373001  1
  Si  Si169  1  0.327468  0.409453  0.262929  1
  Si  Si170  1  0.326866  0.071323  0.372997  1
  Si  Si171  1  0.126216  0.296571  0.222419  1
  Si  Si172  1  0.126914  0.276014  0.353143  1
  Si  Si173  1  0.327286  0.431410  0.453308  1
  Si  Si174  1  0.172902  0.431395  0.453490  1
  Si  Si175  1  0.326867  0.425207  0.375406  1
  Si  Si176  1  0.172472  0.424692  0.375735  1
  H  H177  1  0.950859  0.349413  0.152579  1
  H  H178  1  0.351063  0.344862  0.153428  1
  H  H179  1  0.549663  0.349228  0.152658  1
  H  H180  1  0.149181  0.344923  0.153617  1
  H  H181  1  0.851089  0.654941  0.174840  1
  H  H182  1  0.649204  0.654906  0.174629  1
  H  H183  1  0.450846  0.650356  0.175693  1
  H  H184  1  0.049652  0.650573  0.175599  1
  H  H185  1  0.950859  0.349413  0.519149  1
  H  H186  1  0.351063  0.344862  0.519998  1
  H  H187  1  0.549663  0.349228  0.519227  1
  H  H188  1  0.149181  0.344923  0.520187  1
  H  H189  1  0.851089  0.654941  0.541410  1
  H  H190  1  0.649204  0.654906  0.541199  1
  H  H191  1  0.450846  0.650356  0.542263  1
  H  H192  1  0.049652  0.650573  0.542169  1
