# generated using pymatgen
data_Si8H2O17
_symmetry_space_group_name_H-M   'P 1'
_cell_length_a   11.49275460
_cell_length_b   7.34843271
_cell_length_c   32.83000163
_cell_angle_alpha   90.00000000
_cell_angle_beta   90.00000000
_cell_angle_gamma   93.15400000
_symmetry_Int_Tables_number   1
_chemical_formula_structural   Si8H2O17
_chemical_formula_sum   'Si16 H4 O34'
_cell_volume   2768.41642361
_cell_formula_units_Z   2
loop_
 _symmetry_equiv_pos_site_id
 _symmetry_equiv_pos_as_xyz
  1  'x, y, z'
loop_
 _atom_site_type_symbol
 _atom_site_label
 _atom_site_symmetry_multiplicity
 _atom_site_fract_x
 _atom_site_fract_y
 _atom_site_fract_z
 _atom_site_occupancy
  O  O1  1  0.222277  0.025365  0.403927  1
  O  O2  1  0.777586  0.974485  0.291474  1
  O  O3  1  0.328681  0.760273  0.375598  1
  O  O4  1  0.671183  0.239587  0.319804  1
  O  O5  1  0.343906  0.095373  0.342237  1
  O  O6  1  0.655957  0.904487  0.353166  1
  O  O7  1  0.156527  0.881454  0.337468  1
  O  O8  1  0.843338  0.118405  0.357932  1
  O  O9  1  0.973164  0.841734  0.287317  1
  O  O10  1  0.026707  0.158136  0.408083  1
  O  O11  1  0.809102  0.726041  0.238115  1
  O  O12  1  0.190774  0.273802  0.457286  1
  O  O13  1  0.909241  0.062496  0.233732  1
  O  O14  1  0.090614  0.937368  0.461671  1
  O  O15  1  0.730158  0.519302  0.179714  1
  O  O16  1  0.269675  0.480543  0.515687  1
  O  O17  1  0.661034  0.457782  0.256995  1
  O  O18  1  0.338821  0.542059  0.438405  1
  O  O19  1  0.861587  0.398024  0.233820  1
  O  O20  1  0.138274  0.601850  0.461581  1
  O  O21  1  0.634697  0.572911  0.328584  1
  O  O22  1  0.365151  0.426943  0.366822  1
  O  O23  1  0.475182  0.349588  0.303022  1
  O  O24  1  0.524682  0.650273  0.392382  1
  O  O25  1  0.058889  0.310951  0.258302  1
  O  O26  1  0.940975  0.688913  0.437094  1
  O  O27  1  0.995241  0.281311  0.179714  1
  O  O28  1  0.004594  0.718533  0.515685  1
  O  O29  1  0.963611  0.721469  0.359714  1
  O  O30  1  0.036251  0.278386  0.335684  1
  O  O31  1  0.091135  0.579491  0.306897  1
  O  O32  1  0.908737  0.420366  0.388502  1
  O  O33  1  0.243843  0.343335  0.305425  1
  O  O34  1  0.756020  0.656519  0.389975  1
  Si  Si35  1  0.267334  0.937219  0.363863  1
  Si  Si36  1  0.732530  0.062637  0.331538  1
  Si  Si37  1  0.866629  0.895857  0.260949  1
  Si  Si38  1  0.133236  0.103995  0.434452  1
  Si  Si39  1  0.760484  0.528404  0.226663  1
  Si  Si40  1  0.239368  0.471455  0.468738  1
  Si  Si41  1  0.609877  0.403444  0.300301  1
  Si  Si42  1  0.389985  0.596417  0.395102  1
  Si  Si43  1  0.960495  0.263476  0.226189  1
  Si  Si44  1  0.039356  0.736390  0.469211  1
  Si  Si45  1  0.046856  0.763076  0.322602  1
  Si  Si46  1  0.953012  0.236779  0.372798  1
  Si  Si47  1  0.110414  0.373392  0.300702  1
  Si  Si48  1  0.889450  0.626461  0.394696  1
  Si  Si49  1  0.359878  0.302007  0.328009  1
  Si  Si50  1  0.639983  0.697856  0.367395  1
  H  H51  1  0.730158  0.519302  0.152300  1
  H  H52  1  0.269675  0.480543  0.543101  1
  H  H53  1  0.995241  0.281311  0.152300  1
  H  H54  1  0.004594  0.718533  0.543099  1
