# generated using pymatgen
data_Si36H2O73
_symmetry_space_group_name_H-M   'P 1'
_cell_length_a   13.73003562
_cell_length_b   17.33827655
_cell_length_c   57.26087946
_cell_angle_alpha   90.00000000
_cell_angle_beta   90.00000000
_cell_angle_gamma   90.00000000
_symmetry_Int_Tables_number   1
_chemical_formula_structural   Si36H2O73
_chemical_formula_sum   'Si144 H8 O292'
_cell_volume   13631.2475148
_cell_formula_units_Z   4
loop_
 _symmetry_equiv_pos_site_id
 _symmetry_equiv_pos_as_xyz
  1  'x, y, z'
loop_
 _atom_site_type_symbol
 _atom_site_label
 _atom_site_symmetry_multiplicity
 _atom_site_fract_x
 _atom_site_fract_y
 _atom_site_fract_z
 _atom_site_occupancy
  O  O1  1  -0.000000  0.141976  0.159779  1
  O  O2  1  0.500125  0.357878  0.159785  1
  O  O3  1  -0.000000  0.357907  0.201126  1
  O  O4  1  0.500106  0.141976  0.201136  1
  O  O5  1  0.124492  0.071924  0.184317  1
  O  O6  1  0.875674  0.071945  0.184307  1
  O  O7  1  0.624533  0.427927  0.184312  1
  O  O8  1  0.375716  0.427923  0.184325  1
  O  O9  1  0.875695  0.427925  0.176598  1
  O  O10  1  0.124541  0.427952  0.176587  1
  O  O11  1  0.375670  0.071957  0.176609  1
  O  O12  1  0.624511  0.071945  0.176593  1
  O  O13  1  0.180548  0.196423  0.165608  1
  O  O14  1  0.819678  0.196430  0.165610  1
  O  O15  1  0.680565  0.303436  0.165613  1
  O  O16  1  0.319714  0.303403  0.165613  1
  O  O17  1  0.819709  0.303435  0.195311  1
  O  O18  1  0.180560  0.303442  0.195302  1
  O  O19  1  0.319657  0.196411  0.195318  1
  O  O20  1  0.680557  0.196432  0.195313  1
  O  O21  1  0.149026  0.071827  0.141176  1
  O  O22  1  0.851158  0.071832  0.141173  1
  O  O23  1  0.649044  0.428031  0.141179  1
  O  O24  1  0.351164  0.428013  0.141184  1
  O  O25  1  0.809419  0.499936  0.140218  1
  O  O26  1  0.190786  0.499950  0.140216  1
  O  O27  1  0.000000  0.499932  0.152650  1
  O  O28  1  0.696288  0.499907  0.103045  1
  O  O29  1  0.303862  0.499887  0.103047  1
  O  O30  1  0.648927  0.071806  0.295987  1
  O  O31  1  0.351041  0.071790  0.295989  1
  O  O32  1  0.148941  0.428022  0.295998  1
  O  O33  1  0.851091  0.428033  0.295994  1
  O  O34  1  0.851203  0.428051  0.219735  1
  O  O35  1  0.149069  0.428057  0.219726  1
  O  O36  1  0.351181  0.071790  0.219742  1
  O  O37  1  0.649031  0.071805  0.219732  1
  O  O38  1  0.196276  0.499906  0.257864  1
  O  O39  1  0.500083  0.499951  0.208256  1
  O  O40  1  0.690685  0.499879  0.295038  1
  O  O41  1  0.500050  0.499847  0.307475  1
  O  O42  1  0.690796  0.499935  0.220687  1
  O  O43  1  0.309349  0.499872  0.295038  1
  O  O44  1  0.309449  0.499948  0.220697  1
  O  O45  1  0.803819  0.499928  0.257865  1
  O  O46  1  0.499983  0.141955  0.314591  1
  O  O47  1  -0.000000  0.357878  0.314601  1
  O  O48  1  0.500001  0.357825  0.355956  1
  O  O49  1  -0.000000  0.141915  0.355934  1
  O  O50  1  0.624405  0.071918  0.339128  1
  O  O51  1  0.375573  0.071906  0.339127  1
  O  O52  1  0.124411  0.427920  0.339141  1
  O  O53  1  0.875591  0.427914  0.339129  1
  O  O54  1  0.375577  0.427838  0.331424  1
  O  O55  1  0.624420  0.427856  0.331421  1
  O  O56  1  0.875589  0.071862  0.331396  1
  O  O57  1  0.124392  0.071864  0.331400  1
  O  O58  1  0.680418  0.196419  0.320414  1
  O  O59  1  0.319543  0.196404  0.320417  1
  O  O60  1  0.180424  0.303415  0.320427  1
  O  O61  1  0.819563  0.303425  0.320421  1
  O  O62  1  0.319554  0.303373  0.350128  1
  O  O63  1  0.680447  0.303381  0.350128  1
  O  O64  1  0.819569  0.196381  0.350108  1
  O  O65  1  0.180410  0.196374  0.350115  1
  O  O66  1  0.351063  0.427986  0.374555  1
  O  O67  1  0.648940  0.427994  0.374559  1
  O  O68  1  0.851057  0.071775  0.374536  1
  O  O69  1  0.148911  0.071768  0.374542  1
  O  O70  1  0.809330  0.499911  0.375507  1
  O  O71  1  -0.000000  0.499929  0.363078  1
  O  O72  1  0.190678  0.499900  0.375519  1
  O  O73  1  0.500094  0.641986  0.159780  1
  O  O74  1  -0.000000  0.857918  0.159763  1
  O  O75  1  0.500096  0.857873  0.201118  1
  O  O76  1  -0.000000  0.641982  0.201133  1
  O  O77  1  0.624533  0.571960  0.184307  1
  O  O78  1  0.375688  0.571924  0.184316  1
  O  O79  1  0.124498  0.927918  0.184306  1
  O  O80  1  0.875661  0.927909  0.184299  1
  O  O81  1  0.375671  0.927914  0.176595  1
  O  O82  1  0.624499  0.927931  0.176586  1
  O  O83  1  0.875686  0.571952  0.176600  1
  O  O84  1  0.124494  0.571949  0.176591  1
  O  O85  1  0.680546  0.696431  0.165592  1
  O  O86  1  0.319633  0.696408  0.165596  1
  O  O87  1  0.180516  0.803430  0.165595  1
  O  O88  1  0.819686  0.803430  0.165592  1
  O  O89  1  0.319663  0.803422  0.195292  1
  O  O90  1  0.680541  0.803431  0.195291  1
  O  O91  1  0.819665  0.696433  0.195299  1
  O  O92  1  0.180519  0.696445  0.195301  1
  O  O93  1  0.649011  0.571812  0.141172  1
  O  O94  1  0.351202  0.571790  0.141175  1
  O  O95  1  0.149056  0.928053  0.141170  1
  O  O96  1  0.851129  0.928054  0.141166  1
  O  O97  1  0.309429  0.000000  0.140217  1
  O  O98  1  0.690754  0.000000  0.140212  1
  O  O99  1  0.500132  0.000000  0.152652  1
  O  O100  1  0.196289  0.000000  0.103042  1
  O  O101  1  0.803816  0.000000  0.103037  1
  O  O102  1  0.148970  0.571792  0.295995  1
  O  O103  1  0.851066  0.571809  0.295994  1
  O  O104  1  0.648887  0.928026  0.295991  1
  O  O105  1  0.351103  0.928007  0.295994  1
  O  O106  1  0.351156  0.928010  0.219728  1
  O  O107  1  0.649018  0.928027  0.219722  1
  O  O108  1  0.851167  0.571830  0.219735  1
  O  O109  1  0.149049  0.571833  0.219733  1
  O  O110  1  -0.000000  0.000000  0.208254  1
  O  O111  1  0.303809  0.000000  0.257862  1
  O  O112  1  0.809415  -0.000000  0.220688  1
  O  O113  1  0.190678  -0.000000  0.295032  1
  O  O114  1  -0.000000  -0.000000  0.307463  1
  O  O115  1  0.696244  0.000000  0.257858  1
  O  O116  1  0.809303  0.000000  0.295031  1
  O  O117  1  0.190767  -0.000000  0.220687  1
  O  O118  1  -0.000000  0.641947  0.314594  1
  O  O119  1  0.500006  0.857834  0.314604  1
  O  O120  1  0.000000  0.857838  0.355953  1
  O  O121  1  0.500001  0.641915  0.355948  1
  O  O122  1  0.124426  0.571919  0.339135  1
  O  O123  1  0.875586  0.571953  0.339126  1
  O  O124  1  0.624405  0.927919  0.339133  1
  O  O125  1  0.375592  0.927904  0.339132  1
  O  O126  1  0.875562  0.927846  0.331416  1
  O  O127  1  0.124412  0.927855  0.331419  1
  O  O128  1  0.375595  0.571881  0.331417  1
  O  O129  1  0.624410  0.571863  0.331413  1
  O  O130  1  0.180448  0.696400  0.320424  1
  O  O131  1  0.819576  0.696416  0.320419  1
  O  O132  1  0.680449  0.803414  0.320421  1
  O  O133  1  0.319562  0.803398  0.320425  1
  O  O134  1  0.819554  0.803381  0.350127  1
  O  O135  1  0.180439  0.803386  0.350130  1
  O  O136  1  0.319581  0.696380  0.350122  1
  O  O137  1  0.680418  0.696383  0.350117  1
  O  O138  1  0.851050  0.928000  0.374551  1
  O  O139  1  0.148935  0.927997  0.374556  1
  O  O140  1  0.351072  0.571768  0.374551  1
  O  O141  1  0.648937  0.571777  0.374552  1
  O  O142  1  0.690663  0.000000  0.375507  1
  O  O143  1  0.499993  0.000000  0.363065  1
  O  O144  1  0.309320  0.000000  0.375502  1
  O  O145  1  -0.000000  0.141976  0.469418  1
  O  O146  1  0.500125  0.357878  0.469423  1
  O  O147  1  -0.000000  0.357907  0.510764  1
  O  O148  1  0.500106  0.141976  0.510774  1
  O  O149  1  0.124492  0.071924  0.493955  1
  O  O150  1  0.875674  0.071945  0.493945  1
  O  O151  1  0.624533  0.427927  0.493950  1
  O  O152  1  0.375716  0.427923  0.493963  1
  O  O153  1  0.875695  0.427925  0.486236  1
  O  O154  1  0.124541  0.427952  0.486225  1
  O  O155  1  0.375670  0.071957  0.486248  1
  O  O156  1  0.624511  0.071945  0.486231  1
  O  O157  1  0.180548  0.196423  0.475246  1
  O  O158  1  0.819678  0.196430  0.475248  1
  O  O159  1  0.680565  0.303436  0.475251  1
  O  O160  1  0.319714  0.303403  0.475251  1
  O  O161  1  0.819709  0.303435  0.504949  1
  O  O162  1  0.180560  0.303442  0.504940  1
  O  O163  1  0.319657  0.196411  0.504956  1
  O  O164  1  0.680557  0.196432  0.504951  1
  O  O165  1  0.149026  0.071827  0.450814  1
  O  O166  1  0.851158  0.071832  0.450811  1
  O  O167  1  0.649044  0.428031  0.450817  1
  O  O168  1  0.351164  0.428013  0.450822  1
  O  O169  1  0.809419  0.499936  0.449856  1
  O  O170  1  0.190786  0.499950  0.449855  1
  O  O171  1  -0.000000  0.499932  0.462288  1
  O  O172  1  0.696288  0.499907  0.412683  1
  O  O173  1  0.303862  0.499887  0.412685  1
  O  O174  1  0.648927  0.071806  0.605625  1
  O  O175  1  0.351041  0.071790  0.605627  1
  O  O176  1  0.148941  0.428022  0.605636  1
  O  O177  1  0.851091  0.428033  0.605633  1
  O  O178  1  0.851203  0.428051  0.529373  1
  O  O179  1  0.149069  0.428057  0.529364  1
  O  O180  1  0.351181  0.071790  0.529380  1
  O  O181  1  0.649031  0.071805  0.529370  1
  O  O182  1  0.196276  0.499906  0.567502  1
  O  O183  1  0.500083  0.499951  0.517894  1
  O  O184  1  0.690685  0.499879  0.604676  1
  O  O185  1  0.500050  0.499847  0.617113  1
  O  O186  1  0.690796  0.499935  0.530326  1
  O  O187  1  0.309349  0.499872  0.604676  1
  O  O188  1  0.309449  0.499948  0.530335  1
  O  O189  1  0.803819  0.499928  0.567503  1
  O  O190  1  0.499983  0.141955  0.624229  1
  O  O191  1  -0.000000  0.357878  0.624239  1
  O  O192  1  0.500001  0.357825  0.665594  1
  O  O193  1  -0.000000  0.141915  0.665572  1
  O  O194  1  0.624405  0.071918  0.648766  1
  O  O195  1  0.375573  0.071906  0.648765  1
  O  O196  1  0.124411  0.427920  0.648779  1
  O  O197  1  0.875591  0.427914  0.648767  1
  O  O198  1  0.375577  0.427838  0.641062  1
  O  O199  1  0.624420  0.427856  0.641059  1
  O  O200  1  0.875589  0.071862  0.641035  1
  O  O201  1  0.124392  0.071864  0.641038  1
  O  O202  1  0.680418  0.196419  0.630053  1
  O  O203  1  0.319543  0.196404  0.630056  1
  O  O204  1  0.180424  0.303415  0.630066  1
  O  O205  1  0.819563  0.303425  0.630059  1
  O  O206  1  0.319554  0.303373  0.659767  1
  O  O207  1  0.680447  0.303381  0.659766  1
  O  O208  1  0.819569  0.196381  0.659746  1
  O  O209  1  0.180410  0.196374  0.659754  1
  O  O210  1  0.351063  0.427986  0.684193  1
  O  O211  1  0.648940  0.427994  0.684197  1
  O  O212  1  0.851057  0.071775  0.684174  1
  O  O213  1  0.148911  0.071768  0.684180  1
  O  O214  1  0.809330  0.499911  0.685145  1
  O  O215  1  -0.000000  0.499929  0.672716  1
  O  O216  1  0.190678  0.499900  0.685157  1
  O  O217  1  0.500094  0.641986  0.469418  1
  O  O218  1  -0.000000  0.857918  0.469401  1
  O  O219  1  0.500096  0.857873  0.510756  1
  O  O220  1  -0.000000  0.641982  0.510772  1
  O  O221  1  0.624533  0.571960  0.493945  1
  O  O222  1  0.375688  0.571924  0.493954  1
  O  O223  1  0.124498  0.927918  0.493945  1
  O  O224  1  0.875661  0.927909  0.493937  1
  O  O225  1  0.375671  0.927914  0.486234  1
  O  O226  1  0.624499  0.927931  0.486224  1
  O  O227  1  0.875686  0.571952  0.486238  1
  O  O228  1  0.124494  0.571949  0.486229  1
  O  O229  1  0.680546  0.696431  0.475231  1
  O  O230  1  0.319633  0.696408  0.475235  1
  O  O231  1  0.180516  0.803430  0.475233  1
  O  O232  1  0.819686  0.803430  0.475231  1
  O  O233  1  0.319663  0.803422  0.504931  1
  O  O234  1  0.680541  0.803431  0.504929  1
  O  O235  1  0.819665  0.696433  0.504937  1
  O  O236  1  0.180519  0.696445  0.504939  1
  O  O237  1  0.649011  0.571812  0.450810  1
  O  O238  1  0.351202  0.571790  0.450813  1
  O  O239  1  0.149056  0.928053  0.450808  1
  O  O240  1  0.851129  0.928054  0.450804  1
  O  O241  1  0.309429  0.000000  0.449855  1
  O  O242  1  0.690754  -0.000000  0.449850  1
  O  O243  1  0.500132  -0.000000  0.462290  1
  O  O244  1  0.196289  -0.000000  0.412680  1
  O  O245  1  0.803816  0.000000  0.412675  1
  O  O246  1  0.148970  0.571792  0.605633  1
  O  O247  1  0.851066  0.571809  0.605633  1
  O  O248  1  0.648887  0.928026  0.605630  1
  O  O249  1  0.351103  0.928007  0.605632  1
  O  O250  1  0.351156  0.928010  0.529366  1
  O  O251  1  0.649018  0.928027  0.529361  1
  O  O252  1  0.851167  0.571830  0.529373  1
  O  O253  1  0.149049  0.571833  0.529371  1
  O  O254  1  -0.000000  -0.000000  0.517892  1
  O  O255  1  0.303809  0.000000  0.567501  1
  O  O256  1  0.809415  -0.000000  0.530326  1
  O  O257  1  0.190678  0.000000  0.604671  1
  O  O258  1  0.000000  0.000000  0.617101  1
  O  O259  1  0.696244  0.000000  0.567496  1
  O  O260  1  0.809303  -0.000000  0.604669  1
  O  O261  1  0.190767  0.000000  0.530325  1
  O  O262  1  -0.000000  0.641947  0.624233  1
  O  O263  1  0.500006  0.857834  0.624242  1
  O  O264  1  -0.000000  0.857838  0.665591  1
  O  O265  1  0.500001  0.641915  0.665586  1
  O  O266  1  0.124426  0.571919  0.648774  1
  O  O267  1  0.875586  0.571953  0.648765  1
  O  O268  1  0.624405  0.927919  0.648771  1
  O  O269  1  0.375592  0.927904  0.648771  1
  O  O270  1  0.875562  0.927846  0.641054  1
  O  O271  1  0.124412  0.927855  0.641057  1
  O  O272  1  0.375595  0.571881  0.641055  1
  O  O273  1  0.624410  0.571863  0.641051  1
  O  O274  1  0.180448  0.696400  0.630062  1
  O  O275  1  0.819576  0.696416  0.630058  1
  O  O276  1  0.680449  0.803414  0.630059  1
  O  O277  1  0.319562  0.803398  0.630063  1
  O  O278  1  0.819554  0.803381  0.659765  1
  O  O279  1  0.180439  0.803386  0.659768  1
  O  O280  1  0.319581  0.696380  0.659760  1
  O  O281  1  0.680418  0.696383  0.659755  1
  O  O282  1  0.851050  0.928000  0.684189  1
  O  O283  1  0.148935  0.927997  0.684195  1
  O  O284  1  0.351072  0.571768  0.684189  1
  O  O285  1  0.648937  0.571777  0.684190  1
  O  O286  1  0.690663  -0.000000  0.685145  1
  O  O287  1  0.499993  -0.000000  0.672703  1
  O  O288  1  0.309320  0.000000  0.685141  1
  O  O289  1  0.696288  0.499907  0.722321  1
  O  O290  1  0.303862  0.499887  0.722324  1
  O  O291  1  0.196289  -0.000000  0.722319  1
  O  O292  1  0.803816  -0.000000  0.722314  1
  Si  Si293  1  0.750131  0.249934  0.180464  1
  Si  Si294  1  0.112556  0.123974  0.161971  1
  Si  Si295  1  0.887637  0.123961  0.161972  1
  Si  Si296  1  0.612583  0.375888  0.161976  1
  Si  Si297  1  0.387664  0.375878  0.161978  1
  Si  Si298  1  0.887674  0.375904  0.198940  1
  Si  Si299  1  0.112596  0.375909  0.198932  1
  Si  Si300  1  0.387645  0.123954  0.198949  1
  Si  Si301  1  0.612565  0.123977  0.198942  1
  Si  Si302  1  0.297807  0.499904  0.130228  1
  Si  Si303  1  0.250122  0.249914  0.180460  1
  Si  Si304  1  0.388824  0.499935  0.200749  1
  Si  Si305  1  0.702405  0.499924  0.130225  1
  Si  Si306  1  0.611436  0.499949  0.200745  1
  Si  Si307  1  0.888783  0.499933  0.160160  1
  Si  Si308  1  0.111397  0.499954  0.160160  1
  Si  Si309  1  0.202422  0.499943  0.230684  1
  Si  Si310  1  0.797800  0.499933  0.230684  1
  Si  Si311  1  0.797699  0.499915  0.285044  1
  Si  Si312  1  0.202333  0.499898  0.285043  1
  Si  Si313  1  0.249980  0.249893  0.335273  1
  Si  Si314  1  0.750003  0.249905  0.335266  1
  Si  Si315  1  0.388701  0.499858  0.314980  1
  Si  Si316  1  0.297705  0.499883  0.385507  1
  Si  Si317  1  0.612446  0.123957  0.316781  1
  Si  Si318  1  0.387522  0.123949  0.316780  1
  Si  Si319  1  0.112462  0.375881  0.316794  1
  Si  Si320  1  0.887544  0.375884  0.316791  1
  Si  Si321  1  0.387539  0.375833  0.353761  1
  Si  Si322  1  0.612460  0.375839  0.353765  1
  Si  Si323  1  0.887528  0.123916  0.353741  1
  Si  Si324  1  0.112445  0.123909  0.353745  1
  Si  Si325  1  0.888695  0.499928  0.355568  1
  Si  Si326  1  0.111302  0.499913  0.355573  1
  Si  Si327  1  0.611307  0.499863  0.314984  1
  Si  Si328  1  0.702320  0.499892  0.385505  1
  Si  Si329  1  0.250085  0.749930  0.180445  1
  Si  Si330  1  0.612556  0.623976  0.161965  1
  Si  Si331  1  0.387637  0.623960  0.161969  1
  Si  Si332  1  0.112553  0.875905  0.161963  1
  Si  Si333  1  0.887630  0.875912  0.161960  1
  Si  Si334  1  0.387635  0.875884  0.198928  1
  Si  Si335  1  0.612552  0.875888  0.198924  1
  Si  Si336  1  0.887637  0.623972  0.198937  1
  Si  Si337  1  0.112555  0.623981  0.198940  1
  Si  Si338  1  0.202414  -0.000000  0.130221  1
  Si  Si339  1  0.750116  0.749932  0.180443  1
  Si  Si340  1  0.797767  0.000000  0.130218  1
  Si  Si341  1  0.888772  -0.000000  0.200748  1
  Si  Si342  1  0.611381  -0.000000  0.160159  1
  Si  Si343  1  0.111377  -0.000000  0.200744  1
  Si  Si344  1  0.388775  0.000000  0.160159  1
  Si  Si345  1  0.702391  0.000000  0.230681  1
  Si  Si346  1  0.297777  -0.000000  0.230683  1
  Si  Si347  1  0.297697  0.000000  0.285042  1
  Si  Si348  1  0.702288  0.000000  0.285039  1
  Si  Si349  1  0.749990  0.749894  0.335271  1
  Si  Si350  1  0.250012  0.749893  0.335277  1
  Si  Si351  1  0.111296  -0.000000  0.314975  1
  Si  Si352  1  0.112478  0.623932  0.316791  1
  Si  Si353  1  0.887557  0.623955  0.316788  1
  Si  Si354  1  0.612461  0.875865  0.316788  1
  Si  Si355  1  0.387547  0.875849  0.316788  1
  Si  Si356  1  0.887534  0.875846  0.353757  1
  Si  Si357  1  0.112455  0.875845  0.353762  1
  Si  Si358  1  0.387541  0.623911  0.353754  1
  Si  Si359  1  0.612459  0.623918  0.353756  1
  Si  Si360  1  0.202314  0.000000  0.385499  1
  Si  Si361  1  0.888683  -0.000000  0.314972  1
  Si  Si362  1  0.388682  0.000000  0.355557  1
  Si  Si363  1  0.611303  0.000000  0.355559  1
  Si  Si364  1  0.797684  -0.000000  0.385497  1
  Si  Si365  1  0.750131  0.249934  0.490102  1
  Si  Si366  1  0.112556  0.123974  0.471609  1
  Si  Si367  1  0.887637  0.123961  0.471610  1
  Si  Si368  1  0.612583  0.375888  0.471614  1
  Si  Si369  1  0.387664  0.375878  0.471617  1
  Si  Si370  1  0.887674  0.375904  0.508578  1
  Si  Si371  1  0.112596  0.375909  0.508570  1
  Si  Si372  1  0.387645  0.123954  0.508587  1
  Si  Si373  1  0.612565  0.123977  0.508581  1
  Si  Si374  1  0.297807  0.499904  0.439866  1
  Si  Si375  1  0.250122  0.249914  0.490098  1
  Si  Si376  1  0.388824  0.499935  0.510388  1
  Si  Si377  1  0.702405  0.499924  0.439863  1
  Si  Si378  1  0.611436  0.499949  0.510383  1
  Si  Si379  1  0.888783  0.499933  0.469799  1
  Si  Si380  1  0.111397  0.499954  0.469798  1
  Si  Si381  1  0.202422  0.499943  0.540322  1
  Si  Si382  1  0.797800  0.499933  0.540323  1
  Si  Si383  1  0.797699  0.499915  0.594682  1
  Si  Si384  1  0.202333  0.499898  0.594681  1
  Si  Si385  1  0.249980  0.249893  0.644911  1
  Si  Si386  1  0.750003  0.249905  0.644904  1
  Si  Si387  1  0.388701  0.499858  0.624618  1
  Si  Si388  1  0.297705  0.499883  0.695145  1
  Si  Si389  1  0.612446  0.123957  0.626419  1
  Si  Si390  1  0.387522  0.123949  0.626419  1
  Si  Si391  1  0.112462  0.375881  0.626432  1
  Si  Si392  1  0.887544  0.375884  0.626429  1
  Si  Si393  1  0.387539  0.375833  0.663399  1
  Si  Si394  1  0.612460  0.375839  0.663403  1
  Si  Si395  1  0.887528  0.123916  0.663379  1
  Si  Si396  1  0.112445  0.123909  0.663384  1
  Si  Si397  1  0.888695  0.499928  0.665206  1
  Si  Si398  1  0.111302  0.499913  0.665211  1
  Si  Si399  1  0.611307  0.499863  0.624622  1
  Si  Si400  1  0.702320  0.499892  0.695143  1
  Si  Si401  1  0.250085  0.749930  0.490083  1
  Si  Si402  1  0.612556  0.623976  0.471604  1
  Si  Si403  1  0.387637  0.623960  0.471607  1
  Si  Si404  1  0.112553  0.875905  0.471601  1
  Si  Si405  1  0.887630  0.875912  0.471598  1
  Si  Si406  1  0.387635  0.875884  0.508566  1
  Si  Si407  1  0.612552  0.875888  0.508562  1
  Si  Si408  1  0.887637  0.623972  0.508576  1
  Si  Si409  1  0.112555  0.623981  0.508578  1
  Si  Si410  1  0.202414  0.000000  0.439859  1
  Si  Si411  1  0.750116  0.749932  0.490081  1
  Si  Si412  1  0.797767  0.000000  0.439856  1
  Si  Si413  1  0.888772  -0.000000  0.510386  1
  Si  Si414  1  0.611381  -0.000000  0.469797  1
  Si  Si415  1  0.111377  0.000000  0.510382  1
  Si  Si416  1  0.388775  0.000000  0.469797  1
  Si  Si417  1  0.702391  0.000000  0.540319  1
  Si  Si418  1  0.297777  -0.000000  0.540321  1
  Si  Si419  1  0.297697  -0.000000  0.594680  1
  Si  Si420  1  0.702288  0.000000  0.594678  1
  Si  Si421  1  0.749990  0.749894  0.644910  1
  Si  Si422  1  0.250012  0.749893  0.644915  1
  Si  Si423  1  0.111296  -0.000000  0.624613  1
  Si  Si424  1  0.112478  0.623932  0.626429  1
  Si  Si425  1  0.887557  0.623955  0.626426  1
  Si  Si426  1  0.612461  0.875865  0.626426  1
  Si  Si427  1  0.387547  0.875849  0.626427  1
  Si  Si428  1  0.887534  0.875846  0.663396  1
  Si  Si429  1  0.112455  0.875845  0.663400  1
  Si  Si430  1  0.387541  0.623911  0.663393  1
  Si  Si431  1  0.612459  0.623918  0.663394  1
  Si  Si432  1  0.202314  0.000000  0.695138  1
  Si  Si433  1  0.888683  -0.000000  0.624610  1
  Si  Si434  1  0.388682  -0.000000  0.665196  1
  Si  Si435  1  0.611303  -0.000000  0.665197  1
  Si  Si436  1  0.797684  -0.000000  0.695135  1
  H  H437  1  0.696288  0.499907  0.087327  1
  H  H438  1  0.303862  0.499887  0.087330  1
  H  H439  1  0.196289  0.000000  0.087325  1
  H  H440  1  0.803816  0.000000  0.087320  1
  H  H441  1  0.696288  0.499907  0.738039  1
  H  H442  1  0.303862  0.499887  0.738041  1
  H  H443  1  0.196289  0.000000  0.738036  1
  H  H444  1  0.803816  0.000000  0.738031  1
