# generated using pymatgen
data_Si28H2O57
_symmetry_space_group_name_H-M   'P 1'
_cell_length_a   8.41979979
_cell_length_b   33.60885434
_cell_length_c   75.17372387
_cell_angle_alpha   59.66755629
_cell_angle_beta   90.00000000
_cell_angle_gamma   90.00000000
_symmetry_Int_Tables_number   1
_chemical_formula_structural   Si28H2O57
_chemical_formula_sum   'Si224 H16 O456'
_cell_volume   18360.6286493
_cell_formula_units_Z   8
loop_
 _symmetry_equiv_pos_site_id
 _symmetry_equiv_pos_as_xyz
  1  'x, y, z'
loop_
 _atom_site_type_symbol
 _atom_site_label
 _atom_site_symmetry_multiplicity
 _atom_site_fract_x
 _atom_site_fract_y
 _atom_site_fract_z
 _atom_site_occupancy
  O  O1  1  0.734077  0.667716  0.089453  1
  O  O2  1  0.266058  0.667716  0.089454  1
  O  O3  1  0.743085  0.166309  0.089034  1
  O  O4  1  0.257047  0.166309  0.089034  1
  O  O5  1  -0.000000  0.861582  0.406407  1
  O  O6  1  0.742235  0.997213  0.364715  1
  O  O7  1  0.257897  0.997213  0.364715  1
  O  O8  1  0.500067  0.947049  0.367427  1
  O  O9  1  0.000000  0.790743  0.161281  1
  O  O10  1  0.786274  0.245810  0.288844  1
  O  O11  1  0.786275  0.754139  0.227505  1
  O  O12  1  0.213858  0.754139  0.227505  1
  O  O13  1  0.213858  0.245810  0.288844  1
  O  O14  1  0.783540  0.828465  0.230933  1
  O  O15  1  0.216592  0.828466  0.230933  1
  O  O16  1  0.723124  0.833304  0.195908  1
  O  O17  1  0.277008  0.833303  0.195908  1
  O  O18  1  0.000000  0.814631  0.211623  1
  O  O19  1  0.762203  0.942789  0.188665  1
  O  O20  1  0.237931  0.942790  0.188665  1
  O  O21  1  -0.000000  0.955872  0.165601  1
  O  O22  1  0.761500  0.837170  0.161758  1
  O  O23  1  0.238633  0.837169  0.161759  1
  O  O24  1  0.500067  0.864044  0.169586  1
  O  O25  1  0.500066  0.802756  0.121345  1
  O  O26  1  0.750838  0.912372  0.164342  1
  O  O27  1  0.249295  0.912372  0.164342  1
  O  O28  1  0.737878  0.248586  0.340533  1
  O  O29  1  0.737876  0.751363  0.175816  1
  O  O30  1  0.262256  0.751363  0.175816  1
  O  O31  1  0.262256  0.248586  0.340533  1
  O  O32  1  0.743084  0.833640  0.097788  1
  O  O33  1  0.257046  0.833640  0.097789  1
  O  O34  1  0.743326  0.906271  0.390548  1
  O  O35  1  0.256806  0.906271  0.390548  1
  O  O36  1  0.766280  0.803783  0.137164  1
  O  O37  1  0.233855  0.803782  0.137165  1
  O  O38  1  0.764437  0.253231  0.227939  1
  O  O39  1  0.764436  0.746714  0.288410  1
  O  O40  1  0.235698  0.746716  0.288411  1
  O  O41  1  0.235697  0.253231  0.227939  1
  O  O42  1  0.785463  0.826512  0.395312  1
  O  O43  1  0.214673  0.826513  0.395311  1
  O  O44  1  0.731418  0.831863  0.360630  1
  O  O45  1  0.268713  0.831862  0.360630  1
  O  O46  1  0.000000  0.804775  0.378151  1
  O  O47  1  0.764557  0.941672  0.352238  1
  O  O48  1  0.235577  0.941671  0.352239  1
  O  O49  1  0.000000  0.953660  0.328962  1
  O  O50  1  0.759312  0.834552  0.326714  1
  O  O51  1  0.240828  0.834552  0.326712  1
  O  O52  1  0.500064  0.859704  0.335662  1
  O  O53  1  0.000000  0.800101  0.318722  1
  O  O54  1  0.500066  0.786565  0.284721  1
  O  O55  1  -0.000000  0.862038  0.242769  1
  O  O56  1  0.500067  0.949001  0.203997  1
  O  O57  1  0.741925  0.832709  0.263526  1
  O  O58  1  0.258211  0.832709  0.263526  1
  O  O59  1  0.743885  0.907622  0.226997  1
  O  O60  1  0.256247  0.907622  0.226997  1
  O  O61  1  0.783559  0.252137  0.174872  1
  O  O62  1  0.783556  0.747813  0.341476  1
  O  O63  1  0.216576  0.747812  0.341477  1
  O  O64  1  0.216575  0.252137  0.174872  1
  O  O65  1  0.732710  0.799485  0.302914  1
  O  O66  1  0.267424  0.799482  0.302915  1
  O  O67  1  0.747693  0.910320  0.328524  1
  O  O68  1  0.252438  0.910320  0.328523  1
  O  O69  1  0.760051  0.332434  0.262286  1
  O  O70  1  0.760053  0.667515  0.254063  1
  O  O71  1  0.240082  0.667516  0.254063  1
  O  O72  1  0.240083  0.332434  0.262286  1
  O  O73  1  0.736325  0.406427  0.226057  1
  O  O74  1  0.736326  0.593520  0.290293  1
  O  O75  1  0.263806  0.593522  0.290293  1
  O  O76  1  0.263808  0.406427  0.226057  1
  O  O77  1  0.500066  0.352694  0.242246  1
  O  O78  1  0.500065  0.647253  0.274103  1
  O  O79  1  -0.000000  0.448048  0.210820  1
  O  O80  1  -0.000000  0.551900  0.305530  1
  O  O81  1  0.733740  0.301644  0.301728  1
  O  O82  1  0.733741  0.698306  0.214621  1
  O  O83  1  0.266396  0.698305  0.214621  1
  O  O84  1  0.266394  0.301644  0.301728  1
  O  O85  1  0.500067  0.299580  0.323930  1
  O  O86  1  0.500067  0.700369  0.192419  1
  O  O87  1  0.769964  0.675184  0.121029  1
  O  O88  1  0.769965  0.324764  0.395321  1
  O  O89  1  0.230170  0.324765  0.395320  1
  O  O90  1  0.230168  0.675184  0.121029  1
  O  O91  1  0.500066  0.688721  0.132294  1
  O  O92  1  0.500067  0.311228  0.384055  1
  O  O93  1  0.764480  0.589735  0.187284  1
  O  O94  1  0.764480  0.410214  0.329066  1
  O  O95  1  0.235654  0.410213  0.329066  1
  O  O96  1  0.235655  0.589735  0.187284  1
  O  O97  1  0.500066  0.548752  0.189711  1
  O  O98  1  0.500066  0.451196  0.326638  1
  O  O99  1  0.000000  0.645949  0.174715  1
  O  O100  1  -0.000000  0.353999  0.341635  1
  O  O101  1  -0.000000  0.300861  0.286099  1
  O  O102  1  -0.000000  0.699089  0.230250  1
  O  O103  1  0.715388  0.748061  0.124219  1
  O  O104  1  0.715387  0.251888  0.392130  1
  O  O105  1  0.284746  0.251888  0.392131  1
  O  O106  1  0.284746  0.748061  0.124219  1
  O  O107  1  0.736732  0.668878  0.156066  1
  O  O108  1  0.736731  0.331072  0.360283  1
  O  O109  1  0.263401  0.331070  0.360283  1
  O  O110  1  0.263402  0.668878  0.156066  1
  O  O111  1  0.709626  0.556394  0.164378  1
  O  O112  1  0.709626  0.443555  0.351972  1
  O  O113  1  0.290506  0.443555  0.351972  1
  O  O114  1  0.290507  0.556394  0.164378  1
  O  O115  1  0.760562  0.665117  0.190119  1
  O  O116  1  0.760561  0.334832  0.326231  1
  O  O117  1  0.239572  0.334832  0.326231  1
  O  O118  1  0.239571  0.665117  0.190119  1
  O  O119  1  0.750436  0.498202  0.201657  1
  O  O120  1  0.750435  0.501746  0.314693  1
  O  O121  1  0.249698  0.501747  0.314692  1
  O  O122  1  0.249698  0.498202  0.201657  1
  O  O123  1  0.757630  0.752684  0.392595  1
  O  O124  1  0.757630  0.247264  0.123755  1
  O  O125  1  0.242504  0.247264  0.123755  1
  O  O126  1  0.242505  0.752684  0.392595  1
  O  O127  1  0.737555  0.327023  0.230084  1
  O  O128  1  0.737559  0.672920  0.286268  1
  O  O129  1  0.262576  0.672926  0.286266  1
  O  O130  1  0.262576  0.327022  0.230084  1
  O  O131  1  0.765949  0.331544  0.195495  1
  O  O132  1  0.765950  0.668408  0.320855  1
  O  O133  1  0.234183  0.668405  0.320855  1
  O  O134  1  0.234184  0.331544  0.195495  1
  O  O135  1  0.000000  0.307196  0.219930  1
  O  O136  1  0.000000  0.692753  0.296419  1
  O  O137  1  0.790883  0.444783  0.187763  1
  O  O138  1  0.790881  0.555166  0.328587  1
  O  O139  1  0.209250  0.555166  0.328587  1
  O  O140  1  0.209251  0.444783  0.187763  1
  O  O141  1  0.000000  0.452168  0.162409  1
  O  O142  1  -0.000000  0.547781  0.353941  1
  O  O143  1  0.739829  0.337898  0.160934  1
  O  O144  1  0.739828  0.662052  0.355415  1
  O  O145  1  0.260302  0.662052  0.355414  1
  O  O146  1  0.260304  0.337897  0.160935  1
  O  O147  1  0.500067  0.354806  0.177228  1
  O  O148  1  0.500069  0.645144  0.339121  1
  O  O149  1  0.000000  0.308265  0.154195  1
  O  O150  1  -0.000000  0.691684  0.362154  1
  O  O151  1  0.500067  0.711286  0.395095  1
  O  O152  1  0.500067  0.288663  0.121255  1
  O  O153  1  -0.000000  0.647550  0.108393  1
  O  O154  1  -0.000000  0.352399  0.407957  1
  O  O155  1  0.749858  0.502932  0.150508  1
  O  O156  1  0.749858  0.497017  0.365841  1
  O  O157  1  0.250276  0.497017  0.365841  1
  O  O158  1  0.250275  0.502932  0.150509  1
  O  O159  1  0.500066  0.553096  0.141394  1
  O  O160  1  0.500067  0.446854  0.374955  1
  O  O161  1  0.734077  0.667716  0.418980  1
  O  O162  1  0.734078  0.332233  0.097369  1
  O  O163  1  0.266057  0.332233  0.097369  1
  O  O164  1  0.266058  0.667716  0.418981  1
  O  O165  1  0.763683  0.594528  0.126003  1
  O  O166  1  0.763682  0.405420  0.390347  1
  O  O167  1  0.236452  0.405421  0.390347  1
  O  O168  1  0.236450  0.594528  0.126003  1
  O  O169  1  0.747385  0.695435  0.380097  1
  O  O170  1  0.747386  0.304514  0.136253  1
  O  O171  1  0.252747  0.304514  0.136252  1
  O  O172  1  0.252745  0.695435  0.380097  1
  O  O173  1  0.734281  0.411542  0.164889  1
  O  O174  1  0.734283  0.588408  0.351460  1
  O  O175  1  0.265854  0.588407  0.351460  1
  O  O176  1  0.265852  0.411542  0.164889  1
  O  O177  1  0.743071  0.998633  0.201135  1
  O  O178  1  0.257062  0.998634  0.201134  1
  O  O179  1  0.500067  0.213383  0.231629  1
  O  O180  1  0.000000  0.209206  0.355068  1
  O  O181  1  0.500066  0.197193  0.395005  1
  O  O182  1  0.000000  0.199847  0.197627  1
  O  O183  1  0.732708  0.200467  0.213436  1
  O  O184  1  0.267426  0.200467  0.213436  1
  O  O185  1  -0.000000  0.195174  0.138198  1
  O  O186  1  0.743071  0.001316  0.315215  1
  O  O187  1  0.257063  0.001315  0.315215  1
  O  O188  1  0.783540  0.171484  0.285416  1
  O  O189  1  0.216593  0.171484  0.285417  1
  O  O190  1  -0.000000  0.185318  0.304727  1
  O  O191  1  0.761499  0.162779  0.354592  1
  O  O192  1  0.238633  0.162780  0.354591  1
  O  O193  1  0.743085  0.166309  0.418561  1
  O  O194  1  0.257047  0.166309  0.418561  1
  O  O195  1  0.766279  0.196168  0.379185  1
  O  O196  1  0.233854  0.196167  0.379185  1
  O  O197  1  0.785463  0.173435  0.121039  1
  O  O198  1  0.214671  0.173436  0.121039  1
  O  O199  1  0.731421  0.168087  0.155720  1
  O  O200  1  0.268712  0.168087  0.155720  1
  O  O201  1  0.759303  0.165397  0.189638  1
  O  O202  1  0.240830  0.165396  0.189638  1
  O  O203  1  0.723124  0.166646  0.320442  1
  O  O204  1  0.277010  0.166646  0.320442  1
  O  O205  1  0.741925  0.167240  0.252824  1
  O  O206  1  0.258208  0.167240  0.252824  1
  O  O207  1  0.000000  0.138367  0.109942  1
  O  O208  1  0.742236  0.002736  0.151635  1
  O  O209  1  0.257898  0.002737  0.151635  1
  O  O210  1  0.500067  0.052900  0.148923  1
  O  O211  1  0.762202  0.057160  0.327684  1
  O  O212  1  0.237931  0.057159  0.327684  1
  O  O213  1  -0.000000  0.044077  0.350749  1
  O  O214  1  0.500067  0.135905  0.346763  1
  O  O215  1  0.750839  0.087577  0.352007  1
  O  O216  1  0.249295  0.087578  0.352007  1
  O  O217  1  0.743327  0.093678  0.125801  1
  O  O218  1  0.256808  0.093678  0.125801  1
  O  O219  1  0.764557  0.058277  0.164111  1
  O  O220  1  0.235575  0.058278  0.164111  1
  O  O221  1  -0.000000  0.046289  0.187388  1
  O  O222  1  0.500067  0.140245  0.180687  1
  O  O223  1  -0.000000  0.137910  0.273581  1
  O  O224  1  0.500066  0.050948  0.312353  1
  O  O225  1  0.743885  0.092327  0.289352  1
  O  O226  1  0.256248  0.092327  0.289352  1
  O  O227  1  0.747694  0.089629  0.187826  1
  O  O228  1  0.252441  0.089629  0.187826  1
  O  O229  1  -0.000000  0.861582  0.735934  1
  O  O230  1  0.742235  0.997213  0.694242  1
  O  O231  1  0.257897  0.997213  0.694242  1
  O  O232  1  0.500067  0.947049  0.696954  1
  O  O233  1  0.000000  0.790743  0.490808  1
  O  O234  1  0.786274  0.245810  0.618371  1
  O  O235  1  0.786275  0.754139  0.557032  1
  O  O236  1  0.213858  0.754139  0.557033  1
  O  O237  1  0.213858  0.245810  0.618371  1
  O  O238  1  0.783540  0.828465  0.560460  1
  O  O239  1  0.216592  0.828466  0.560460  1
  O  O240  1  0.723124  0.833304  0.525435  1
  O  O241  1  0.277008  0.833303  0.525435  1
  O  O242  1  0.000000  0.814631  0.541150  1
  O  O243  1  0.762203  0.942789  0.518193  1
  O  O244  1  0.237931  0.942790  0.518192  1
  O  O245  1  -0.000000  0.955872  0.495128  1
  O  O246  1  0.761500  0.837170  0.491285  1
  O  O247  1  0.238633  0.837169  0.491286  1
  O  O248  1  0.500067  0.864044  0.499114  1
  O  O249  1  0.500066  0.802756  0.450872  1
  O  O250  1  0.750838  0.912372  0.493869  1
  O  O251  1  0.249295  0.912372  0.493869  1
  O  O252  1  0.737878  0.248586  0.670060  1
  O  O253  1  0.737876  0.751363  0.505343  1
  O  O254  1  0.262256  0.751363  0.505344  1
  O  O255  1  0.262256  0.248586  0.670060  1
  O  O256  1  0.743084  0.833640  0.427316  1
  O  O257  1  0.257046  0.833640  0.427316  1
  O  O258  1  0.743326  0.906271  0.720075  1
  O  O259  1  0.256806  0.906271  0.720075  1
  O  O260  1  0.766280  0.803783  0.466691  1
  O  O261  1  0.233855  0.803782  0.466692  1
  O  O262  1  0.764437  0.253231  0.557466  1
  O  O263  1  0.764436  0.746714  0.617937  1
  O  O264  1  0.235698  0.746716  0.617938  1
  O  O265  1  0.235697  0.253231  0.557466  1
  O  O266  1  0.785463  0.826512  0.724839  1
  O  O267  1  0.214673  0.826513  0.724838  1
  O  O268  1  0.731418  0.831863  0.690158  1
  O  O269  1  0.268713  0.831862  0.690157  1
  O  O270  1  0.000000  0.804775  0.707679  1
  O  O271  1  0.764557  0.941672  0.681765  1
  O  O272  1  0.235577  0.941671  0.681766  1
  O  O273  1  -0.000000  0.953660  0.658489  1
  O  O274  1  0.759312  0.834552  0.656241  1
  O  O275  1  0.240828  0.834552  0.656239  1
  O  O276  1  0.500064  0.859704  0.665190  1
  O  O277  1  -0.000000  0.800101  0.648249  1
  O  O278  1  0.500066  0.786565  0.614248  1
  O  O279  1  0.000000  0.862038  0.572296  1
  O  O280  1  0.500067  0.949001  0.533524  1
  O  O281  1  0.741925  0.832709  0.593053  1
  O  O282  1  0.258211  0.832709  0.593053  1
  O  O283  1  0.743885  0.907622  0.556524  1
  O  O284  1  0.256247  0.907622  0.556524  1
  O  O285  1  0.783559  0.252137  0.504399  1
  O  O286  1  0.783556  0.747813  0.671003  1
  O  O287  1  0.216576  0.747812  0.671004  1
  O  O288  1  0.216575  0.252137  0.504399  1
  O  O289  1  0.732710  0.799485  0.632442  1
  O  O290  1  0.267424  0.799482  0.632442  1
  O  O291  1  0.747693  0.910320  0.658051  1
  O  O292  1  0.252438  0.910320  0.658050  1
  O  O293  1  0.760051  0.332434  0.591813  1
  O  O294  1  0.760053  0.667515  0.583590  1
  O  O295  1  0.240082  0.667516  0.583590  1
  O  O296  1  0.240083  0.332434  0.591813  1
  O  O297  1  0.736325  0.406427  0.555584  1
  O  O298  1  0.736326  0.593520  0.619820  1
  O  O299  1  0.263806  0.593522  0.619820  1
  O  O300  1  0.263808  0.406427  0.555584  1
  O  O301  1  0.500066  0.352694  0.571773  1
  O  O302  1  0.500065  0.647253  0.603630  1
  O  O303  1  -0.000000  0.448048  0.540347  1
  O  O304  1  -0.000000  0.551900  0.635057  1
  O  O305  1  0.733740  0.301644  0.631256  1
  O  O306  1  0.733741  0.698306  0.544148  1
  O  O307  1  0.266396  0.698305  0.544148  1
  O  O308  1  0.266394  0.301644  0.631256  1
  O  O309  1  0.500067  0.299580  0.653457  1
  O  O310  1  0.500067  0.700369  0.521946  1
  O  O311  1  0.769964  0.675184  0.450556  1
  O  O312  1  0.769965  0.324764  0.724848  1
  O  O313  1  0.230170  0.324765  0.724848  1
  O  O314  1  0.230168  0.675184  0.450556  1
  O  O315  1  0.500066  0.688721  0.461821  1
  O  O316  1  0.500067  0.311228  0.713582  1
  O  O317  1  0.764480  0.589735  0.516811  1
  O  O318  1  0.764480  0.410214  0.658593  1
  O  O319  1  0.235654  0.410213  0.658593  1
  O  O320  1  0.235655  0.589735  0.516811  1
  O  O321  1  0.500066  0.548752  0.519238  1
  O  O322  1  0.500066  0.451196  0.656166  1
  O  O323  1  -0.000000  0.645949  0.504242  1
  O  O324  1  0.000000  0.353999  0.671162  1
  O  O325  1  -0.000000  0.300861  0.615626  1
  O  O326  1  -0.000000  0.699089  0.559777  1
  O  O327  1  0.715388  0.748061  0.453746  1
  O  O328  1  0.715387  0.251888  0.721657  1
  O  O329  1  0.284746  0.251888  0.721658  1
  O  O330  1  0.284746  0.748061  0.453746  1
  O  O331  1  0.736732  0.668878  0.485593  1
  O  O332  1  0.736731  0.331072  0.689810  1
  O  O333  1  0.263401  0.331070  0.689811  1
  O  O334  1  0.263402  0.668878  0.485593  1
  O  O335  1  0.709626  0.556394  0.493905  1
  O  O336  1  0.709626  0.443555  0.681499  1
  O  O337  1  0.290506  0.443555  0.681499  1
  O  O338  1  0.290507  0.556394  0.493905  1
  O  O339  1  0.760562  0.665117  0.519646  1
  O  O340  1  0.760561  0.334832  0.655758  1
  O  O341  1  0.239572  0.334832  0.655758  1
  O  O342  1  0.239571  0.665117  0.519646  1
  O  O343  1  0.750436  0.498202  0.531184  1
  O  O344  1  0.750435  0.501746  0.644220  1
  O  O345  1  0.249698  0.501747  0.644220  1
  O  O346  1  0.249698  0.498202  0.531184  1
  O  O347  1  0.757630  0.752684  0.722122  1
  O  O348  1  0.757630  0.247264  0.453283  1
  O  O349  1  0.242504  0.247264  0.453283  1
  O  O350  1  0.242505  0.752684  0.722122  1
  O  O351  1  0.737555  0.327023  0.559611  1
  O  O352  1  0.737559  0.672920  0.615795  1
  O  O353  1  0.262576  0.672926  0.615793  1
  O  O354  1  0.262576  0.327022  0.559611  1
  O  O355  1  0.765949  0.331544  0.525022  1
  O  O356  1  0.765950  0.668408  0.650382  1
  O  O357  1  0.234183  0.668405  0.650382  1
  O  O358  1  0.234184  0.331544  0.525022  1
  O  O359  1  -0.000000  0.307196  0.549457  1
  O  O360  1  -0.000000  0.692753  0.625947  1
  O  O361  1  0.790883  0.444783  0.517290  1
  O  O362  1  0.790881  0.555166  0.658114  1
  O  O363  1  0.209250  0.555166  0.658114  1
  O  O364  1  0.209251  0.444783  0.517290  1
  O  O365  1  -0.000000  0.452168  0.491936  1
  O  O366  1  -0.000000  0.547781  0.683468  1
  O  O367  1  0.739829  0.337898  0.490461  1
  O  O368  1  0.739828  0.662052  0.684942  1
  O  O369  1  0.260302  0.662052  0.684941  1
  O  O370  1  0.260304  0.337897  0.490462  1
  O  O371  1  0.500067  0.354806  0.506756  1
  O  O372  1  0.500069  0.645144  0.668648  1
  O  O373  1  -0.000000  0.308265  0.483722  1
  O  O374  1  0.000000  0.691684  0.691681  1
  O  O375  1  0.500067  0.711286  0.724622  1
  O  O376  1  0.500067  0.288663  0.450782  1
  O  O377  1  0.000000  0.647550  0.437920  1
  O  O378  1  -0.000000  0.352399  0.737484  1
  O  O379  1  0.749858  0.502932  0.480036  1
  O  O380  1  0.749858  0.497017  0.695368  1
  O  O381  1  0.250276  0.497017  0.695368  1
  O  O382  1  0.250275  0.502932  0.480036  1
  O  O383  1  0.500066  0.553096  0.470921  1
  O  O384  1  0.500067  0.446854  0.704482  1
  O  O385  1  0.734077  0.667716  0.748508  1
  O  O386  1  0.734078  0.332233  0.426896  1
  O  O387  1  0.266057  0.332233  0.426896  1
  O  O388  1  0.266058  0.667716  0.748508  1
  O  O389  1  0.763683  0.594528  0.455530  1
  O  O390  1  0.763682  0.405420  0.719874  1
  O  O391  1  0.236452  0.405421  0.719874  1
  O  O392  1  0.236450  0.594528  0.455530  1
  O  O393  1  0.747385  0.695435  0.709624  1
  O  O394  1  0.747386  0.304514  0.465780  1
  O  O395  1  0.252747  0.304514  0.465780  1
  O  O396  1  0.252745  0.695435  0.709624  1
  O  O397  1  0.734281  0.411542  0.494416  1
  O  O398  1  0.734283  0.588408  0.680987  1
  O  O399  1  0.265854  0.588407  0.680987  1
  O  O400  1  0.265852  0.411542  0.494416  1
  O  O401  1  0.743071  0.998633  0.530662  1
  O  O402  1  0.257062  0.998634  0.530661  1
  O  O403  1  0.500067  0.213383  0.561156  1
  O  O404  1  -0.000000  0.209206  0.684595  1
  O  O405  1  0.500066  0.197193  0.724532  1
  O  O406  1  -0.000000  0.199847  0.527154  1
  O  O407  1  0.732708  0.200467  0.542963  1
  O  O408  1  0.267426  0.200467  0.542963  1
  O  O409  1  -0.000000  0.195174  0.467725  1
  O  O410  1  0.743071  0.001316  0.644742  1
  O  O411  1  0.257063  0.001315  0.644742  1
  O  O412  1  0.783540  0.171484  0.614943  1
  O  O413  1  0.216593  0.171484  0.614944  1
  O  O414  1  -0.000000  0.185318  0.634254  1
  O  O415  1  0.761499  0.162779  0.684119  1
  O  O416  1  0.238633  0.162780  0.684118  1
  O  O417  1  0.743085  0.166309  0.748088  1
  O  O418  1  0.257047  0.166309  0.748088  1
  O  O419  1  0.766279  0.196168  0.708712  1
  O  O420  1  0.233854  0.196167  0.708712  1
  O  O421  1  0.785463  0.173435  0.450566  1
  O  O422  1  0.214671  0.173436  0.450566  1
  O  O423  1  0.731421  0.168087  0.485247  1
  O  O424  1  0.268712  0.168087  0.485247  1
  O  O425  1  0.759303  0.165397  0.519165  1
  O  O426  1  0.240830  0.165396  0.519165  1
  O  O427  1  0.723124  0.166646  0.649969  1
  O  O428  1  0.277010  0.166646  0.649969  1
  O  O429  1  0.741925  0.167240  0.582351  1
  O  O430  1  0.258208  0.167240  0.582351  1
  O  O431  1  -0.000000  0.138367  0.439469  1
  O  O432  1  0.742236  0.002736  0.481162  1
  O  O433  1  0.257898  0.002737  0.481162  1
  O  O434  1  0.500067  0.052900  0.478450  1
  O  O435  1  0.762202  0.057160  0.657211  1
  O  O436  1  0.237931  0.057159  0.657211  1
  O  O437  1  0.000000  0.044077  0.680276  1
  O  O438  1  0.500067  0.135905  0.676290  1
  O  O439  1  0.750839  0.087577  0.681534  1
  O  O440  1  0.249295  0.087578  0.681534  1
  O  O441  1  0.743327  0.093678  0.455328  1
  O  O442  1  0.256808  0.093678  0.455328  1
  O  O443  1  0.764557  0.058277  0.493638  1
  O  O444  1  0.235575  0.058278  0.493638  1
  O  O445  1  -0.000000  0.046289  0.516915  1
  O  O446  1  0.500067  0.140245  0.510214  1
  O  O447  1  -0.000000  0.137910  0.603108  1
  O  O448  1  0.500066  0.050948  0.641880  1
  O  O449  1  0.743885  0.092327  0.618880  1
  O  O450  1  0.256248  0.092327  0.618880  1
  O  O451  1  0.747694  0.089629  0.517354  1
  O  O452  1  0.252441  0.089629  0.517354  1
  O  O453  1  0.743084  0.833640  0.756843  1
  O  O454  1  0.257046  0.833640  0.756843  1
  O  O455  1  0.734078  0.332233  0.756423  1
  O  O456  1  0.266057  0.332233  0.756423  1
  Si  Si457  1  0.683897  0.862388  0.172345  1
  Si  Si458  1  0.316237  0.862388  0.172345  1
  Si  Si459  1  0.816372  0.796484  0.158653  1
  Si  Si460  1  0.183761  0.796484  0.158654  1
  Si  Si461  1  0.684166  0.859667  0.337394  1
  Si  Si462  1  0.315964  0.859666  0.337393  1
  Si  Si463  1  0.683745  0.792090  0.284751  1
  Si  Si464  1  0.316392  0.792089  0.284752  1
  Si  Si465  1  0.683773  0.355011  0.240383  1
  Si  Si466  1  0.683770  0.644935  0.275967  1
  Si  Si467  1  0.316362  0.644937  0.275967  1
  Si  Si468  1  0.316362  0.355011  0.240383  1
  Si  Si469  1  0.683908  0.296697  0.322752  1
  Si  Si470  1  0.683907  0.703253  0.193597  1
  Si  Si471  1  0.316227  0.703252  0.193597  1
  Si  Si472  1  0.316227  0.296697  0.322752  1
  Si  Si473  1  0.816591  0.641635  0.177687  1
  Si  Si474  1  0.816591  0.358314  0.338663  1
  Si  Si475  1  0.183543  0.358314  0.338663  1
  Si  Si476  1  0.183543  0.641635  0.177687  1
  Si  Si477  1  0.815965  0.304548  0.218549  1
  Si  Si478  1  0.815958  0.695403  0.297799  1
  Si  Si479  1  0.184171  0.695403  0.297800  1
  Si  Si480  1  0.184169  0.304548  0.218550  1
  Si  Si481  1  0.683651  0.359654  0.174064  1
  Si  Si482  1  0.683652  0.640296  0.342285  1
  Si  Si483  1  0.316484  0.640296  0.342285  1
  Si  Si484  1  0.316484  0.359654  0.174064  1
  Si  Si485  1  0.816433  0.645660  0.111090  1
  Si  Si486  1  0.816433  0.354289  0.405260  1
  Si  Si487  1  0.183700  0.354289  0.405260  1
  Si  Si488  1  0.183700  0.645660  0.111090  1
  Si  Si489  1  0.683988  0.706068  0.396762  1
  Si  Si490  1  0.683988  0.293880  0.119588  1
  Si  Si491  1  0.316145  0.293880  0.119588  1
  Si  Si492  1  0.316146  0.706068  0.396762  1
  Si  Si493  1  0.684873  0.947916  0.369486  1
  Si  Si494  1  0.315260  0.947915  0.369486  1
  Si  Si495  1  0.814790  0.953460  0.166716  1
  Si  Si496  1  0.185343  0.953461  0.166715  1
  Si  Si497  1  0.683489  0.798201  0.119913  1
  Si  Si498  1  0.316644  0.798201  0.119913  1
  Si  Si499  1  0.816396  0.857246  0.405226  1
  Si  Si500  1  0.183737  0.857246  0.405226  1
  Si  Si501  1  0.816667  0.803706  0.381850  1
  Si  Si502  1  0.183469  0.803706  0.381850  1
  Si  Si503  1  0.684874  0.949380  0.205958  1
  Si  Si504  1  0.315260  0.949380  0.205958  1
  Si  Si505  1  0.815893  0.858193  0.241365  1
  Si  Si506  1  0.184240  0.858194  0.241365  1
  Si  Si507  1  0.816563  0.796340  0.322133  1
  Si  Si508  1  0.183565  0.796338  0.322133  1
  Si  Si509  1  0.814802  0.951955  0.330281  1
  Si  Si510  1  0.185334  0.951954  0.330281  1
  Si  Si511  1  0.816737  0.296194  0.284487  1
  Si  Si512  1  0.816738  0.703755  0.231862  1
  Si  Si513  1  0.183398  0.703755  0.231862  1
  Si  Si514  1  0.183397  0.296194  0.284487  1
  Si  Si515  1  0.683404  0.695345  0.133115  1
  Si  Si516  1  0.683404  0.304604  0.383234  1
  Si  Si517  1  0.316730  0.304604  0.383234  1
  Si  Si518  1  0.316730  0.695345  0.133115  1
  Si  Si519  1  0.816077  0.698304  0.360181  1
  Si  Si520  1  0.816079  0.301647  0.156167  1
  Si  Si521  1  0.184055  0.301647  0.156167  1
  Si  Si522  1  0.184054  0.698302  0.360182  1
  Si  Si523  1  0.817430  0.807619  0.216688  1
  Si  Si524  1  0.182703  0.807619  0.216688  1
  Si  Si525  1  0.683601  0.548082  0.186696  1
  Si  Si526  1  0.683600  0.451867  0.329653  1
  Si  Si527  1  0.316531  0.451867  0.329653  1
  Si  Si528  1  0.316532  0.548082  0.186696  1
  Si  Si529  1  0.816780  0.449271  0.207342  1
  Si  Si530  1  0.816780  0.550677  0.309008  1
  Si  Si531  1  0.183354  0.550678  0.309008  1
  Si  Si532  1  0.183354  0.449271  0.207342  1
  Si  Si533  1  0.683474  0.551885  0.144808  1
  Si  Si534  1  0.683475  0.448065  0.371541  1
  Si  Si535  1  0.316660  0.448064  0.371541  1
  Si  Si536  1  0.316658  0.551885  0.144808  1
  Si  Si537  1  0.816570  0.453013  0.165464  1
  Si  Si538  1  0.816570  0.546936  0.350886  1
  Si  Si539  1  0.183564  0.546936  0.350886  1
  Si  Si540  1  0.183564  0.453013  0.165464  1
  Si  Si541  1  0.683750  0.207861  0.231597  1
  Si  Si542  1  0.316383  0.207861  0.231597  1
  Si  Si543  1  0.816372  0.203466  0.357696  1
  Si  Si544  1  0.183761  0.203466  0.357696  1
  Si  Si545  1  0.683489  0.201748  0.396437  1
  Si  Si546  1  0.316644  0.201748  0.396437  1
  Si  Si547  1  0.816665  0.196243  0.134500  1
  Si  Si548  1  0.183468  0.196243  0.134500  1
  Si  Si549  1  0.816570  0.203611  0.194215  1
  Si  Si550  1  0.183563  0.203611  0.194215  1
  Si  Si551  1  0.817430  0.192330  0.299661  1
  Si  Si552  1  0.182702  0.192330  0.299661  1
  Si  Si553  1  0.683897  0.137561  0.344004  1
  Si  Si554  1  0.316237  0.137561  0.344004  1
  Si  Si555  1  0.684167  0.140283  0.178957  1
  Si  Si556  1  0.315966  0.140283  0.178957  1
  Si  Si557  1  0.684873  0.052034  0.146864  1
  Si  Si558  1  0.315260  0.052034  0.146864  1
  Si  Si559  1  0.814791  0.046489  0.349634  1
  Si  Si560  1  0.185343  0.046489  0.349634  1
  Si  Si561  1  0.816397  0.142702  0.111124  1
  Si  Si562  1  0.183737  0.142703  0.111124  1
  Si  Si563  1  0.684873  0.050569  0.310391  1
  Si  Si564  1  0.315260  0.050569  0.310391  1
  Si  Si565  1  0.815894  0.141755  0.274985  1
  Si  Si566  1  0.184240  0.141755  0.274985  1
  Si  Si567  1  0.814800  0.047995  0.186069  1
  Si  Si568  1  0.185332  0.047995  0.186069  1
  Si  Si569  1  0.683897  0.862388  0.501872  1
  Si  Si570  1  0.316237  0.862388  0.501872  1
  Si  Si571  1  0.816372  0.796484  0.488181  1
  Si  Si572  1  0.183761  0.796484  0.488181  1
  Si  Si573  1  0.684166  0.859667  0.666921  1
  Si  Si574  1  0.315964  0.859666  0.666920  1
  Si  Si575  1  0.683745  0.792090  0.614278  1
  Si  Si576  1  0.316392  0.792089  0.614279  1
  Si  Si577  1  0.683773  0.355011  0.569910  1
  Si  Si578  1  0.683770  0.644935  0.605494  1
  Si  Si579  1  0.316362  0.644937  0.605494  1
  Si  Si580  1  0.316362  0.355011  0.569910  1
  Si  Si581  1  0.683908  0.296697  0.652279  1
  Si  Si582  1  0.683907  0.703253  0.523124  1
  Si  Si583  1  0.316227  0.703252  0.523125  1
  Si  Si584  1  0.316227  0.296697  0.652279  1
  Si  Si585  1  0.816591  0.641635  0.507214  1
  Si  Si586  1  0.816591  0.358314  0.668190  1
  Si  Si587  1  0.183543  0.358314  0.668190  1
  Si  Si588  1  0.183543  0.641635  0.507214  1
  Si  Si589  1  0.815965  0.304548  0.548076  1
  Si  Si590  1  0.815958  0.695403  0.627326  1
  Si  Si591  1  0.184171  0.695403  0.627327  1
  Si  Si592  1  0.184169  0.304548  0.548077  1
  Si  Si593  1  0.683651  0.359654  0.503591  1
  Si  Si594  1  0.683652  0.640296  0.671812  1
  Si  Si595  1  0.316484  0.640296  0.671812  1
  Si  Si596  1  0.316484  0.359654  0.503591  1
  Si  Si597  1  0.816433  0.645660  0.440617  1
  Si  Si598  1  0.816433  0.354289  0.734787  1
  Si  Si599  1  0.183700  0.354289  0.734787  1
  Si  Si600  1  0.183700  0.645660  0.440617  1
  Si  Si601  1  0.683988  0.706068  0.726289  1
  Si  Si602  1  0.683988  0.293880  0.449115  1
  Si  Si603  1  0.316145  0.293880  0.449115  1
  Si  Si604  1  0.316146  0.706068  0.726289  1
  Si  Si605  1  0.684873  0.947916  0.699013  1
  Si  Si606  1  0.315260  0.947915  0.699013  1
  Si  Si607  1  0.814790  0.953460  0.496243  1
  Si  Si608  1  0.185343  0.953461  0.496242  1
  Si  Si609  1  0.683489  0.798201  0.449440  1
  Si  Si610  1  0.316644  0.798201  0.449440  1
  Si  Si611  1  0.816396  0.857246  0.734753  1
  Si  Si612  1  0.183737  0.857246  0.734753  1
  Si  Si613  1  0.816667  0.803706  0.711377  1
  Si  Si614  1  0.183469  0.803706  0.711377  1
  Si  Si615  1  0.684874  0.949380  0.535485  1
  Si  Si616  1  0.315260  0.949380  0.535485  1
  Si  Si617  1  0.815893  0.858193  0.570892  1
  Si  Si618  1  0.184240  0.858194  0.570892  1
  Si  Si619  1  0.816563  0.796340  0.651661  1
  Si  Si620  1  0.183565  0.796338  0.651661  1
  Si  Si621  1  0.814802  0.951955  0.659808  1
  Si  Si622  1  0.185334  0.951954  0.659808  1
  Si  Si623  1  0.816737  0.296194  0.614014  1
  Si  Si624  1  0.816738  0.703755  0.561389  1
  Si  Si625  1  0.183398  0.703755  0.561389  1
  Si  Si626  1  0.183397  0.296194  0.614014  1
  Si  Si627  1  0.683404  0.695345  0.462642  1
  Si  Si628  1  0.683404  0.304604  0.712761  1
  Si  Si629  1  0.316730  0.304604  0.712761  1
  Si  Si630  1  0.316730  0.695345  0.462642  1
  Si  Si631  1  0.816077  0.698304  0.689708  1
  Si  Si632  1  0.816079  0.301647  0.485695  1
  Si  Si633  1  0.184055  0.301647  0.485695  1
  Si  Si634  1  0.184054  0.698302  0.689709  1
  Si  Si635  1  0.817430  0.807619  0.546216  1
  Si  Si636  1  0.182703  0.807619  0.546216  1
  Si  Si637  1  0.683601  0.548082  0.516224  1
  Si  Si638  1  0.683600  0.451867  0.659180  1
  Si  Si639  1  0.316531  0.451867  0.659180  1
  Si  Si640  1  0.316532  0.548082  0.516224  1
  Si  Si641  1  0.816780  0.449271  0.536869  1
  Si  Si642  1  0.816780  0.550677  0.638535  1
  Si  Si643  1  0.183354  0.550678  0.638535  1
  Si  Si644  1  0.183354  0.449271  0.536869  1
  Si  Si645  1  0.683474  0.551885  0.474335  1
  Si  Si646  1  0.683475  0.448065  0.701068  1
  Si  Si647  1  0.316660  0.448064  0.701068  1
  Si  Si648  1  0.316658  0.551885  0.474335  1
  Si  Si649  1  0.816570  0.453013  0.494991  1
  Si  Si650  1  0.816570  0.546936  0.680413  1
  Si  Si651  1  0.183564  0.546936  0.680413  1
  Si  Si652  1  0.183564  0.453013  0.494991  1
  Si  Si653  1  0.683750  0.207861  0.561124  1
  Si  Si654  1  0.316383  0.207861  0.561124  1
  Si  Si655  1  0.816372  0.203466  0.687223  1
  Si  Si656  1  0.183761  0.203466  0.687223  1
  Si  Si657  1  0.683489  0.201748  0.725964  1
  Si  Si658  1  0.316644  0.201748  0.725964  1
  Si  Si659  1  0.816665  0.196243  0.464027  1
  Si  Si660  1  0.183468  0.196243  0.464027  1
  Si  Si661  1  0.816570  0.203611  0.523742  1
  Si  Si662  1  0.183563  0.203611  0.523742  1
  Si  Si663  1  0.817430  0.192330  0.629188  1
  Si  Si664  1  0.182702  0.192330  0.629188  1
  Si  Si665  1  0.683897  0.137561  0.673532  1
  Si  Si666  1  0.316237  0.137561  0.673531  1
  Si  Si667  1  0.684167  0.140283  0.508484  1
  Si  Si668  1  0.315966  0.140283  0.508484  1
  Si  Si669  1  0.684873  0.052034  0.476391  1
  Si  Si670  1  0.315260  0.052034  0.476391  1
  Si  Si671  1  0.814791  0.046489  0.679161  1
  Si  Si672  1  0.185343  0.046489  0.679162  1
  Si  Si673  1  0.816397  0.142702  0.440651  1
  Si  Si674  1  0.183737  0.142703  0.440651  1
  Si  Si675  1  0.684873  0.050569  0.639919  1
  Si  Si676  1  0.315260  0.050569  0.639919  1
  Si  Si677  1  0.815894  0.141755  0.604512  1
  Si  Si678  1  0.184240  0.141755  0.604512  1
  Si  Si679  1  0.814800  0.047995  0.515596  1
  Si  Si680  1  0.185332  0.047995  0.515596  1
  H  H681  1  0.734077  0.667716  0.077481  1
  H  H682  1  0.266058  0.667716  0.077481  1
  H  H683  1  0.743085  0.166309  0.077062  1
  H  H684  1  0.257047  0.166309  0.077062  1
  H  H685  1  0.743084  0.833640  0.085816  1
  H  H686  1  0.257046  0.833640  0.085816  1
  H  H687  1  0.734078  0.332233  0.085397  1
  H  H688  1  0.266057  0.332233  0.085396  1
  H  H689  1  0.734077  0.667716  0.760480  1
  H  H690  1  0.266058  0.667716  0.760480  1
  H  H691  1  0.743085  0.166309  0.760060  1
  H  H692  1  0.257047  0.166309  0.760060  1
  H  H693  1  0.743084  0.833640  0.768815  1
  H  H694  1  0.257046  0.833640  0.768815  1
  H  H695  1  0.734078  0.332233  0.768395  1
  H  H696  1  0.266057  0.332233  0.768395  1
