# generated using pymatgen
data_Si14H2O29
_symmetry_space_group_name_H-M   'P 1'
_cell_length_a   8.41979979
_cell_length_b   33.60885434
_cell_length_c   50.54836872
_cell_angle_alpha   59.66755629
_cell_angle_beta   90.00000000
_cell_angle_gamma   90.00000000
_symmetry_Int_Tables_number   1
_chemical_formula_structural   Si14H2O29
_chemical_formula_sum   'Si112 H16 O232'
_cell_volume   12346.066938
_cell_formula_units_Z   8
loop_
 _symmetry_equiv_pos_site_id
 _symmetry_equiv_pos_as_xyz
  1  'x, y, z'
loop_
 _atom_site_type_symbol
 _atom_site_label
 _atom_site_symmetry_multiplicity
 _atom_site_fract_x
 _atom_site_fract_y
 _atom_site_fract_z
 _atom_site_occupancy
  O  O1  1  -0.000000  0.861582  0.360812  1
  O  O2  1  0.742235  0.997213  0.298809  1
  O  O3  1  0.257897  0.997213  0.298808  1
  O  O4  1  0.500067  0.947049  0.302841  1
  O  O5  1  0.786274  0.245810  0.185977  1
  O  O6  1  0.213858  0.245810  0.185977  1
  O  O7  1  0.737878  0.248586  0.262846  1
  O  O8  1  0.262256  0.248586  0.262846  1
  O  O9  1  0.743326  0.906271  0.337227  1
  O  O10  1  0.256806  0.906271  0.337227  1
  O  O11  1  0.764436  0.746714  0.185330  1
  O  O12  1  0.235698  0.746716  0.185332  1
  O  O13  1  0.785463  0.826512  0.344311  1
  O  O14  1  0.214673  0.826513  0.344310  1
  O  O15  1  0.731418  0.831863  0.292734  1
  O  O16  1  0.268713  0.831862  0.292733  1
  O  O17  1  -0.000000  0.804775  0.318791  1
  O  O18  1  0.764557  0.941672  0.280254  1
  O  O19  1  0.235577  0.941671  0.280254  1
  O  O20  1  -0.000000  0.953660  0.245638  1
  O  O21  1  0.759312  0.834552  0.242294  1
  O  O22  1  0.240828  0.834552  0.242291  1
  O  O23  1  0.500064  0.859704  0.255603  1
  O  O24  1  -0.000000  0.800101  0.230410  1
  O  O25  1  0.500066  0.786565  0.179845  1
  O  O26  1  0.741925  0.832709  0.148325  1
  O  O27  1  0.258211  0.832709  0.148324  1
  O  O28  1  0.783556  0.747813  0.264249  1
  O  O29  1  0.216576  0.747812  0.264251  1
  O  O30  1  0.732710  0.799485  0.206901  1
  O  O31  1  0.267424  0.799482  0.206902  1
  O  O32  1  0.747693  0.910320  0.244986  1
  O  O33  1  0.252438  0.910320  0.244986  1
  O  O34  1  0.760051  0.332434  0.146481  1
  O  O35  1  0.760053  0.667515  0.134251  1
  O  O36  1  0.240082  0.667516  0.134252  1
  O  O37  1  0.240083  0.332434  0.146480  1
  O  O38  1  0.736326  0.593520  0.188130  1
  O  O39  1  0.263806  0.593522  0.188131  1
  O  O40  1  0.500065  0.647253  0.164054  1
  O  O41  1  -0.000000  0.551900  0.210791  1
  O  O42  1  0.733740  0.301644  0.205137  1
  O  O43  1  0.266394  0.301644  0.205137  1
  O  O44  1  0.500067  0.299580  0.238155  1
  O  O45  1  0.769965  0.324764  0.344325  1
  O  O46  1  0.230170  0.324765  0.344324  1
  O  O47  1  0.500067  0.311228  0.327571  1
  O  O48  1  0.764480  0.410214  0.245792  1
  O  O49  1  0.235654  0.410213  0.245793  1
  O  O50  1  0.500066  0.451196  0.242183  1
  O  O51  1  0.000000  0.353999  0.264484  1
  O  O52  1  -0.000000  0.300861  0.181894  1
  O  O53  1  0.715387  0.251888  0.339580  1
  O  O54  1  0.284746  0.251888  0.339580  1
  O  O55  1  0.736731  0.331072  0.292218  1
  O  O56  1  0.263401  0.331070  0.292218  1
  O  O57  1  0.709626  0.443555  0.279857  1
  O  O58  1  0.290506  0.443555  0.279857  1
  O  O59  1  0.760561  0.334832  0.241577  1
  O  O60  1  0.239572  0.334832  0.241577  1
  O  O61  1  0.750435  0.501746  0.224417  1
  O  O62  1  0.249698  0.501747  0.224417  1
  O  O63  1  0.757630  0.752684  0.340270  1
  O  O64  1  0.242505  0.752684  0.340270  1
  O  O65  1  0.737559  0.672920  0.182145  1
  O  O66  1  0.262576  0.672926  0.182142  1
  O  O67  1  0.765950  0.668408  0.233581  1
  O  O68  1  0.234183  0.668405  0.233582  1
  O  O69  1  0.000000  0.692753  0.197242  1
  O  O70  1  0.790881  0.555166  0.245080  1
  O  O71  1  0.209250  0.555166  0.245080  1
  O  O72  1  0.000000  0.547781  0.282786  1
  O  O73  1  0.739828  0.662052  0.284978  1
  O  O74  1  0.260302  0.662052  0.284977  1
  O  O75  1  0.500069  0.645144  0.260746  1
  O  O76  1  -0.000000  0.691684  0.295000  1
  O  O77  1  0.500067  0.711286  0.343988  1
  O  O78  1  -0.000000  0.352399  0.363116  1
  O  O79  1  0.749858  0.497017  0.300483  1
  O  O80  1  0.250276  0.497017  0.300483  1
  O  O81  1  0.500067  0.446854  0.314037  1
  O  O82  1  0.734077  0.667716  0.379510  1
  O  O83  1  0.266058  0.667716  0.379511  1
  O  O84  1  0.763682  0.405420  0.336928  1
  O  O85  1  0.236452  0.405421  0.336927  1
  O  O86  1  0.747385  0.695435  0.321684  1
  O  O87  1  0.252745  0.695435  0.321684  1
  O  O88  1  0.734283  0.588408  0.279096  1
  O  O89  1  0.265854  0.588407  0.279097  1
  O  O90  1  -0.000000  0.209206  0.284462  1
  O  O91  1  0.500066  0.197193  0.343855  1
  O  O92  1  0.743071  0.001316  0.225194  1
  O  O93  1  0.257063  0.001315  0.225195  1
  O  O94  1  0.783540  0.171484  0.180878  1
  O  O95  1  0.216593  0.171484  0.180879  1
  O  O96  1  0.000000  0.185318  0.209596  1
  O  O97  1  0.761499  0.162779  0.283753  1
  O  O98  1  0.238633  0.162780  0.283753  1
  O  O99  1  0.743085  0.166309  0.378887  1
  O  O100  1  0.257047  0.166309  0.378887  1
  O  O101  1  0.766279  0.196168  0.320328  1
  O  O102  1  0.233854  0.196167  0.320328  1
  O  O103  1  0.723124  0.166646  0.232967  1
  O  O104  1  0.277010  0.166646  0.232967  1
  O  O105  1  0.741925  0.167240  0.132408  1
  O  O106  1  0.258208  0.167240  0.132408  1
  O  O107  1  0.762202  0.057160  0.243738  1
  O  O108  1  0.237931  0.057159  0.243738  1
  O  O109  1  -0.000000  0.044077  0.278038  1
  O  O110  1  0.500067  0.135905  0.272111  1
  O  O111  1  0.750839  0.087577  0.279910  1
  O  O112  1  0.249295  0.087578  0.279909  1
  O  O113  1  -0.000000  0.137910  0.163277  1
  O  O114  1  0.500066  0.050948  0.220937  1
  O  O115  1  0.743885  0.092327  0.186732  1
  O  O116  1  0.256248  0.092327  0.186732  1
  O  O117  1  -0.000000  0.790743  0.486330  1
  O  O118  1  0.786275  0.754139  0.584816  1
  O  O119  1  0.213858  0.754139  0.584817  1
  O  O120  1  0.783540  0.828465  0.589914  1
  O  O121  1  0.216592  0.828466  0.589914  1
  O  O122  1  0.723124  0.833304  0.537826  1
  O  O123  1  0.277008  0.833303  0.537826  1
  O  O124  1  -0.000000  0.814631  0.561197  1
  O  O125  1  0.762203  0.942789  0.527055  1
  O  O126  1  0.237931  0.942790  0.527055  1
  O  O127  1  -0.000000  0.955872  0.492755  1
  O  O128  1  0.761500  0.837170  0.487040  1
  O  O129  1  0.238633  0.837169  0.487040  1
  O  O130  1  0.500067  0.864044  0.498681  1
  O  O131  1  0.500066  0.802756  0.426938  1
  O  O132  1  0.750838  0.912372  0.490883  1
  O  O133  1  0.249295  0.912372  0.490883  1
  O  O134  1  0.737876  0.751363  0.507946  1
  O  O135  1  0.262256  0.751363  0.507947  1
  O  O136  1  0.743084  0.833640  0.391906  1
  O  O137  1  0.257046  0.833640  0.391906  1
  O  O138  1  0.766280  0.803783  0.450464  1
  O  O139  1  0.233855  0.803782  0.450465  1
  O  O140  1  0.764437  0.253231  0.585461  1
  O  O141  1  0.235697  0.253231  0.585461  1
  O  O142  1  -0.000000  0.862038  0.607516  1
  O  O143  1  0.500067  0.949001  0.549855  1
  O  O144  1  0.741925  0.832709  0.638386  1
  O  O145  1  0.258211  0.832709  0.638385  1
  O  O146  1  0.743885  0.907622  0.584061  1
  O  O147  1  0.256247  0.907622  0.584060  1
  O  O148  1  0.783559  0.252137  0.506542  1
  O  O149  1  0.216575  0.252137  0.506542  1
  O  O150  1  0.760051  0.332434  0.636541  1
  O  O151  1  0.760053  0.667515  0.624312  1
  O  O152  1  0.240082  0.667516  0.624313  1
  O  O153  1  0.240083  0.332434  0.636541  1
  O  O154  1  0.736325  0.406427  0.582662  1
  O  O155  1  0.263808  0.406427  0.582662  1
  O  O156  1  0.500066  0.352694  0.606738  1
  O  O157  1  -0.000000  0.448048  0.560002  1
  O  O158  1  0.733741  0.698306  0.565655  1
  O  O159  1  0.266396  0.698305  0.565656  1
  O  O160  1  0.500067  0.700369  0.532638  1
  O  O161  1  0.769964  0.675184  0.426469  1
  O  O162  1  0.230168  0.675184  0.426469  1
  O  O163  1  0.500066  0.688721  0.443222  1
  O  O164  1  0.764480  0.589735  0.525000  1
  O  O165  1  0.235655  0.589735  0.525001  1
  O  O166  1  0.500066  0.548752  0.528610  1
  O  O167  1  -0.000000  0.645949  0.506308  1
  O  O168  1  -0.000000  0.699089  0.588898  1
  O  O169  1  0.715388  0.748061  0.431213  1
  O  O170  1  0.284746  0.748061  0.431213  1
  O  O171  1  0.736732  0.668878  0.478575  1
  O  O172  1  0.263402  0.668878  0.478575  1
  O  O173  1  0.709626  0.556394  0.490935  1
  O  O174  1  0.290507  0.556394  0.490935  1
  O  O175  1  0.760562  0.665117  0.529216  1
  O  O176  1  0.239571  0.665117  0.529216  1
  O  O177  1  0.750436  0.498202  0.546376  1
  O  O178  1  0.249698  0.498202  0.546376  1
  O  O179  1  0.757630  0.247264  0.430523  1
  O  O180  1  0.242504  0.247264  0.430523  1
  O  O181  1  0.737555  0.327023  0.588651  1
  O  O182  1  0.262576  0.327022  0.588651  1
  O  O183  1  0.765949  0.331544  0.537212  1
  O  O184  1  0.234184  0.331544  0.537212  1
  O  O185  1  -0.000000  0.307196  0.573550  1
  O  O186  1  0.790883  0.444783  0.525713  1
  O  O187  1  0.209251  0.444783  0.525713  1
  O  O188  1  -0.000000  0.452168  0.488007  1
  O  O189  1  0.739829  0.337898  0.485814  1
  O  O190  1  0.260304  0.337897  0.485815  1
  O  O191  1  0.500067  0.354806  0.510046  1
  O  O192  1  -0.000000  0.308265  0.475792  1
  O  O193  1  0.500067  0.288663  0.426804  1
  O  O194  1  0.000000  0.647550  0.407676  1
  O  O195  1  0.749858  0.502932  0.470309  1
  O  O196  1  0.250275  0.502932  0.470310  1
  O  O197  1  0.500066  0.553096  0.456755  1
  O  O198  1  0.734078  0.332233  0.391282  1
  O  O199  1  0.266057  0.332233  0.391282  1
  O  O200  1  0.763683  0.594528  0.433866  1
  O  O201  1  0.236450  0.594528  0.433866  1
  O  O202  1  0.747386  0.304514  0.449109  1
  O  O203  1  0.252747  0.304514  0.449108  1
  O  O204  1  0.734281  0.411542  0.491696  1
  O  O205  1  0.265852  0.411542  0.491696  1
  O  O206  1  0.743071  0.998633  0.545599  1
  O  O207  1  0.257062  0.998634  0.545598  1
  O  O208  1  0.500067  0.213383  0.590949  1
  O  O209  1  -0.000000  0.199847  0.540383  1
  O  O210  1  0.732708  0.200467  0.563892  1
  O  O211  1  0.267426  0.200467  0.563892  1
  O  O212  1  0.000000  0.195174  0.452002  1
  O  O213  1  0.785463  0.173435  0.426483  1
  O  O214  1  0.214671  0.173436  0.426483  1
  O  O215  1  0.731421  0.168087  0.478059  1
  O  O216  1  0.268712  0.168087  0.478059  1
  O  O217  1  0.759303  0.165397  0.528501  1
  O  O218  1  0.240830  0.165396  0.528502  1
  O  O219  1  0.741925  0.167240  0.622469  1
  O  O220  1  0.258208  0.167240  0.622469  1
  O  O221  1  -0.000000  0.138367  0.409981  1
  O  O222  1  0.742236  0.002736  0.471985  1
  O  O223  1  0.257898  0.002737  0.471984  1
  O  O224  1  0.500067  0.052900  0.467952  1
  O  O225  1  0.743327  0.093678  0.433566  1
  O  O226  1  0.256808  0.093678  0.433566  1
  O  O227  1  0.764557  0.058277  0.490539  1
  O  O228  1  0.235575  0.058278  0.490539  1
  O  O229  1  -0.000000  0.046289  0.525156  1
  O  O230  1  0.500067  0.140245  0.515190  1
  O  O231  1  0.747694  0.089629  0.525807  1
  O  O232  1  0.252441  0.089629  0.525807  1
  Si  Si233  1  0.684166  0.859667  0.258177  1
  Si  Si234  1  0.315964  0.859666  0.258176  1
  Si  Si235  1  0.683745  0.792090  0.179889  1
  Si  Si236  1  0.316392  0.792089  0.179890  1
  Si  Si237  1  0.683770  0.644935  0.166825  1
  Si  Si238  1  0.316362  0.644937  0.166825  1
  Si  Si239  1  0.683908  0.296697  0.236403  1
  Si  Si240  1  0.316227  0.296697  0.236403  1
  Si  Si241  1  0.816591  0.358314  0.260064  1
  Si  Si242  1  0.183543  0.358314  0.260064  1
  Si  Si243  1  0.815958  0.695403  0.199293  1
  Si  Si244  1  0.184171  0.695403  0.199295  1
  Si  Si245  1  0.683652  0.640296  0.265452  1
  Si  Si246  1  0.316484  0.640296  0.265452  1
  Si  Si247  1  0.816433  0.354289  0.359105  1
  Si  Si248  1  0.183700  0.354289  0.359106  1
  Si  Si249  1  0.683988  0.706068  0.346468  1
  Si  Si250  1  0.316146  0.706068  0.346468  1
  Si  Si251  1  0.684873  0.947916  0.305904  1
  Si  Si252  1  0.315260  0.947915  0.305904  1
  Si  Si253  1  0.816396  0.857246  0.359055  1
  Si  Si254  1  0.183737  0.857246  0.359055  1
  Si  Si255  1  0.816667  0.803706  0.324291  1
  Si  Si256  1  0.183469  0.803706  0.324291  1
  Si  Si257  1  0.816563  0.796340  0.235483  1
  Si  Si258  1  0.183565  0.796338  0.235483  1
  Si  Si259  1  0.814802  0.951955  0.247599  1
  Si  Si260  1  0.185334  0.951954  0.247600  1
  Si  Si261  1  0.816737  0.296194  0.179497  1
  Si  Si262  1  0.183397  0.296194  0.179497  1
  Si  Si263  1  0.683404  0.304604  0.326350  1
  Si  Si264  1  0.316730  0.304604  0.326350  1
  Si  Si265  1  0.816077  0.698304  0.292066  1
  Si  Si266  1  0.184054  0.698302  0.292067  1
  Si  Si267  1  0.683600  0.451867  0.246666  1
  Si  Si268  1  0.316531  0.451867  0.246666  1
  Si  Si269  1  0.816780  0.550677  0.215963  1
  Si  Si270  1  0.183354  0.550678  0.215963  1
  Si  Si271  1  0.683475  0.448065  0.308960  1
  Si  Si272  1  0.316660  0.448064  0.308960  1
  Si  Si273  1  0.816570  0.546936  0.278242  1
  Si  Si274  1  0.183564  0.546936  0.278242  1
  Si  Si275  1  0.816372  0.203466  0.288370  1
  Si  Si276  1  0.183761  0.203466  0.288370  1
  Si  Si277  1  0.683489  0.201748  0.345984  1
  Si  Si278  1  0.316644  0.201748  0.345984  1
  Si  Si279  1  0.817430  0.192330  0.202063  1
  Si  Si280  1  0.182702  0.192330  0.202063  1
  Si  Si281  1  0.683897  0.137561  0.268009  1
  Si  Si282  1  0.316237  0.137561  0.268008  1
  Si  Si283  1  0.814791  0.046489  0.276381  1
  Si  Si284  1  0.185343  0.046489  0.276381  1
  Si  Si285  1  0.684873  0.050569  0.218021  1
  Si  Si286  1  0.315260  0.050569  0.218021  1
  Si  Si287  1  0.815894  0.141755  0.165365  1
  Si  Si288  1  0.184240  0.141755  0.165365  1
  Si  Si289  1  0.683897  0.862388  0.502784  1
  Si  Si290  1  0.316237  0.862388  0.502784  1
  Si  Si291  1  0.816372  0.796484  0.482422  1
  Si  Si292  1  0.183761  0.796484  0.482423  1
  Si  Si293  1  0.683773  0.355011  0.603967  1
  Si  Si294  1  0.316362  0.355011  0.603967  1
  Si  Si295  1  0.683907  0.703253  0.534389  1
  Si  Si296  1  0.316227  0.703252  0.534390  1
  Si  Si297  1  0.816591  0.641635  0.510728  1
  Si  Si298  1  0.183543  0.641635  0.510728  1
  Si  Si299  1  0.815965  0.304548  0.571497  1
  Si  Si300  1  0.184169  0.304548  0.571498  1
  Si  Si301  1  0.683651  0.359654  0.505340  1
  Si  Si302  1  0.316484  0.359654  0.505340  1
  Si  Si303  1  0.816433  0.645660  0.411687  1
  Si  Si304  1  0.183700  0.645660  0.411687  1
  Si  Si305  1  0.683988  0.293880  0.424325  1
  Si  Si306  1  0.316145  0.293880  0.424325  1
  Si  Si307  1  0.814790  0.953460  0.494412  1
  Si  Si308  1  0.185343  0.953461  0.494411  1
  Si  Si309  1  0.683489  0.798201  0.424809  1
  Si  Si310  1  0.316644  0.798201  0.424809  1
  Si  Si311  1  0.684874  0.949380  0.552772  1
  Si  Si312  1  0.315260  0.949380  0.552772  1
  Si  Si313  1  0.815893  0.858193  0.605428  1
  Si  Si314  1  0.184240  0.858194  0.605428  1
  Si  Si315  1  0.816738  0.703755  0.591296  1
  Si  Si316  1  0.183398  0.703755  0.591296  1
  Si  Si317  1  0.683404  0.695345  0.444442  1
  Si  Si318  1  0.316730  0.695345  0.444442  1
  Si  Si319  1  0.816079  0.301647  0.478725  1
  Si  Si320  1  0.184055  0.301647  0.478725  1
  Si  Si321  1  0.817430  0.807619  0.568730  1
  Si  Si322  1  0.182703  0.807619  0.568730  1
  Si  Si323  1  0.683601  0.548082  0.524127  1
  Si  Si324  1  0.316532  0.548082  0.524127  1
  Si  Si325  1  0.816780  0.449271  0.554830  1
  Si  Si326  1  0.183354  0.449271  0.554830  1
  Si  Si327  1  0.683474  0.551885  0.461832  1
  Si  Si328  1  0.316658  0.551885  0.461832  1
  Si  Si329  1  0.816570  0.453013  0.492551  1
  Si  Si330  1  0.183564  0.453013  0.492551  1
  Si  Si331  1  0.683750  0.207861  0.590902  1
  Si  Si332  1  0.316383  0.207861  0.590902  1
  Si  Si333  1  0.816665  0.196243  0.446502  1
  Si  Si334  1  0.183468  0.196243  0.446502  1
  Si  Si335  1  0.816570  0.203611  0.535308  1
  Si  Si336  1  0.183563  0.203611  0.535308  1
  Si  Si337  1  0.684167  0.140283  0.512616  1
  Si  Si338  1  0.315966  0.140283  0.512616  1
  Si  Si339  1  0.684873  0.052034  0.464889  1
  Si  Si340  1  0.315260  0.052034  0.464889  1
  Si  Si341  1  0.816397  0.142702  0.411738  1
  Si  Si342  1  0.183737  0.142703  0.411738  1
  Si  Si343  1  0.814800  0.047995  0.523193  1
  Si  Si344  1  0.185332  0.047995  0.523193  1
  H  H345  1  0.741925  0.832709  0.130520  1
  H  H346  1  0.258211  0.832709  0.130519  1
  H  H347  1  0.760051  0.332434  0.128676  1
  H  H348  1  0.760053  0.667515  0.116446  1
  H  H349  1  0.240082  0.667516  0.116447  1
  H  H350  1  0.240083  0.332434  0.128675  1
  H  H351  1  0.741925  0.167240  0.114603  1
  H  H352  1  0.258208  0.167240  0.114603  1
  H  H353  1  0.741925  0.832709  0.656190  1
  H  H354  1  0.258211  0.832709  0.656190  1
  H  H355  1  0.760051  0.332434  0.654346  1
  H  H356  1  0.760053  0.667515  0.642117  1
  H  H357  1  0.240082  0.667516  0.642117  1
  H  H358  1  0.240083  0.332434  0.654346  1
  H  H359  1  0.741925  0.167240  0.640274  1
  H  H360  1  0.258208  0.167240  0.640274  1
