# generated using pymatgen
data_Si32H2O65
_symmetry_space_group_name_H-M   'P 1'
_cell_length_a   5.08082609
_cell_length_b   34.39831134
_cell_length_c   76.24582011
_cell_angle_alpha   58.10494533
_cell_angle_beta   90.00000000
_cell_angle_gamma   90.00000000
_symmetry_Int_Tables_number   1
_chemical_formula_structural   Si32H2O65
_chemical_formula_sum   'Si128 H8 O260'
_cell_volume   11313.6836295
_cell_formula_units_Z   4
loop_
 _symmetry_equiv_pos_site_id
 _symmetry_equiv_pos_as_xyz
  1  'x, y, z'
loop_
 _atom_site_type_symbol
 _atom_site_label
 _atom_site_symmetry_multiplicity
 _atom_site_fract_x
 _atom_site_fract_y
 _atom_site_fract_z
 _atom_site_occupancy
  O  O1  1  0.005119  0.673715  0.089043  1
  O  O2  1  0.494456  0.173745  0.089043  1
  O  O3  1  0.499882  0.306916  0.150089  1
  O  O4  1  0.499882  0.806916  0.316635  1
  O  O5  1  0.000000  0.306904  0.316639  1
  O  O6  1  0.000000  0.806904  0.150093  1
  O  O7  1  0.500238  0.193124  0.195783  1
  O  O8  1  0.500238  0.693124  0.362329  1
  O  O9  1  0.000000  0.193125  0.362333  1
  O  O10  1  0.000000  0.693125  0.195787  1
  O  O11  1  0.251039  0.345707  0.166397  1
  O  O12  1  0.251039  0.845707  0.332944  1
  O  O13  1  0.748380  0.345597  0.333155  1
  O  O14  1  0.748380  0.845597  0.166609  1
  O  O15  1  0.249073  0.154450  0.179236  1
  O  O16  1  0.249073  0.654450  0.345782  1
  O  O17  1  0.750682  0.154308  0.346026  1
  O  O18  1  0.750682  0.654308  0.179479  1
  O  O19  1  0.749259  0.154332  0.179477  1
  O  O20  1  0.749259  0.654332  0.346023  1
  O  O21  1  0.250865  0.154439  0.345803  1
  O  O22  1  0.250865  0.654439  0.179257  1
  O  O23  1  0.751210  0.345605  0.166625  1
  O  O24  1  0.751210  0.845605  0.333171  1
  O  O25  1  0.248546  0.345736  0.332945  1
  O  O26  1  0.248546  0.845735  0.166399  1
  O  O27  1  0.501755  0.272035  0.188941  1
  O  O28  1  0.501755  0.772035  0.355487  1
  O  O29  1  0.997839  0.272043  0.355487  1
  O  O30  1  0.997839  0.772043  0.188941  1
  O  O31  1  0.498377  0.228008  0.156933  1
  O  O32  1  0.498377  0.728008  0.323480  1
  O  O33  1  0.001458  0.227990  0.323486  1
  O  O34  1  0.001458  0.727990  0.156940  1
  O  O35  1  0.750261  0.210399  0.220504  1
  O  O36  1  0.750261  0.710399  0.387050  1
  O  O37  1  0.251468  0.210768  0.386675  1
  O  O38  1  0.251468  0.710768  0.220129  1
  O  O39  1  0.751797  0.289262  0.125737  1
  O  O40  1  0.751797  0.789262  0.292283  1
  O  O41  1  0.250481  0.289605  0.291943  1
  O  O42  1  0.250481  0.789605  0.125397  1
  O  O43  1  0.249439  0.289626  0.125388  1
  O  O44  1  0.249439  0.789625  0.291934  1
  O  O45  1  0.748128  0.289257  0.292285  1
  O  O46  1  0.748128  0.789257  0.125739  1
  O  O47  1  0.247913  0.210766  0.220122  1
  O  O48  1  0.247913  0.710766  0.386668  1
  O  O49  1  0.749120  0.210420  0.387045  1
  O  O50  1  0.749120  0.710420  0.220498  1
  O  O51  1  0.005119  0.173715  0.255589  1
  O  O52  1  0.005119  0.673715  0.422135  1
  O  O53  1  0.494456  0.173745  0.422136  1
  O  O54  1  0.494456  0.673745  0.255590  1
  O  O55  1  0.994711  0.326331  0.090289  1
  O  O56  1  0.994711  0.826330  0.256835  1
  O  O57  1  0.505113  0.326309  0.256840  1
  O  O58  1  0.505113  0.826309  0.090294  1
  O  O59  1  0.225096  0.175073  0.285338  1
  O  O60  1  0.225096  0.675073  0.118792  1
  O  O61  1  0.772641  0.172534  0.116955  1
  O  O62  1  0.772641  0.672534  0.283501  1
  O  O63  1  0.269179  0.327373  0.395367  1
  O  O64  1  0.269179  0.827373  0.228820  1
  O  O65  1  0.726473  0.325003  0.227122  1
  O  O66  1  0.726473  0.825003  0.393668  1
  O  O67  1  0.772706  0.325031  0.393686  1
  O  O68  1  0.772706  0.825031  0.227140  1
  O  O69  1  0.230000  0.327355  0.228852  1
  O  O70  1  0.230000  0.827354  0.395398  1
  O  O71  1  0.728604  0.172590  0.283548  1
  O  O72  1  0.728604  0.672590  0.117002  1
  O  O73  1  0.276129  0.175140  0.118838  1
  O  O74  1  0.276129  0.675140  0.285384  1
  O  O75  1  0.998341  0.100873  0.293951  1
  O  O76  1  0.998341  0.600873  0.127405  1
  O  O77  1  0.501791  0.100892  0.127397  1
  O  O78  1  0.501791  0.600892  0.293944  1
  O  O79  1  0.000000  0.399177  0.385013  1
  O  O80  1  0.000000  0.899177  0.218467  1
  O  O81  1  0.498864  0.399152  0.218475  1
  O  O82  1  0.498864  0.899152  0.385021  1
  O  O83  1  0.001153  0.413802  0.165361  1
  O  O84  1  0.001153  0.913802  0.331907  1
  O  O85  1  0.498889  0.413817  0.331897  1
  O  O86  1  0.498889  0.913817  0.165351  1
  O  O87  1  0.000000  0.086242  0.180512  1
  O  O88  1  0.000000  0.586242  0.347058  1
  O  O89  1  0.500514  0.086226  0.347067  1
  O  O90  1  0.500514  0.586227  0.180521  1
  O  O91  1  0.006538  0.334876  0.197372  1
  O  O92  1  0.006538  0.834876  0.363918  1
  O  O93  1  0.493355  0.334889  0.363908  1
  O  O94  1  0.493355  0.834889  0.197362  1
  O  O95  1  0.993509  0.165148  0.148496  1
  O  O96  1  0.993509  0.665148  0.315042  1
  O  O97  1  0.506159  0.165143  0.315053  1
  O  O98  1  0.506159  0.665143  0.148506  1
  O  O99  1  0.001159  0.259166  0.230507  1
  O  O100  1  0.001159  0.759166  0.397054  1
  O  O101  1  0.498252  0.259192  0.397047  1
  O  O102  1  0.498252  0.759192  0.230500  1
  O  O103  1  0.998983  0.240870  0.115356  1
  O  O104  1  0.998983  0.740870  0.281902  1
  O  O105  1  0.500994  0.240853  0.281913  1
  O  O106  1  0.500994  0.740853  0.115367  1
  O  O107  1  0.000000  0.005314  0.320492  1
  O  O108  1  0.000000  0.505314  0.153946  1
  O  O109  1  0.499688  0.005330  0.153936  1
  O  O110  1  0.499688  0.505330  0.320483  1
  O  O111  1  0.000000  0.494730  0.358471  1
  O  O112  1  0.000000  0.994730  0.191925  1
  O  O113  1  0.499548  0.494713  0.191935  1
  O  O114  1  0.499548  0.994713  0.358481  1
  O  O115  1  0.746802  0.441922  0.184616  1
  O  O116  1  0.746802  0.941922  0.351162  1
  O  O117  1  0.248611  0.442087  0.351219  1
  O  O118  1  0.248611  0.942087  0.184673  1
  O  O119  1  0.747016  0.057939  0.161297  1
  O  O120  1  0.747016  0.557939  0.327844  1
  O  O121  1  0.249304  0.058122  0.327664  1
  O  O122  1  0.249304  0.558123  0.161118  1
  O  O123  1  0.247119  0.058178  0.160935  1
  O  O124  1  0.247119  0.558178  0.327481  1
  O  O125  1  0.749394  0.057967  0.327678  1
  O  O126  1  0.749394  0.557968  0.161131  1
  O  O127  1  0.246882  0.442047  0.184897  1
  O  O128  1  0.246882  0.942047  0.351443  1
  O  O129  1  0.748701  0.441907  0.351367  1
  O  O130  1  0.748701  0.941907  0.184821  1
  O  O131  1  0.499882  0.306916  0.483182  1
  O  O132  1  0.499882  0.806916  0.649728  1
  O  O133  1  -0.000000  0.306904  0.649732  1
  O  O134  1  -0.000000  0.806904  0.483185  1
  O  O135  1  0.500238  0.193124  0.528875  1
  O  O136  1  0.500238  0.693124  0.695422  1
  O  O137  1  0.000000  0.193125  0.695425  1
  O  O138  1  0.000000  0.693125  0.528879  1
  O  O139  1  0.251039  0.345707  0.499490  1
  O  O140  1  0.251039  0.845707  0.666036  1
  O  O141  1  0.748380  0.345597  0.666248  1
  O  O142  1  0.748380  0.845597  0.499701  1
  O  O143  1  0.249073  0.154450  0.512329  1
  O  O144  1  0.249073  0.654450  0.678875  1
  O  O145  1  0.750682  0.154308  0.679118  1
  O  O146  1  0.750682  0.654308  0.512572  1
  O  O147  1  0.749259  0.154332  0.512570  1
  O  O148  1  0.749259  0.654332  0.679116  1
  O  O149  1  0.250865  0.154439  0.678896  1
  O  O150  1  0.250865  0.654439  0.512350  1
  O  O151  1  0.751210  0.345605  0.499718  1
  O  O152  1  0.751210  0.845605  0.666264  1
  O  O153  1  0.248546  0.345736  0.666038  1
  O  O154  1  0.248546  0.845736  0.499492  1
  O  O155  1  0.501755  0.272035  0.522033  1
  O  O156  1  0.501755  0.772034  0.688580  1
  O  O157  1  0.997839  0.272043  0.688580  1
  O  O158  1  0.997839  0.772043  0.522034  1
  O  O159  1  0.498377  0.228008  0.490026  1
  O  O160  1  0.498377  0.728008  0.656572  1
  O  O161  1  0.001458  0.227990  0.656578  1
  O  O162  1  0.001458  0.727990  0.490032  1
  O  O163  1  0.750261  0.210399  0.553596  1
  O  O164  1  0.750261  0.710399  0.720143  1
  O  O165  1  0.251468  0.210768  0.719767  1
  O  O166  1  0.251468  0.710768  0.553221  1
  O  O167  1  0.751797  0.289262  0.458829  1
  O  O168  1  0.751797  0.789262  0.625375  1
  O  O169  1  0.250481  0.289605  0.625036  1
  O  O170  1  0.250481  0.789605  0.458489  1
  O  O171  1  0.249439  0.289625  0.458480  1
  O  O172  1  0.249439  0.789625  0.625026  1
  O  O173  1  0.748128  0.289257  0.625377  1
  O  O174  1  0.748128  0.789257  0.458831  1
  O  O175  1  0.247913  0.210766  0.553214  1
  O  O176  1  0.247913  0.710766  0.719760  1
  O  O177  1  0.749120  0.210420  0.720137  1
  O  O178  1  0.749120  0.710420  0.553591  1
  O  O179  1  0.005119  0.173715  0.588682  1
  O  O180  1  0.005119  0.673715  0.755228  1
  O  O181  1  0.494456  0.173745  0.755228  1
  O  O182  1  0.494456  0.673745  0.588682  1
  O  O183  1  0.994711  0.326331  0.423381  1
  O  O184  1  0.994711  0.826331  0.589928  1
  O  O185  1  0.505113  0.326309  0.589932  1
  O  O186  1  0.505113  0.826309  0.423386  1
  O  O187  1  0.225096  0.175073  0.618431  1
  O  O188  1  0.225096  0.675073  0.451885  1
  O  O189  1  0.772641  0.172534  0.450047  1
  O  O190  1  0.772641  0.672534  0.616594  1
  O  O191  1  0.269179  0.327373  0.728459  1
  O  O192  1  0.269179  0.827373  0.561913  1
  O  O193  1  0.726473  0.325003  0.560214  1
  O  O194  1  0.726473  0.825003  0.726761  1
  O  O195  1  0.772706  0.325031  0.726779  1
  O  O196  1  0.772706  0.825030  0.560232  1
  O  O197  1  0.230000  0.327355  0.561945  1
  O  O198  1  0.230000  0.827355  0.728491  1
  O  O199  1  0.728604  0.172590  0.616640  1
  O  O200  1  0.728604  0.672590  0.450094  1
  O  O201  1  0.276129  0.175140  0.451930  1
  O  O202  1  0.276129  0.675140  0.618476  1
  O  O203  1  0.998341  0.100873  0.627043  1
  O  O204  1  0.998341  0.600873  0.460497  1
  O  O205  1  0.501791  0.100892  0.460490  1
  O  O206  1  0.501791  0.600892  0.627036  1
  O  O207  1  0.000000  0.399176  0.718106  1
  O  O208  1  0.000000  0.899177  0.551560  1
  O  O209  1  0.498864  0.399152  0.551567  1
  O  O210  1  0.498864  0.899152  0.718113  1
  O  O211  1  0.001153  0.413802  0.498453  1
  O  O212  1  0.001153  0.913802  0.665000  1
  O  O213  1  0.498889  0.413816  0.664990  1
  O  O214  1  0.498889  0.913817  0.498443  1
  O  O215  1  0.000000  0.086242  0.513604  1
  O  O216  1  0.000000  0.586242  0.680150  1
  O  O217  1  0.500514  0.086227  0.680160  1
  O  O218  1  0.500514  0.586227  0.513613  1
  O  O219  1  0.006538  0.334876  0.530464  1
  O  O220  1  0.006538  0.834876  0.697010  1
  O  O221  1  0.493355  0.334889  0.697001  1
  O  O222  1  0.493355  0.834889  0.530455  1
  O  O223  1  0.993509  0.165148  0.481588  1
  O  O224  1  0.993509  0.665148  0.648134  1
  O  O225  1  0.506159  0.165143  0.648145  1
  O  O226  1  0.506159  0.665143  0.481599  1
  O  O227  1  0.001159  0.259166  0.563600  1
  O  O228  1  0.001159  0.759166  0.730146  1
  O  O229  1  0.498252  0.259192  0.730139  1
  O  O230  1  0.498252  0.759192  0.563593  1
  O  O231  1  0.998983  0.240870  0.448448  1
  O  O232  1  0.998983  0.740870  0.614995  1
  O  O233  1  0.500994  0.240853  0.615005  1
  O  O234  1  0.500994  0.740853  0.448459  1
  O  O235  1  0.000000  0.005313  0.653585  1
  O  O236  1  0.000000  0.505313  0.487039  1
  O  O237  1  0.499688  0.005330  0.487029  1
  O  O238  1  0.499688  0.505330  0.653575  1
  O  O239  1  0.000000  0.494730  0.691563  1
  O  O240  1  0.000000  0.994730  0.525017  1
  O  O241  1  0.499548  0.494713  0.525027  1
  O  O242  1  0.499548  0.994713  0.691574  1
  O  O243  1  0.746802  0.441922  0.517708  1
  O  O244  1  0.746802  0.941922  0.684254  1
  O  O245  1  0.248611  0.442087  0.684312  1
  O  O246  1  0.248611  0.942087  0.517765  1
  O  O247  1  0.747016  0.057939  0.494390  1
  O  O248  1  0.747016  0.557939  0.660936  1
  O  O249  1  0.249304  0.058123  0.660757  1
  O  O250  1  0.249304  0.558123  0.494211  1
  O  O251  1  0.247119  0.058178  0.494027  1
  O  O252  1  0.247119  0.558178  0.660573  1
  O  O253  1  0.749394  0.057968  0.660770  1
  O  O254  1  0.749394  0.557968  0.494224  1
  O  O255  1  0.246882  0.442047  0.517989  1
  O  O256  1  0.246882  0.942047  0.684536  1
  O  O257  1  0.748701  0.441907  0.684460  1
  O  O258  1  0.748701  0.941907  0.517914  1
  O  O259  1  0.994711  0.326331  0.756474  1
  O  O260  1  0.505113  0.826309  0.756479  1
  Si  Si261  1  0.501456  0.318178  0.167513  1
  Si  Si262  1  0.501456  0.818178  0.334059  1
  Si  Si263  1  0.998261  0.318181  0.334058  1
  Si  Si264  1  0.998261  0.818181  0.167511  1
  Si  Si265  1  0.498818  0.181863  0.178359  1
  Si  Si266  1  0.498818  0.681863  0.344905  1
  Si  Si267  1  0.001026  0.181850  0.344914  1
  Si  Si268  1  0.001026  0.681850  0.178368  1
  Si  Si269  1  0.500626  0.220652  0.206844  1
  Si  Si270  1  0.500626  0.720652  0.373390  1
  Si  Si271  1  0.998811  0.220660  0.373391  1
  Si  Si272  1  0.998811  0.720660  0.206845  1
  Si  Si273  1  0.499255  0.279386  0.139029  1
  Si  Si274  1  0.499255  0.779387  0.305575  1
  Si  Si275  1  0.000000  0.279369  0.305582  1
  Si  Si276  1  0.000000  0.779370  0.139035  1
  Si  Si277  1  0.990262  0.154989  0.279380  1
  Si  Si278  1  0.990262  0.654989  0.112834  1
  Si  Si279  1  0.510304  0.155010  0.112832  1
  Si  Si280  1  0.510304  0.655010  0.279378  1
  Si  Si281  1  0.008334  0.345062  0.399587  1
  Si  Si282  1  0.008334  0.845062  0.233041  1
  Si  Si283  1  0.491099  0.345036  0.233047  1
  Si  Si284  1  0.491099  0.845036  0.399593  1
  Si  Si285  1  0.001840  0.360796  0.173287  1
  Si  Si286  1  0.001840  0.860796  0.339833  1
  Si  Si287  1  0.497921  0.360811  0.339824  1
  Si  Si288  1  0.497921  0.860811  0.173278  1
  Si  Si289  1  0.998461  0.139252  0.172580  1
  Si  Si290  1  0.998461  0.639252  0.339126  1
  Si  Si291  1  0.501392  0.139235  0.339137  1
  Si  Si292  1  0.501392  0.639235  0.172591  1
  Si  Si293  1  0.000000  0.212106  0.231915  1
  Si  Si294  1  0.000000  0.712106  0.398461  1
  Si  Si295  1  0.498602  0.212126  0.398460  1
  Si  Si296  1  0.498602  0.712126  0.231914  1
  Si  Si297  1  -0.000000  0.287920  0.113960  1
  Si  Si298  1  0.000000  0.787920  0.280506  1
  Si  Si299  1  0.500852  0.287907  0.280512  1
  Si  Si300  1  0.500852  0.787906  0.113966  1
  Si  Si301  1  0.990974  0.311907  0.221219  1
  Si  Si302  1  0.990974  0.811907  0.387765  1
  Si  Si303  1  0.508438  0.311932  0.387756  1
  Si  Si304  1  0.508438  0.811932  0.221210  1
  Si  Si305  1  0.010431  0.188128  0.124650  1
  Si  Si306  1  0.010431  0.688128  0.291196  1
  Si  Si307  1  0.490132  0.188111  0.291206  1
  Si  Si308  1  0.490132  0.688111  0.124659  1
  Si  Si309  1  0.998439  0.451932  0.171055  1
  Si  Si310  1  0.998439  0.951932  0.337601  1
  Si  Si311  1  0.499255  0.451948  0.337592  1
  Si  Si312  1  0.499255  0.951948  0.171046  1
  Si  Si313  1  0.998714  0.048112  0.174816  1
  Si  Si314  1  0.998714  0.548112  0.341362  1
  Si  Si315  1  0.499455  0.048095  0.341373  1
  Si  Si316  1  0.499455  0.548095  0.174826  1
  Si  Si317  1  0.000000  0.055929  0.316288  1
  Si  Si318  1  0.000000  0.555929  0.149741  1
  Si  Si319  1  0.498760  0.055947  0.149732  1
  Si  Si320  1  0.498760  0.555947  0.316278  1
  Si  Si321  1  0.000000  0.444115  0.362676  1
  Si  Si322  1  0.000000  0.944115  0.196130  1
  Si  Si323  1  0.498467  0.444099  0.196139  1
  Si  Si324  1  0.498467  0.944099  0.362685  1
  Si  Si325  1  0.501456  0.318178  0.500606  1
  Si  Si326  1  0.501456  0.818178  0.667152  1
  Si  Si327  1  0.998261  0.318181  0.667150  1
  Si  Si328  1  0.998261  0.818181  0.500604  1
  Si  Si329  1  0.498818  0.181862  0.511451  1
  Si  Si330  1  0.498818  0.681863  0.677998  1
  Si  Si331  1  0.001026  0.181850  0.678006  1
  Si  Si332  1  0.001026  0.681849  0.511460  1
  Si  Si333  1  0.500626  0.220652  0.539936  1
  Si  Si334  1  0.500626  0.720652  0.706482  1
  Si  Si335  1  0.998811  0.220660  0.706483  1
  Si  Si336  1  0.998811  0.720660  0.539937  1
  Si  Si337  1  0.499255  0.279387  0.472121  1
  Si  Si338  1  0.499255  0.779387  0.638668  1
  Si  Si339  1  0.000000  0.279370  0.638674  1
  Si  Si340  1  -0.000000  0.779370  0.472128  1
  Si  Si341  1  0.990262  0.154989  0.612472  1
  Si  Si342  1  0.990262  0.654989  0.445926  1
  Si  Si343  1  0.510304  0.155010  0.445924  1
  Si  Si344  1  0.510304  0.655010  0.612470  1
  Si  Si345  1  0.008334  0.345062  0.732679  1
  Si  Si346  1  0.008334  0.845062  0.566133  1
  Si  Si347  1  0.491099  0.345036  0.566140  1
  Si  Si348  1  0.491099  0.845036  0.732686  1
  Si  Si349  1  0.001840  0.360796  0.506380  1
  Si  Si350  1  0.001840  0.860796  0.672926  1
  Si  Si351  1  0.497921  0.360811  0.672916  1
  Si  Si352  1  0.497921  0.860811  0.506370  1
  Si  Si353  1  0.998461  0.139252  0.505673  1
  Si  Si354  1  0.998461  0.639252  0.672219  1
  Si  Si355  1  0.501392  0.139235  0.672230  1
  Si  Si356  1  0.501392  0.639235  0.505683  1
  Si  Si357  1  0.000000  0.212106  0.565007  1
  Si  Si358  1  0.000000  0.712106  0.731554  1
  Si  Si359  1  0.498602  0.212125  0.731553  1
  Si  Si360  1  0.498602  0.712126  0.565006  1
  Si  Si361  1  0.000000  0.287920  0.447052  1
  Si  Si362  1  -0.000000  0.787920  0.613598  1
  Si  Si363  1  0.500852  0.287907  0.613604  1
  Si  Si364  1  0.500852  0.787907  0.447058  1
  Si  Si365  1  0.990974  0.311907  0.554311  1
  Si  Si366  1  0.990974  0.811907  0.720857  1
  Si  Si367  1  0.508438  0.311932  0.720848  1
  Si  Si368  1  0.508438  0.811932  0.554302  1
  Si  Si369  1  0.010431  0.188128  0.457742  1
  Si  Si370  1  0.010431  0.688128  0.624289  1
  Si  Si371  1  0.490132  0.188111  0.624298  1
  Si  Si372  1  0.490132  0.688111  0.457752  1
  Si  Si373  1  0.998439  0.451932  0.504148  1
  Si  Si374  1  0.998439  0.951932  0.670694  1
  Si  Si375  1  0.499255  0.451948  0.670684  1
  Si  Si376  1  0.499255  0.951948  0.504138  1
  Si  Si377  1  0.998714  0.048112  0.507908  1
  Si  Si378  1  0.998714  0.548112  0.674454  1
  Si  Si379  1  0.499455  0.048095  0.674465  1
  Si  Si380  1  0.499455  0.548095  0.507919  1
  Si  Si381  1  0.000000  0.055929  0.649380  1
  Si  Si382  1  0.000000  0.555929  0.482834  1
  Si  Si383  1  0.498760  0.055947  0.482824  1
  Si  Si384  1  0.498760  0.555947  0.649370  1
  Si  Si385  1  0.000000  0.444115  0.695768  1
  Si  Si386  1  0.000000  0.944115  0.529222  1
  Si  Si387  1  0.498467  0.444099  0.529231  1
  Si  Si388  1  0.498467  0.944099  0.695777  1
  H  H389  1  0.005119  0.673715  0.077239  1
  H  H390  1  0.494456  0.173745  0.077239  1
  H  H391  1  0.994711  0.326331  0.078485  1
  H  H392  1  0.505113  0.826309  0.078490  1
  H  H393  1  0.005119  0.673715  0.767032  1
  H  H394  1  0.494456  0.173745  0.767032  1
  H  H395  1  0.994711  0.326331  0.768278  1
  H  H396  1  0.505113  0.826309  0.768283  1
