# generated using pymatgen
data_Si48H2O97
_symmetry_space_group_name_H-M   'P 1'
_cell_length_a   5.08082609
_cell_length_b   34.39831134
_cell_length_c   101.64272440
_cell_angle_alpha   58.10494533
_cell_angle_beta   90.00000000
_cell_angle_gamma   90.00000000
_symmetry_Int_Tables_number   1
_chemical_formula_structural   Si48H2O97
_chemical_formula_sum   'Si192 H8 O388'
_cell_volume   15082.1858229
_cell_formula_units_Z   4
loop_
 _symmetry_equiv_pos_site_id
 _symmetry_equiv_pos_as_xyz
  1  'x, y, z'
loop_
 _atom_site_type_symbol
 _atom_site_label
 _atom_site_symmetry_multiplicity
 _atom_site_fract_x
 _atom_site_fract_y
 _atom_site_fract_z
 _atom_site_occupancy
  O  O1  1  0.005119  0.673715  0.066794  1
  O  O2  1  0.494456  0.173745  0.066795  1
  O  O3  1  0.499882  0.306916  0.112587  1
  O  O4  1  0.499882  0.806916  0.237520  1
  O  O5  1  0.000000  0.306904  0.237522  1
  O  O6  1  0.000000  0.806904  0.112590  1
  O  O7  1  0.500238  0.193123  0.146864  1
  O  O8  1  0.500238  0.693124  0.271796  1
  O  O9  1  0.000000  0.193125  0.271799  1
  O  O10  1  0.000000  0.693125  0.146867  1
  O  O11  1  0.251039  0.345707  0.124821  1
  O  O12  1  0.251039  0.845707  0.249753  1
  O  O13  1  0.748380  0.345597  0.249912  1
  O  O14  1  0.748380  0.845597  0.124979  1
  O  O15  1  0.249073  0.154450  0.134451  1
  O  O16  1  0.249073  0.654450  0.259384  1
  O  O17  1  0.750682  0.154308  0.259566  1
  O  O18  1  0.750682  0.654308  0.134634  1
  O  O19  1  0.749259  0.154332  0.134632  1
  O  O20  1  0.749259  0.654331  0.259564  1
  O  O21  1  0.250865  0.154439  0.259399  1
  O  O22  1  0.250865  0.654439  0.134467  1
  O  O23  1  0.751210  0.345605  0.124992  1
  O  O24  1  0.751210  0.845605  0.249924  1
  O  O25  1  0.248546  0.345735  0.249754  1
  O  O26  1  0.248546  0.845735  0.124822  1
  O  O27  1  0.501755  0.272035  0.141731  1
  O  O28  1  0.501755  0.772034  0.266664  1
  O  O29  1  0.997839  0.272043  0.266664  1
  O  O30  1  0.997839  0.772043  0.141731  1
  O  O31  1  0.498377  0.228007  0.117721  1
  O  O32  1  0.498377  0.728007  0.242654  1
  O  O33  1  0.001458  0.227989  0.242658  1
  O  O34  1  0.001458  0.727989  0.117726  1
  O  O35  1  0.750261  0.210399  0.165408  1
  O  O36  1  0.750261  0.710399  0.290340  1
  O  O37  1  0.251468  0.210768  0.290059  1
  O  O38  1  0.251468  0.710768  0.165126  1
  O  O39  1  0.751797  0.289262  0.094320  1
  O  O40  1  0.751797  0.789262  0.219252  1
  O  O41  1  0.250481  0.289605  0.218997  1
  O  O42  1  0.250481  0.789604  0.094065  1
  O  O43  1  0.249439  0.289625  0.094058  1
  O  O44  1  0.249439  0.789625  0.218990  1
  O  O45  1  0.748128  0.289257  0.219253  1
  O  O46  1  0.748128  0.789257  0.094321  1
  O  O47  1  0.247913  0.210766  0.165121  1
  O  O48  1  0.247913  0.710766  0.290053  1
  O  O49  1  0.749120  0.210420  0.290336  1
  O  O50  1  0.749120  0.710420  0.165404  1
  O  O51  1  0.005119  0.173715  0.191727  1
  O  O52  1  0.005119  0.673715  0.316659  1
  O  O53  1  0.494456  0.173745  0.316659  1
  O  O54  1  0.494456  0.673745  0.191727  1
  O  O55  1  0.994711  0.326330  0.067729  1
  O  O56  1  0.994711  0.826330  0.192661  1
  O  O57  1  0.505113  0.326309  0.192665  1
  O  O58  1  0.505113  0.826309  0.067733  1
  O  O59  1  0.225096  0.175073  0.214042  1
  O  O60  1  0.225096  0.675073  0.089110  1
  O  O61  1  0.772641  0.172533  0.087732  1
  O  O62  1  0.772641  0.672533  0.212664  1
  O  O63  1  0.269179  0.327373  0.296578  1
  O  O64  1  0.269179  0.827373  0.171646  1
  O  O65  1  0.726473  0.325002  0.170372  1
  O  O66  1  0.726473  0.825002  0.295305  1
  O  O67  1  0.772706  0.325031  0.295318  1
  O  O68  1  0.772706  0.825030  0.170386  1
  O  O69  1  0.230000  0.327354  0.171670  1
  O  O70  1  0.230000  0.827354  0.296602  1
  O  O71  1  0.728604  0.172590  0.212699  1
  O  O72  1  0.728604  0.672590  0.087767  1
  O  O73  1  0.276129  0.175140  0.089144  1
  O  O74  1  0.276129  0.675140  0.214077  1
  O  O75  1  0.998341  0.100872  0.220503  1
  O  O76  1  0.998341  0.600872  0.095571  1
  O  O77  1  0.501791  0.100892  0.095565  1
  O  O78  1  0.501791  0.600892  0.220497  1
  O  O79  1  0.000000  0.399176  0.288812  1
  O  O80  1  0.000000  0.899176  0.163880  1
  O  O81  1  0.498864  0.399152  0.163886  1
  O  O82  1  0.498864  0.899152  0.288818  1
  O  O83  1  0.001153  0.413801  0.124043  1
  O  O84  1  0.001153  0.913801  0.248975  1
  O  O85  1  0.498889  0.413816  0.248968  1
  O  O86  1  0.498889  0.913817  0.124036  1
  O  O87  1  -0.000000  0.086242  0.135408  1
  O  O88  1  0.000000  0.586241  0.260341  1
  O  O89  1  0.500514  0.086226  0.260347  1
  O  O90  1  0.500514  0.586226  0.135415  1
  O  O91  1  0.006538  0.334875  0.148055  1
  O  O92  1  0.006538  0.834875  0.272988  1
  O  O93  1  0.493355  0.334889  0.272981  1
  O  O94  1  0.493355  0.834888  0.148048  1
  O  O95  1  0.993509  0.165148  0.111392  1
  O  O96  1  0.993509  0.665147  0.236324  1
  O  O97  1  0.506159  0.165143  0.236332  1
  O  O98  1  0.506159  0.665143  0.111400  1
  O  O99  1  0.001159  0.259166  0.172912  1
  O  O100  1  0.001159  0.759166  0.297844  1
  O  O101  1  0.498252  0.259192  0.297839  1
  O  O102  1  0.498252  0.759192  0.172907  1
  O  O103  1  0.998983  0.240870  0.086533  1
  O  O104  1  0.998983  0.740870  0.211465  1
  O  O105  1  0.500994  0.240853  0.211473  1
  O  O106  1  0.500994  0.740852  0.086541  1
  O  O107  1  -0.000000  0.005313  0.240413  1
  O  O108  1  0.000000  0.505314  0.115481  1
  O  O109  1  0.499688  0.005330  0.115473  1
  O  O110  1  0.499688  0.505330  0.240405  1
  O  O111  1  -0.000000  0.494730  0.268902  1
  O  O112  1  0.000000  0.994730  0.143970  1
  O  O113  1  0.499548  0.494713  0.143977  1
  O  O114  1  0.499548  0.994713  0.268909  1
  O  O115  1  0.746802  0.441922  0.138487  1
  O  O116  1  0.746802  0.941922  0.263419  1
  O  O117  1  0.248611  0.442087  0.263462  1
  O  O118  1  0.248611  0.942087  0.138530  1
  O  O119  1  0.747016  0.057939  0.120995  1
  O  O120  1  0.747016  0.557939  0.245927  1
  O  O121  1  0.249304  0.058122  0.245793  1
  O  O122  1  0.249304  0.558122  0.120860  1
  O  O123  1  0.247119  0.058178  0.120723  1
  O  O124  1  0.247119  0.558177  0.245655  1
  O  O125  1  0.749394  0.057968  0.245803  1
  O  O126  1  0.749394  0.557967  0.120870  1
  O  O127  1  0.246882  0.442047  0.138698  1
  O  O128  1  0.246882  0.942047  0.263630  1
  O  O129  1  0.748701  0.441907  0.263573  1
  O  O130  1  0.748701  0.941906  0.138641  1
  O  O131  1  0.499882  0.306916  0.362452  1
  O  O132  1  0.499882  0.806916  0.487384  1
  O  O133  1  -0.000000  0.306904  0.487387  1
  O  O134  1  0.000000  0.806904  0.362454  1
  O  O135  1  0.500238  0.193124  0.396728  1
  O  O136  1  0.500238  0.693123  0.521660  1
  O  O137  1  0.000000  0.193125  0.521663  1
  O  O138  1  0.000000  0.693125  0.396731  1
  O  O139  1  0.251039  0.345707  0.374685  1
  O  O140  1  0.251039  0.845707  0.499617  1
  O  O141  1  0.748380  0.345597  0.499776  1
  O  O142  1  0.748380  0.845597  0.374844  1
  O  O143  1  0.249073  0.154450  0.384316  1
  O  O144  1  0.249073  0.654450  0.509248  1
  O  O145  1  0.750682  0.154308  0.509431  1
  O  O146  1  0.750682  0.654308  0.384498  1
  O  O147  1  0.749259  0.154332  0.384497  1
  O  O148  1  0.749259  0.654331  0.509429  1
  O  O149  1  0.250865  0.154439  0.509264  1
  O  O150  1  0.250865  0.654439  0.384332  1
  O  O151  1  0.751210  0.345605  0.374856  1
  O  O152  1  0.751210  0.845605  0.499788  1
  O  O153  1  0.248546  0.345735  0.499619  1
  O  O154  1  0.248546  0.845735  0.374686  1
  O  O155  1  0.501755  0.272035  0.391596  1
  O  O156  1  0.501755  0.772034  0.516528  1
  O  O157  1  0.997839  0.272043  0.516528  1
  O  O158  1  0.997839  0.772043  0.391596  1
  O  O159  1  0.498377  0.228007  0.367586  1
  O  O160  1  0.498377  0.728007  0.492518  1
  O  O161  1  0.001458  0.227989  0.492523  1
  O  O162  1  0.001458  0.727989  0.367591  1
  O  O163  1  0.750261  0.210399  0.415272  1
  O  O164  1  0.750261  0.710399  0.540205  1
  O  O165  1  0.251468  0.210768  0.539923  1
  O  O166  1  0.251468  0.710768  0.414991  1
  O  O167  1  0.751797  0.289262  0.344184  1
  O  O168  1  0.751797  0.789262  0.469116  1
  O  O169  1  0.250481  0.289604  0.468861  1
  O  O170  1  0.250481  0.789604  0.343929  1
  O  O171  1  0.249439  0.289625  0.343922  1
  O  O172  1  0.249439  0.789625  0.468854  1
  O  O173  1  0.748128  0.289257  0.469118  1
  O  O174  1  0.748128  0.789257  0.344186  1
  O  O175  1  0.247913  0.210766  0.414985  1
  O  O176  1  0.247913  0.710766  0.539918  1
  O  O177  1  0.749120  0.210420  0.540200  1
  O  O178  1  0.749120  0.710420  0.415268  1
  O  O179  1  0.005119  0.173715  0.441591  1
  O  O180  1  0.005119  0.673715  0.566523  1
  O  O181  1  0.494456  0.173745  0.566524  1
  O  O182  1  0.494456  0.673745  0.441591  1
  O  O183  1  0.994711  0.326330  0.317593  1
  O  O184  1  0.994711  0.826330  0.442526  1
  O  O185  1  0.505113  0.326309  0.442529  1
  O  O186  1  0.505113  0.826309  0.317597  1
  O  O187  1  0.225096  0.175073  0.463907  1
  O  O188  1  0.225096  0.675073  0.338975  1
  O  O189  1  0.772641  0.172533  0.337597  1
  O  O190  1  0.772641  0.672533  0.462529  1
  O  O191  1  0.269179  0.327373  0.546443  1
  O  O192  1  0.269179  0.827373  0.421511  1
  O  O193  1  0.726473  0.325002  0.420237  1
  O  O194  1  0.726473  0.825002  0.545169  1
  O  O195  1  0.772706  0.325030  0.545182  1
  O  O196  1  0.772706  0.825030  0.420250  1
  O  O197  1  0.230000  0.327354  0.421535  1
  O  O198  1  0.230000  0.827354  0.546467  1
  O  O199  1  0.728604  0.172590  0.462564  1
  O  O200  1  0.728604  0.672590  0.337631  1
  O  O201  1  0.276129  0.175140  0.339009  1
  O  O202  1  0.276129  0.675140  0.463941  1
  O  O203  1  0.998341  0.100873  0.470368  1
  O  O204  1  0.998341  0.600873  0.345435  1
  O  O205  1  0.501791  0.100892  0.345430  1
  O  O206  1  0.501791  0.600892  0.470362  1
  O  O207  1  -0.000000  0.399176  0.538677  1
  O  O208  1  0.000000  0.899176  0.413745  1
  O  O209  1  0.498864  0.399152  0.413750  1
  O  O210  1  0.498864  0.899152  0.538682  1
  O  O211  1  0.001153  0.413801  0.373908  1
  O  O212  1  0.001153  0.913801  0.498840  1
  O  O213  1  0.498889  0.413816  0.498832  1
  O  O214  1  0.498889  0.913816  0.373900  1
  O  O215  1  -0.000000  0.086241  0.385273  1
  O  O216  1  -0.000000  0.586241  0.510205  1
  O  O217  1  0.500514  0.086227  0.510212  1
  O  O218  1  0.500514  0.586226  0.385280  1
  O  O219  1  0.006538  0.334875  0.397920  1
  O  O220  1  0.006538  0.834875  0.522852  1
  O  O221  1  0.493355  0.334889  0.522845  1
  O  O222  1  0.493355  0.834888  0.397913  1
  O  O223  1  0.993509  0.165147  0.361256  1
  O  O224  1  0.993509  0.665147  0.486188  1
  O  O225  1  0.506159  0.165143  0.486197  1
  O  O226  1  0.506159  0.665143  0.361264  1
  O  O227  1  0.001159  0.259166  0.422776  1
  O  O228  1  0.001159  0.759166  0.547708  1
  O  O229  1  0.498252  0.259192  0.547703  1
  O  O230  1  0.498252  0.759192  0.422771  1
  O  O231  1  0.998983  0.240870  0.336397  1
  O  O232  1  0.998983  0.740870  0.461329  1
  O  O233  1  0.500994  0.240852  0.461337  1
  O  O234  1  0.500994  0.740852  0.336405  1
  O  O235  1  -0.000000  0.005314  0.490277  1
  O  O236  1  -0.000000  0.505313  0.365345  1
  O  O237  1  0.499688  0.005330  0.365338  1
  O  O238  1  0.499688  0.505330  0.490270  1
  O  O239  1  0.000000  0.494730  0.518766  1
  O  O240  1  -0.000000  0.994730  0.393834  1
  O  O241  1  0.499548  0.494713  0.393842  1
  O  O242  1  0.499548  0.994713  0.518774  1
  O  O243  1  0.746802  0.441922  0.388351  1
  O  O244  1  0.746802  0.941922  0.513283  1
  O  O245  1  0.248611  0.442087  0.513326  1
  O  O246  1  0.248611  0.942087  0.388394  1
  O  O247  1  0.747016  0.057939  0.370859  1
  O  O248  1  0.747016  0.557939  0.495792  1
  O  O249  1  0.249304  0.058122  0.495657  1
  O  O250  1  0.249304  0.558122  0.370725  1
  O  O251  1  0.247119  0.058177  0.370587  1
  O  O252  1  0.247119  0.558177  0.495519  1
  O  O253  1  0.749394  0.057967  0.495667  1
  O  O254  1  0.749394  0.557967  0.370735  1
  O  O255  1  0.246882  0.442047  0.388562  1
  O  O256  1  0.246882  0.942047  0.513495  1
  O  O257  1  0.748701  0.441906  0.513438  1
  O  O258  1  0.748701  0.941906  0.388505  1
  O  O259  1  0.499882  0.306916  0.612316  1
  O  O260  1  0.499882  0.806916  0.737248  1
  O  O261  1  0.000000  0.306904  0.737251  1
  O  O262  1  0.000000  0.806904  0.612319  1
  O  O263  1  0.500238  0.193123  0.646593  1
  O  O264  1  0.500238  0.693123  0.771525  1
  O  O265  1  -0.000000  0.193125  0.771528  1
  O  O266  1  0.000000  0.693125  0.646596  1
  O  O267  1  0.251039  0.345707  0.624550  1
  O  O268  1  0.251039  0.845707  0.749482  1
  O  O269  1  0.748380  0.345597  0.749640  1
  O  O270  1  0.748380  0.845597  0.624708  1
  O  O271  1  0.249073  0.154450  0.634180  1
  O  O272  1  0.249073  0.654450  0.759113  1
  O  O273  1  0.750682  0.154308  0.759295  1
  O  O274  1  0.750682  0.654308  0.634363  1
  O  O275  1  0.749259  0.154331  0.634361  1
  O  O276  1  0.749259  0.654332  0.759293  1
  O  O277  1  0.250865  0.154439  0.759128  1
  O  O278  1  0.250865  0.654439  0.634196  1
  O  O279  1  0.751210  0.345605  0.624720  1
  O  O280  1  0.751210  0.845605  0.749653  1
  O  O281  1  0.248546  0.345735  0.749483  1
  O  O282  1  0.248546  0.845735  0.624551  1
  O  O283  1  0.501755  0.272035  0.641460  1
  O  O284  1  0.501755  0.772034  0.766392  1
  O  O285  1  0.997839  0.272043  0.766393  1
  O  O286  1  0.997839  0.772043  0.641460  1
  O  O287  1  0.498377  0.228007  0.617450  1
  O  O288  1  0.498377  0.728007  0.742383  1
  O  O289  1  0.001458  0.227990  0.742387  1
  O  O290  1  0.001458  0.727989  0.617455  1
  O  O291  1  0.750261  0.210399  0.665137  1
  O  O292  1  0.750261  0.710399  0.790069  1
  O  O293  1  0.251468  0.210768  0.789787  1
  O  O294  1  0.251468  0.710768  0.664855  1
  O  O295  1  0.751797  0.289262  0.594049  1
  O  O296  1  0.751797  0.789262  0.718981  1
  O  O297  1  0.250481  0.289604  0.718726  1
  O  O298  1  0.250481  0.789604  0.593794  1
  O  O299  1  0.249439  0.289625  0.593787  1
  O  O300  1  0.249439  0.789625  0.718719  1
  O  O301  1  0.748128  0.289257  0.718982  1
  O  O302  1  0.748128  0.789257  0.594050  1
  O  O303  1  0.247913  0.210766  0.664850  1
  O  O304  1  0.247913  0.710766  0.789782  1
  O  O305  1  0.749120  0.210420  0.790065  1
  O  O306  1  0.749120  0.710420  0.665133  1
  O  O307  1  0.005119  0.173715  0.691456  1
  O  O308  1  0.005119  0.673715  0.816388  1
  O  O309  1  0.494456  0.173745  0.816388  1
  O  O310  1  0.494456  0.673745  0.691456  1
  O  O311  1  0.994711  0.326330  0.567458  1
  O  O312  1  0.994711  0.826330  0.692390  1
  O  O313  1  0.505113  0.326309  0.692394  1
  O  O314  1  0.505113  0.826309  0.567462  1
  O  O315  1  0.225096  0.175073  0.713771  1
  O  O316  1  0.225096  0.675073  0.588839  1
  O  O317  1  0.772641  0.172533  0.587461  1
  O  O318  1  0.772641  0.672533  0.712393  1
  O  O319  1  0.269179  0.327373  0.796307  1
  O  O320  1  0.269179  0.827373  0.671375  1
  O  O321  1  0.726473  0.325002  0.670101  1
  O  O322  1  0.726473  0.825002  0.795033  1
  O  O323  1  0.772706  0.325031  0.795047  1
  O  O324  1  0.772706  0.825030  0.670115  1
  O  O325  1  0.230000  0.327354  0.671399  1
  O  O326  1  0.230000  0.827354  0.796331  1
  O  O327  1  0.728604  0.172590  0.712428  1
  O  O328  1  0.728604  0.672590  0.587496  1
  O  O329  1  0.276129  0.175140  0.588873  1
  O  O330  1  0.276129  0.675140  0.713806  1
  O  O331  1  0.998341  0.100872  0.720232  1
  O  O332  1  0.998341  0.600872  0.595300  1
  O  O333  1  0.501791  0.100892  0.595294  1
  O  O334  1  0.501791  0.600892  0.720226  1
  O  O335  1  0.000000  0.399176  0.788541  1
  O  O336  1  0.000000  0.899176  0.663609  1
  O  O337  1  0.498864  0.399152  0.663615  1
  O  O338  1  0.498864  0.899152  0.788547  1
  O  O339  1  0.001153  0.413801  0.623772  1
  O  O340  1  0.001153  0.913802  0.748704  1
  O  O341  1  0.498889  0.413816  0.748697  1
  O  O342  1  0.498889  0.913816  0.623765  1
  O  O343  1  -0.000000  0.086241  0.635137  1
  O  O344  1  0.000000  0.586241  0.760069  1
  O  O345  1  0.500514  0.086226  0.760076  1
  O  O346  1  0.500514  0.586226  0.635144  1
  O  O347  1  0.006538  0.334875  0.647784  1
  O  O348  1  0.006538  0.834875  0.772717  1
  O  O349  1  0.493355  0.334888  0.772710  1
  O  O350  1  0.493355  0.834888  0.647777  1
  O  O351  1  0.993509  0.165147  0.611121  1
  O  O352  1  0.993509  0.665148  0.736053  1
  O  O353  1  0.506159  0.165143  0.736061  1
  O  O354  1  0.506159  0.665143  0.611129  1
  O  O355  1  0.001159  0.259166  0.672641  1
  O  O356  1  0.001159  0.759166  0.797573  1
  O  O357  1  0.498252  0.259192  0.797568  1
  O  O358  1  0.498252  0.759192  0.672635  1
  O  O359  1  0.998983  0.240870  0.586262  1
  O  O360  1  0.998983  0.740870  0.711194  1
  O  O361  1  0.500994  0.240852  0.711202  1
  O  O362  1  0.500994  0.740853  0.586270  1
  O  O363  1  0.000000  0.005314  0.740142  1
  O  O364  1  0.000000  0.505313  0.615209  1
  O  O365  1  0.499688  0.005330  0.615202  1
  O  O366  1  0.499688  0.505330  0.740134  1
  O  O367  1  -0.000000  0.494730  0.768631  1
  O  O368  1  0.000000  0.994730  0.643698  1
  O  O369  1  0.499548  0.494713  0.643706  1
  O  O370  1  0.499548  0.994713  0.768638  1
  O  O371  1  0.746802  0.441922  0.638216  1
  O  O372  1  0.746802  0.941922  0.763148  1
  O  O373  1  0.248611  0.442087  0.763191  1
  O  O374  1  0.248611  0.942087  0.638259  1
  O  O375  1  0.747016  0.057939  0.620724  1
  O  O376  1  0.747016  0.557939  0.745656  1
  O  O377  1  0.249304  0.058123  0.745522  1
  O  O378  1  0.249304  0.558122  0.620589  1
  O  O379  1  0.247119  0.058178  0.620452  1
  O  O380  1  0.247119  0.558177  0.745384  1
  O  O381  1  0.749394  0.057967  0.745532  1
  O  O382  1  0.749394  0.557967  0.620599  1
  O  O383  1  0.246882  0.442047  0.638427  1
  O  O384  1  0.246882  0.942047  0.763359  1
  O  O385  1  0.748701  0.441907  0.763302  1
  O  O386  1  0.748701  0.941906  0.638370  1
  O  O387  1  0.994711  0.326331  0.817322  1
  O  O388  1  0.505113  0.826309  0.817326  1
  Si  Si389  1  0.501456  0.318178  0.125658  1
  Si  Si390  1  0.501456  0.818177  0.250590  1
  Si  Si391  1  0.998261  0.318181  0.250588  1
  Si  Si392  1  0.998261  0.818181  0.125656  1
  Si  Si393  1  0.498818  0.181862  0.133793  1
  Si  Si394  1  0.498818  0.681862  0.258726  1
  Si  Si395  1  0.001026  0.181849  0.258732  1
  Si  Si396  1  0.001026  0.681849  0.133800  1
  Si  Si397  1  0.500626  0.220652  0.155161  1
  Si  Si398  1  0.500626  0.720652  0.280093  1
  Si  Si399  1  0.998811  0.220660  0.280094  1
  Si  Si400  1  0.998811  0.720660  0.155161  1
  Si  Si401  1  0.499255  0.279386  0.104291  1
  Si  Si402  1  0.499255  0.779386  0.229223  1
  Si  Si403  1  0.000000  0.279369  0.229228  1
  Si  Si404  1  0.000000  0.779370  0.104295  1
  Si  Si405  1  0.990262  0.154989  0.209573  1
  Si  Si406  1  0.990262  0.654989  0.084641  1
  Si  Si407  1  0.510304  0.155010  0.084639  1
  Si  Si408  1  0.510304  0.655010  0.209571  1
  Si  Si409  1  0.008334  0.345061  0.299744  1
  Si  Si410  1  0.008334  0.845061  0.174812  1
  Si  Si411  1  0.491099  0.345036  0.174817  1
  Si  Si412  1  0.491099  0.845036  0.299749  1
  Si  Si413  1  0.001840  0.360796  0.129989  1
  Si  Si414  1  0.001840  0.860796  0.254921  1
  Si  Si415  1  0.497921  0.360811  0.254914  1
  Si  Si416  1  0.497921  0.860811  0.129982  1
  Si  Si417  1  0.998461  0.139251  0.129459  1
  Si  Si418  1  0.998461  0.639251  0.254391  1
  Si  Si419  1  0.501392  0.139235  0.254399  1
  Si  Si420  1  0.501392  0.639235  0.129467  1
  Si  Si421  1  0.000000  0.212106  0.173968  1
  Si  Si422  1  0.000000  0.712106  0.298900  1
  Si  Si423  1  0.498602  0.212125  0.298899  1
  Si  Si424  1  0.498602  0.712125  0.173967  1
  Si  Si425  1  -0.000000  0.287920  0.085485  1
  Si  Si426  1  0.000000  0.787920  0.210417  1
  Si  Si427  1  0.500852  0.287907  0.210422  1
  Si  Si428  1  0.500852  0.787906  0.085490  1
  Si  Si429  1  0.990974  0.311907  0.165944  1
  Si  Si430  1  0.990974  0.811907  0.290876  1
  Si  Si431  1  0.508438  0.311932  0.290870  1
  Si  Si432  1  0.508438  0.811932  0.165937  1
  Si  Si433  1  0.010431  0.188128  0.093504  1
  Si  Si434  1  0.010431  0.688128  0.218437  1
  Si  Si435  1  0.490132  0.188111  0.218444  1
  Si  Si436  1  0.490132  0.688111  0.093511  1
  Si  Si437  1  0.998439  0.451931  0.128315  1
  Si  Si438  1  0.998439  0.951932  0.253247  1
  Si  Si439  1  0.499255  0.451947  0.253240  1
  Si  Si440  1  0.499255  0.951947  0.128307  1
  Si  Si441  1  0.998714  0.048111  0.131136  1
  Si  Si442  1  0.998714  0.548111  0.256068  1
  Si  Si443  1  0.499455  0.048095  0.256076  1
  Si  Si444  1  0.499455  0.548095  0.131143  1
  Si  Si445  1  -0.000000  0.055929  0.237259  1
  Si  Si446  1  0.000000  0.555929  0.112326  1
  Si  Si447  1  0.498760  0.055946  0.112319  1
  Si  Si448  1  0.498760  0.555946  0.237251  1
  Si  Si449  1  0.000000  0.444115  0.272056  1
  Si  Si450  1  0.000000  0.944115  0.147124  1
  Si  Si451  1  0.498467  0.444098  0.147131  1
  Si  Si452  1  0.498467  0.944098  0.272063  1
  Si  Si453  1  0.501456  0.318177  0.375522  1
  Si  Si454  1  0.501456  0.818178  0.500454  1
  Si  Si455  1  0.998261  0.318181  0.500453  1
  Si  Si456  1  0.998261  0.818181  0.375521  1
  Si  Si457  1  0.498818  0.181863  0.383658  1
  Si  Si458  1  0.498818  0.681862  0.508590  1
  Si  Si459  1  0.001026  0.181849  0.508597  1
  Si  Si460  1  0.001026  0.681849  0.383664  1
  Si  Si461  1  0.500626  0.220652  0.405025  1
  Si  Si462  1  0.500626  0.720652  0.529958  1
  Si  Si463  1  0.998811  0.220660  0.529958  1
  Si  Si464  1  0.998811  0.720660  0.405026  1
  Si  Si465  1  0.499255  0.279386  0.354155  1
  Si  Si466  1  0.499255  0.779386  0.479087  1
  Si  Si467  1  0.000000  0.279369  0.479092  1
  Si  Si468  1  0.000000  0.779369  0.354160  1
  Si  Si469  1  0.990262  0.154989  0.459437  1
  Si  Si470  1  0.990262  0.654989  0.334505  1
  Si  Si471  1  0.510304  0.155010  0.334503  1
  Si  Si472  1  0.510304  0.655010  0.459436  1
  Si  Si473  1  0.008334  0.345061  0.549609  1
  Si  Si474  1  0.008334  0.845061  0.424677  1
  Si  Si475  1  0.491099  0.345036  0.424681  1
  Si  Si476  1  0.491099  0.845036  0.549614  1
  Si  Si477  1  0.001840  0.360796  0.379853  1
  Si  Si478  1  0.001840  0.860796  0.504786  1
  Si  Si479  1  0.497921  0.360810  0.504778  1
  Si  Si480  1  0.497921  0.860810  0.379846  1
  Si  Si481  1  0.998461  0.139252  0.379323  1
  Si  Si482  1  0.998461  0.639251  0.504255  1
  Si  Si483  1  0.501392  0.139235  0.504263  1
  Si  Si484  1  0.501392  0.639235  0.379331  1
  Si  Si485  1  -0.000000  0.212106  0.423832  1
  Si  Si486  1  -0.000000  0.712106  0.548764  1
  Si  Si487  1  0.498602  0.212125  0.548764  1
  Si  Si488  1  0.498602  0.712125  0.423831  1
  Si  Si489  1  0.000000  0.287920  0.335350  1
  Si  Si490  1  -0.000000  0.787920  0.460282  1
  Si  Si491  1  0.500852  0.287907  0.460287  1
  Si  Si492  1  0.500852  0.787906  0.335354  1
  Si  Si493  1  0.990974  0.311907  0.415809  1
  Si  Si494  1  0.990974  0.811907  0.540741  1
  Si  Si495  1  0.508438  0.311932  0.540734  1
  Si  Si496  1  0.508438  0.811932  0.415802  1
  Si  Si497  1  0.010431  0.188128  0.343369  1
  Si  Si498  1  0.010431  0.688128  0.468301  1
  Si  Si499  1  0.490132  0.188111  0.468308  1
  Si  Si500  1  0.490132  0.688111  0.343376  1
  Si  Si501  1  0.998439  0.451931  0.378179  1
  Si  Si502  1  0.998439  0.951931  0.503111  1
  Si  Si503  1  0.499255  0.451947  0.503104  1
  Si  Si504  1  0.499255  0.951947  0.378172  1
  Si  Si505  1  0.998714  0.048111  0.381000  1
  Si  Si506  1  0.998714  0.548111  0.505932  1
  Si  Si507  1  0.499455  0.048095  0.505940  1
  Si  Si508  1  0.499455  0.548095  0.381008  1
  Si  Si509  1  -0.000000  0.055929  0.487123  1
  Si  Si510  1  0.000000  0.555929  0.362191  1
  Si  Si511  1  0.498760  0.055946  0.362184  1
  Si  Si512  1  0.498760  0.555946  0.487116  1
  Si  Si513  1  -0.000000  0.444115  0.521920  1
  Si  Si514  1  0.000000  0.944115  0.396988  1
  Si  Si515  1  0.498467  0.444098  0.396995  1
  Si  Si516  1  0.498467  0.944098  0.521927  1
  Si  Si517  1  0.501456  0.318177  0.625386  1
  Si  Si518  1  0.501456  0.818177  0.750319  1
  Si  Si519  1  0.998261  0.318181  0.750317  1
  Si  Si520  1  0.998261  0.818181  0.625385  1
  Si  Si521  1  0.498818  0.181862  0.633522  1
  Si  Si522  1  0.498818  0.681862  0.758455  1
  Si  Si523  1  0.001026  0.181849  0.758461  1
  Si  Si524  1  0.001026  0.681849  0.633529  1
  Si  Si525  1  0.500626  0.220652  0.654890  1
  Si  Si526  1  0.500626  0.720652  0.779822  1
  Si  Si527  1  0.998811  0.220660  0.779823  1
  Si  Si528  1  0.998811  0.720660  0.654890  1
  Si  Si529  1  0.499255  0.279386  0.604020  1
  Si  Si530  1  0.499255  0.779386  0.728952  1
  Si  Si531  1  -0.000000  0.279369  0.728957  1
  Si  Si532  1  -0.000000  0.779369  0.604024  1
  Si  Si533  1  0.990262  0.154989  0.709302  1
  Si  Si534  1  0.990262  0.654989  0.584370  1
  Si  Si535  1  0.510304  0.155010  0.584368  1
  Si  Si536  1  0.510304  0.655010  0.709300  1
  Si  Si537  1  0.008334  0.345062  0.799473  1
  Si  Si538  1  0.008334  0.845061  0.674541  1
  Si  Si539  1  0.491099  0.345036  0.674546  1
  Si  Si540  1  0.491099  0.845036  0.799478  1
  Si  Si541  1  0.001840  0.360796  0.629718  1
  Si  Si542  1  0.001840  0.860796  0.754650  1
  Si  Si543  1  0.497921  0.360810  0.754643  1
  Si  Si544  1  0.497921  0.860810  0.629711  1
  Si  Si545  1  0.998461  0.139251  0.629187  1
  Si  Si546  1  0.998461  0.639251  0.754120  1
  Si  Si547  1  0.501392  0.139235  0.754128  1
  Si  Si548  1  0.501392  0.639235  0.629196  1
  Si  Si549  1  0.000000  0.212106  0.673697  1
  Si  Si550  1  0.000000  0.712106  0.798629  1
  Si  Si551  1  0.498602  0.212125  0.798628  1
  Si  Si552  1  0.498602  0.712125  0.673696  1
  Si  Si553  1  -0.000000  0.287920  0.585214  1
  Si  Si554  1  0.000000  0.787920  0.710146  1
  Si  Si555  1  0.500852  0.287906  0.710151  1
  Si  Si556  1  0.500852  0.787906  0.585219  1
  Si  Si557  1  0.990974  0.311907  0.665673  1
  Si  Si558  1  0.990974  0.811907  0.790605  1
  Si  Si559  1  0.508438  0.311932  0.790598  1
  Si  Si560  1  0.508438  0.811932  0.665666  1
  Si  Si561  1  0.010431  0.188128  0.593233  1
  Si  Si562  1  0.010431  0.688128  0.718166  1
  Si  Si563  1  0.490132  0.188111  0.718173  1
  Si  Si564  1  0.490132  0.688111  0.593240  1
  Si  Si565  1  0.998439  0.451931  0.628044  1
  Si  Si566  1  0.998439  0.951932  0.752976  1
  Si  Si567  1  0.499255  0.451947  0.752969  1
  Si  Si568  1  0.499255  0.951947  0.628036  1
  Si  Si569  1  0.998714  0.048111  0.630865  1
  Si  Si570  1  0.998714  0.548111  0.755797  1
  Si  Si571  1  0.499455  0.048095  0.755805  1
  Si  Si572  1  0.499455  0.548095  0.630872  1
  Si  Si573  1  -0.000000  0.055929  0.736988  1
  Si  Si574  1  0.000000  0.555929  0.612055  1
  Si  Si575  1  0.498760  0.055947  0.612048  1
  Si  Si576  1  0.498760  0.555947  0.736980  1
  Si  Si577  1  0.000000  0.444115  0.771785  1
  Si  Si578  1  0.000000  0.944115  0.646853  1
  Si  Si579  1  0.498467  0.444099  0.646860  1
  Si  Si580  1  0.498467  0.944098  0.771792  1
  H  H581  1  0.005119  0.673715  0.057940  1
  H  H582  1  0.494456  0.173745  0.057940  1
  H  H583  1  0.994711  0.326330  0.058874  1
  H  H584  1  0.505113  0.826309  0.058878  1
  H  H585  1  0.005119  0.673715  0.825242  1
  H  H586  1  0.494456  0.173745  0.825243  1
  H  H587  1  0.994711  0.326331  0.826177  1
  H  H588  1  0.505113  0.826309  0.826181  1
