# generated using pymatgen
data_Si24H2O49
_symmetry_space_group_name_H-M   'P 1'
_cell_length_a   11.49275460
_cell_length_b   7.34843271
_cell_length_c   54.88987254
_cell_angle_alpha   90.00000000
_cell_angle_beta   90.00000000
_cell_angle_gamma   93.15400000
_symmetry_Int_Tables_number   1
_chemical_formula_structural   Si24H2O49
_chemical_formula_sum   'Si48 H4 O98'
_cell_volume   4628.6328686
_cell_formula_units_Z   2
loop_
 _symmetry_equiv_pos_site_id
 _symmetry_equiv_pos_as_xyz
  1  'x, y, z'
loop_
 _atom_site_type_symbol
 _atom_site_label
 _atom_site_symmetry_multiplicity
 _atom_site_fract_x
 _atom_site_fract_y
 _atom_site_fract_z
 _atom_site_occupancy
  O  O1  1  0.222277  0.025365  0.241591  1
  O  O2  1  0.222243  0.025354  0.375283  1
  O  O3  1  0.777586  0.974485  0.174332  1
  O  O4  1  0.328681  0.760273  0.224648  1
  O  O5  1  0.328654  0.760273  0.392223  1
  O  O6  1  0.671183  0.239587  0.191277  1
  O  O7  1  0.655930  0.904477  0.405640  1
  O  O8  1  0.343906  0.095373  0.204694  1
  O  O9  1  0.655957  0.904487  0.211231  1
  O  O10  1  0.843309  0.118384  0.402789  1
  O  O11  1  0.156527  0.881454  0.201842  1
  O  O12  1  0.843338  0.118405  0.214082  1
  O  O13  1  0.973164  0.841734  0.171846  1
  O  O14  1  0.026676  0.158115  0.372793  1
  O  O15  1  0.026707  0.158136  0.244077  1
  O  O16  1  0.809102  0.726041  0.142418  1
  O  O17  1  0.190737  0.273805  0.343366  1
  O  O18  1  0.190774  0.273802  0.273506  1
  O  O19  1  0.909241  0.062496  0.139797  1
  O  O20  1  0.090598  0.937351  0.340743  1
  O  O21  1  0.090614  0.937368  0.276128  1
  O  O22  1  0.730158  0.519302  0.107488  1
  O  O23  1  0.269675  0.480543  0.308436  1
  O  O24  1  0.661034  0.457782  0.153711  1
  O  O25  1  0.338801  0.542057  0.354659  1
  O  O26  1  0.338821  0.542059  0.262213  1
  O  O27  1  0.861587  0.398024  0.139850  1
  O  O28  1  0.138250  0.601820  0.340797  1
  O  O29  1  0.138274  0.601850  0.276075  1
  O  O30  1  0.634697  0.572911  0.196528  1
  O  O31  1  0.365144  0.426926  0.397473  1
  O  O32  1  0.365151  0.426943  0.219399  1
  O  O33  1  0.475182  0.349588  0.181240  1
  O  O34  1  0.524653  0.650257  0.382187  1
  O  O35  1  0.524682  0.650273  0.234686  1
  O  O36  1  0.058889  0.310951  0.154492  1
  O  O37  1  0.940952  0.688896  0.355440  1
  O  O38  1  0.940975  0.688913  0.261429  1
  O  O39  1  0.995241  0.281311  0.107488  1
  O  O40  1  0.004594  0.718533  0.308435  1
  O  O41  1  0.963611  0.721469  0.215148  1
  O  O42  1  0.963584  0.721459  0.401722  1
  O  O43  1  0.036251  0.278386  0.200775  1
  O  O44  1  0.908699  0.420356  0.384504  1
  O  O45  1  0.091135  0.579491  0.183557  1
  O  O46  1  0.908737  0.420366  0.232366  1
  O  O47  1  0.755991  0.656513  0.383624  1
  O  O48  1  0.243843  0.343335  0.182677  1
  O  O49  1  0.756020  0.656519  0.233247  1
  O  O50  1  0.777564  0.974479  0.442536  1
  O  O51  1  0.222277  0.025365  0.643485  1
  O  O52  1  0.777586  0.974485  0.576226  1
  O  O53  1  0.671149  0.239549  0.425595  1
  O  O54  1  0.328681  0.760273  0.626541  1
  O  O55  1  0.671183  0.239587  0.593170  1
  O  O56  1  0.343906  0.095373  0.606588  1
  O  O57  1  0.343880  0.095364  0.412177  1
  O  O58  1  0.655957  0.904487  0.613124  1
  O  O59  1  0.156527  0.881454  0.603735  1
  O  O60  1  0.156501  0.881459  0.415026  1
  O  O61  1  0.843338  0.118405  0.615975  1
  O  O62  1  0.973164  0.841734  0.573740  1
  O  O63  1  0.026707  0.158136  0.645970  1
  O  O64  1  0.973125  0.841703  0.445023  1
  O  O65  1  0.809102  0.726041  0.544311  1
  O  O66  1  0.190774  0.273802  0.675399  1
  O  O67  1  0.809056  0.726042  0.474452  1
  O  O68  1  0.909241  0.062496  0.541690  1
  O  O69  1  0.090614  0.937368  0.678022  1
  O  O70  1  0.909219  0.062474  0.477075  1
  O  O71  1  0.730158  0.519302  0.509382  1
  O  O72  1  0.269675  0.480543  0.710329  1
  O  O73  1  0.661034  0.457782  0.555604  1
  O  O74  1  0.338821  0.542059  0.664106  1
  O  O75  1  0.661021  0.457800  0.463157  1
  O  O76  1  0.861587  0.398024  0.541743  1
  O  O77  1  0.138274  0.601850  0.677968  1
  O  O78  1  0.861563  0.397993  0.477020  1
  O  O79  1  0.634697  0.572911  0.598421  1
  O  O80  1  0.365151  0.426943  0.621292  1
  O  O81  1  0.634680  0.572931  0.420348  1
  O  O82  1  0.475182  0.349588  0.583133  1
  O  O83  1  0.524682  0.650273  0.636580  1
  O  O84  1  0.475156  0.349580  0.435631  1
  O  O85  1  0.058889  0.310951  0.556385  1
  O  O86  1  0.940975  0.688913  0.663322  1
  O  O87  1  0.058858  0.310929  0.462376  1
  O  O88  1  0.995241  0.281311  0.509381  1
  O  O89  1  0.004594  0.718533  0.710328  1
  O  O90  1  0.036226  0.278381  0.416094  1
  O  O91  1  0.963611  0.721469  0.617041  1
  O  O92  1  0.036251  0.278386  0.602668  1
  O  O93  1  0.091135  0.579491  0.585450  1
  O  O94  1  0.091103  0.579482  0.433312  1
  O  O95  1  0.908737  0.420366  0.634259  1
  O  O96  1  0.243843  0.343335  0.584570  1
  O  O97  1  0.243817  0.343326  0.434193  1
  O  O98  1  0.756020  0.656519  0.635140  1
  Si  Si99  1  0.267334  0.937219  0.217629  1
  Si  Si100  1  0.267306  0.937218  0.399242  1
  Si  Si101  1  0.732530  0.062637  0.198295  1
  Si  Si102  1  0.866629  0.895857  0.156075  1
  Si  Si103  1  0.133208  0.103988  0.357022  1
  Si  Si104  1  0.133236  0.103995  0.259849  1
  Si  Si105  1  0.760484  0.528404  0.135569  1
  Si  Si106  1  0.239353  0.471442  0.336516  1
  Si  Si107  1  0.239368  0.471455  0.280355  1
  Si  Si108  1  0.609877  0.403444  0.179612  1
  Si  Si109  1  0.389958  0.596412  0.380560  1
  Si  Si110  1  0.389985  0.596417  0.236313  1
  Si  Si111  1  0.960495  0.263476  0.135285  1
  Si  Si112  1  0.039341  0.736372  0.336232  1
  Si  Si113  1  0.039356  0.736390  0.280638  1
  Si  Si114  1  0.952980  0.236773  0.393897  1
  Si  Si115  1  0.046856  0.763076  0.192950  1
  Si  Si116  1  0.953012  0.236779  0.222973  1
  Si  Si117  1  0.889421  0.626457  0.380798  1
  Si  Si118  1  0.110414  0.373392  0.179852  1
  Si  Si119  1  0.889450  0.626461  0.236070  1
  Si  Si120  1  0.639956  0.697843  0.397131  1
  Si  Si121  1  0.359878  0.302007  0.196185  1
  Si  Si122  1  0.639983  0.697856  0.219742  1
  Si  Si123  1  0.732504  0.062621  0.418575  1
  Si  Si124  1  0.267334  0.937219  0.619522  1
  Si  Si125  1  0.732530  0.062637  0.600189  1
  Si  Si126  1  0.866629  0.895857  0.557969  1
  Si  Si127  1  0.133236  0.103995  0.661742  1
  Si  Si128  1  0.866598  0.895848  0.460795  1
  Si  Si129  1  0.760484  0.528404  0.537462  1
  Si  Si130  1  0.239368  0.471455  0.682248  1
  Si  Si131  1  0.760467  0.528389  0.481301  1
  Si  Si132  1  0.609877  0.403444  0.581505  1
  Si  Si133  1  0.389985  0.596417  0.638207  1
  Si  Si134  1  0.609853  0.403427  0.437259  1
  Si  Si135  1  0.960495  0.263476  0.537179  1
  Si  Si136  1  0.039356  0.736390  0.682532  1
  Si  Si137  1  0.960479  0.263450  0.481585  1
  Si  Si138  1  0.046856  0.763076  0.594843  1
  Si  Si139  1  0.046825  0.763067  0.423919  1
  Si  Si140  1  0.953012  0.236779  0.624866  1
  Si  Si141  1  0.110414  0.373392  0.581745  1
  Si  Si142  1  0.110386  0.373384  0.437018  1
  Si  Si143  1  0.889450  0.626461  0.637964  1
  Si  Si144  1  0.359878  0.302007  0.598078  1
  Si  Si145  1  0.359853  0.301991  0.420688  1
  Si  Si146  1  0.639983  0.697856  0.621635  1
  H  H147  1  0.730158  0.519302  0.091092  1
  H  H148  1  0.995241  0.281311  0.091091  1
  H  H149  1  0.269675  0.480543  0.726726  1
  H  H150  1  0.004594  0.718533  0.726724  1
