# generated using pymatgen
data_Si18H2O37
_symmetry_space_group_name_H-M   'P 1'
_cell_length_a   13.73003562
_cell_length_b   17.33827655
_cell_length_c   39.53072341
_cell_angle_alpha   90.00000000
_cell_angle_beta   90.00000000
_cell_angle_gamma   90.00000000
_symmetry_Int_Tables_number   1
_chemical_formula_structural   Si18H2O37
_chemical_formula_sum   'Si72 H8 O148'
_cell_volume   9410.49247483
_cell_formula_units_Z   4
loop_
 _symmetry_equiv_pos_site_id
 _symmetry_equiv_pos_as_xyz
  1  'x, y, z'
loop_
 _atom_site_type_symbol
 _atom_site_label
 _atom_site_symmetry_multiplicity
 _atom_site_fract_x
 _atom_site_fract_y
 _atom_site_fract_z
 _atom_site_occupancy
  O  O1  1  0.000000  0.141976  0.231443  1
  O  O2  1  0.500125  0.357878  0.231451  1
  O  O3  1  -0.000000  0.357907  0.291334  1
  O  O4  1  0.500106  0.141976  0.291349  1
  O  O5  1  0.124492  0.071924  0.266986  1
  O  O6  1  0.875674  0.071945  0.266972  1
  O  O7  1  0.624533  0.427927  0.266979  1
  O  O8  1  0.375716  0.427923  0.266998  1
  O  O9  1  0.875695  0.427925  0.255805  1
  O  O10  1  0.124541  0.427952  0.255789  1
  O  O11  1  0.375670  0.071957  0.255822  1
  O  O12  1  0.624511  0.071945  0.255798  1
  O  O13  1  0.180548  0.196423  0.239886  1
  O  O14  1  0.819678  0.196430  0.239888  1
  O  O15  1  0.680565  0.303436  0.239893  1
  O  O16  1  0.319714  0.303403  0.239893  1
  O  O17  1  0.819709  0.303435  0.282911  1
  O  O18  1  0.180560  0.303442  0.282898  1
  O  O19  1  0.319657  0.196411  0.282921  1
  O  O20  1  0.680557  0.196432  0.282914  1
  O  O21  1  0.149026  0.071827  0.204496  1
  O  O22  1  0.851158  0.071832  0.204491  1
  O  O23  1  0.649044  0.428031  0.204500  1
  O  O24  1  0.351164  0.428013  0.204507  1
  O  O25  1  0.809419  0.499936  0.203108  1
  O  O26  1  0.190786  0.499950  0.203106  1
  O  O27  1  0.000000  0.499932  0.221115  1
  O  O28  1  0.696288  0.499907  0.149262  1
  O  O29  1  0.303862  0.499887  0.149265  1
  O  O30  1  0.648927  0.071806  0.428742  1
  O  O31  1  0.351041  0.071790  0.428745  1
  O  O32  1  0.148941  0.428022  0.428757  1
  O  O33  1  0.851091  0.428033  0.428753  1
  O  O34  1  0.851203  0.428051  0.318290  1
  O  O35  1  0.149069  0.428057  0.318276  1
  O  O36  1  0.351181  0.071790  0.318299  1
  O  O37  1  0.649031  0.071805  0.318285  1
  O  O38  1  0.196276  0.499906  0.373520  1
  O  O39  1  0.500083  0.499951  0.301663  1
  O  O40  1  0.690685  0.499879  0.427368  1
  O  O41  1  0.500050  0.499847  0.445383  1
  O  O42  1  0.690796  0.499935  0.319669  1
  O  O43  1  0.309349  0.499872  0.427368  1
  O  O44  1  0.309449  0.499948  0.319683  1
  O  O45  1  0.803819  0.499928  0.373521  1
  O  O46  1  0.499983  0.141955  0.455690  1
  O  O47  1  0.000000  0.357878  0.455705  1
  O  O48  1  0.500001  0.357825  0.515607  1
  O  O49  1  -0.000000  0.141915  0.515576  1
  O  O50  1  0.624405  0.071918  0.491233  1
  O  O51  1  0.375573  0.071906  0.491231  1
  O  O52  1  0.124411  0.427920  0.491251  1
  O  O53  1  0.875591  0.427914  0.491233  1
  O  O54  1  0.375577  0.427838  0.480073  1
  O  O55  1  0.624420  0.427856  0.480068  1
  O  O56  1  0.875589  0.071862  0.480033  1
  O  O57  1  0.124392  0.071864  0.480038  1
  O  O58  1  0.680418  0.196419  0.464125  1
  O  O59  1  0.319543  0.196404  0.464130  1
  O  O60  1  0.180424  0.303415  0.464144  1
  O  O61  1  0.819563  0.303425  0.464135  1
  O  O62  1  0.319554  0.303373  0.507167  1
  O  O63  1  0.680447  0.303381  0.507166  1
  O  O64  1  0.819569  0.196381  0.507137  1
  O  O65  1  0.180410  0.196374  0.507148  1
  O  O66  1  0.351063  0.427986  0.542549  1
  O  O67  1  0.648940  0.427994  0.542554  1
  O  O68  1  0.851057  0.071775  0.542521  1
  O  O69  1  0.148911  0.071768  0.542530  1
  O  O70  1  0.809330  0.499911  0.543928  1
  O  O71  1  -0.000000  0.499929  0.525924  1
  O  O72  1  0.190678  0.499900  0.543945  1
  O  O73  1  0.500094  0.641986  0.231444  1
  O  O74  1  0.000000  0.857918  0.231419  1
  O  O75  1  0.500096  0.857873  0.291322  1
  O  O76  1  0.000000  0.641982  0.291345  1
  O  O77  1  0.624533  0.571960  0.266972  1
  O  O78  1  0.375688  0.571924  0.266985  1
  O  O79  1  0.124498  0.927918  0.266971  1
  O  O80  1  0.875661  0.927909  0.266960  1
  O  O81  1  0.375671  0.927914  0.255801  1
  O  O82  1  0.624499  0.927931  0.255787  1
  O  O83  1  0.875686  0.571952  0.255808  1
  O  O84  1  0.124494  0.571949  0.255795  1
  O  O85  1  0.680546  0.696431  0.239863  1
  O  O86  1  0.319633  0.696408  0.239869  1
  O  O87  1  0.180516  0.803430  0.239867  1
  O  O88  1  0.819686  0.803430  0.239863  1
  O  O89  1  0.319663  0.803422  0.282884  1
  O  O90  1  0.680541  0.803431  0.282882  1
  O  O91  1  0.819665  0.696433  0.282893  1
  O  O92  1  0.180519  0.696445  0.282897  1
  O  O93  1  0.649011  0.571812  0.204490  1
  O  O94  1  0.351202  0.571790  0.204494  1
  O  O95  1  0.149056  0.928053  0.204487  1
  O  O96  1  0.851129  0.928054  0.204481  1
  O  O97  1  0.309429  0.000000  0.203106  1
  O  O98  1  0.690754  0.000000  0.203099  1
  O  O99  1  0.500132  0.000000  0.221119  1
  O  O100  1  0.196289  0.000000  0.149258  1
  O  O101  1  0.803816  0.000000  0.149251  1
  O  O102  1  0.148970  0.571792  0.428754  1
  O  O103  1  0.851066  0.571809  0.428753  1
  O  O104  1  0.648887  0.928026  0.428748  1
  O  O105  1  0.351103  0.928007  0.428751  1
  O  O106  1  0.351156  0.928010  0.318280  1
  O  O107  1  0.649018  0.928027  0.318272  1
  O  O108  1  0.851167  0.571830  0.318289  1
  O  O109  1  0.149049  0.571833  0.318286  1
  O  O110  1  -0.000000  0.000000  0.301659  1
  O  O111  1  0.303809  0.000000  0.373518  1
  O  O112  1  0.809415  0.000000  0.319670  1
  O  O113  1  0.190678  0.000000  0.427359  1
  O  O114  1  -0.000000  0.000000  0.445365  1
  O  O115  1  0.696244  0.000000  0.373511  1
  O  O116  1  0.809303  0.000000  0.427357  1
  O  O117  1  0.190767  0.000000  0.319668  1
  O  O118  1  -0.000000  0.641947  0.455695  1
  O  O119  1  0.500006  0.857834  0.455708  1
  O  O120  1  -0.000000  0.857838  0.515604  1
  O  O121  1  0.500001  0.641915  0.515597  1
  O  O122  1  0.124426  0.571919  0.491243  1
  O  O123  1  0.875586  0.571953  0.491230  1
  O  O124  1  0.624405  0.927919  0.491239  1
  O  O125  1  0.375592  0.927904  0.491239  1
  O  O126  1  0.875562  0.927846  0.480061  1
  O  O127  1  0.124412  0.927855  0.480065  1
  O  O128  1  0.375595  0.571881  0.480062  1
  O  O129  1  0.624410  0.571863  0.480057  1
  O  O130  1  0.180448  0.696400  0.464139  1
  O  O131  1  0.819576  0.696416  0.464132  1
  O  O132  1  0.680449  0.803414  0.464135  1
  O  O133  1  0.319562  0.803398  0.464140  1
  O  O134  1  0.819554  0.803381  0.507165  1
  O  O135  1  0.180439  0.803386  0.507168  1
  O  O136  1  0.319581  0.696380  0.507158  1
  O  O137  1  0.680418  0.696383  0.507150  1
  O  O138  1  0.851050  0.928000  0.542542  1
  O  O139  1  0.148935  0.927997  0.542551  1
  O  O140  1  0.351072  0.571768  0.542542  1
  O  O141  1  0.648937  0.571777  0.542545  1
  O  O142  1  0.690663  0.000000  0.543927  1
  O  O143  1  0.499993  0.000000  0.525906  1
  O  O144  1  0.309320  0.000000  0.543921  1
  O  O145  1  0.696288  0.499907  0.597778  1
  O  O146  1  0.303862  0.499887  0.597781  1
  O  O147  1  0.196289  0.000000  0.597774  1
  O  O148  1  0.803816  0.000000  0.597767  1
  Si  Si149  1  0.750131  0.249934  0.261405  1
  Si  Si150  1  0.112556  0.123974  0.234618  1
  Si  Si151  1  0.887637  0.123961  0.234619  1
  Si  Si152  1  0.612583  0.375888  0.234624  1
  Si  Si153  1  0.387664  0.375878  0.234628  1
  Si  Si154  1  0.887674  0.375904  0.288167  1
  Si  Si155  1  0.112596  0.375909  0.288156  1
  Si  Si156  1  0.387645  0.123954  0.288180  1
  Si  Si157  1  0.612565  0.123977  0.288171  1
  Si  Si158  1  0.297807  0.499904  0.188637  1
  Si  Si159  1  0.250122  0.249914  0.261399  1
  Si  Si160  1  0.388824  0.499935  0.290789  1
  Si  Si161  1  0.702405  0.499924  0.188633  1
  Si  Si162  1  0.611436  0.499949  0.290782  1
  Si  Si163  1  0.888783  0.499933  0.231995  1
  Si  Si164  1  0.111397  0.499954  0.231994  1
  Si  Si165  1  0.202422  0.499943  0.334149  1
  Si  Si166  1  0.797800  0.499933  0.334150  1
  Si  Si167  1  0.797699  0.499915  0.412890  1
  Si  Si168  1  0.202333  0.499898  0.412889  1
  Si  Si169  1  0.249980  0.249893  0.485648  1
  Si  Si170  1  0.750003  0.249905  0.485638  1
  Si  Si171  1  0.388701  0.499858  0.456254  1
  Si  Si172  1  0.297705  0.499883  0.558413  1
  Si  Si173  1  0.612446  0.123957  0.458862  1
  Si  Si174  1  0.387522  0.123949  0.458861  1
  Si  Si175  1  0.112462  0.375881  0.458881  1
  Si  Si176  1  0.887544  0.375884  0.458877  1
  Si  Si177  1  0.387539  0.375833  0.512429  1
  Si  Si178  1  0.612460  0.375839  0.512434  1
  Si  Si179  1  0.887528  0.123916  0.512399  1
  Si  Si180  1  0.112445  0.123909  0.512406  1
  Si  Si181  1  0.888695  0.499928  0.515046  1
  Si  Si182  1  0.111302  0.499913  0.515053  1
  Si  Si183  1  0.611307  0.499863  0.456259  1
  Si  Si184  1  0.702320  0.499892  0.558410  1
  Si  Si185  1  0.250085  0.749930  0.261377  1
  Si  Si186  1  0.612556  0.623976  0.234609  1
  Si  Si187  1  0.387637  0.623960  0.234615  1
  Si  Si188  1  0.112553  0.875905  0.234606  1
  Si  Si189  1  0.887630  0.875912  0.234601  1
  Si  Si190  1  0.387635  0.875884  0.288150  1
  Si  Si191  1  0.612552  0.875888  0.288145  1
  Si  Si192  1  0.887637  0.623972  0.288164  1
  Si  Si193  1  0.112555  0.623981  0.288168  1
  Si  Si194  1  0.202414  0.000000  0.188627  1
  Si  Si195  1  0.750116  0.749932  0.261374  1
  Si  Si196  1  0.797767  0.000000  0.188623  1
  Si  Si197  1  0.888772  0.000000  0.290787  1
  Si  Si198  1  0.611381  -0.000000  0.231993  1
  Si  Si199  1  0.111377  -0.000000  0.290781  1
  Si  Si200  1  0.388775  0.000000  0.231992  1
  Si  Si201  1  0.702391  0.000000  0.334144  1
  Si  Si202  1  0.297777  0.000000  0.334148  1
  Si  Si203  1  0.297697  0.000000  0.412888  1
  Si  Si204  1  0.702288  0.000000  0.412884  1
  Si  Si205  1  0.749990  0.749894  0.485646  1
  Si  Si206  1  0.250012  0.749893  0.485654  1
  Si  Si207  1  0.111296  0.000000  0.456247  1
  Si  Si208  1  0.112478  0.623932  0.458877  1
  Si  Si209  1  0.887557  0.623955  0.458872  1
  Si  Si210  1  0.612461  0.875865  0.458872  1
  Si  Si211  1  0.387547  0.875849  0.458873  1
  Si  Si212  1  0.887534  0.875846  0.512423  1
  Si  Si213  1  0.112455  0.875845  0.512430  1
  Si  Si214  1  0.387541  0.623911  0.512419  1
  Si  Si215  1  0.612459  0.623918  0.512421  1
  Si  Si216  1  0.202314  0.000000  0.558402  1
  Si  Si217  1  0.888683  0.000000  0.456242  1
  Si  Si218  1  0.388682  0.000000  0.515030  1
  Si  Si219  1  0.611303  0.000000  0.515032  1
  Si  Si220  1  0.797684  0.000000  0.558398  1
  H  H221  1  0.696288  0.499907  0.126495  1
  H  H222  1  0.303862  0.499887  0.126498  1
  H  H223  1  0.196289  0.000000  0.126491  1
  H  H224  1  0.803816  0.000000  0.126484  1
  H  H225  1  0.696288  0.499907  0.620545  1
  H  H226  1  0.303862  0.499887  0.620548  1
  H  H227  1  0.196289  0.000000  0.620541  1
  H  H228  1  0.803816  0.000000  0.620534  1
