# generated using pymatgen
data_Si24H2O49
_symmetry_space_group_name_H-M   'P 1'
_cell_length_a   5.08835178
_cell_length_b   34.54776060
_cell_length_c   53.95440496
_cell_angle_alpha   90.00000000
_cell_angle_beta   90.00000000
_cell_angle_gamma   90.00000000
_symmetry_Int_Tables_number   1
_chemical_formula_structural   Si24H2O49
_chemical_formula_sum   'Si96 H8 O196'
_cell_volume   9484.70738862
_cell_formula_units_Z   4
loop_
 _symmetry_equiv_pos_site_id
 _symmetry_equiv_pos_as_xyz
  1  'x, y, z'
loop_
 _atom_site_type_symbol
 _atom_site_label
 _atom_site_symmetry_multiplicity
 _atom_site_fract_x
 _atom_site_fract_y
 _atom_site_fract_z
 _atom_site_occupancy
  O  O1  1  -0.000000  0.040897  0.387656  1
  O  O2  1  0.500181  0.540901  0.387672  1
  O  O3  1  0.998707  0.959015  0.189007  1
  O  O4  1  0.500933  0.458999  0.189038  1
  O  O5  1  -0.000000  0.040938  0.228341  1
  O  O6  1  0.499892  0.540965  0.228352  1
  O  O7  1  0.248705  0.912406  0.216522  1
  O  O8  1  0.750351  0.412541  0.216853  1
  O  O9  1  0.749218  0.912534  0.216809  1
  O  O10  1  0.250845  0.412405  0.216572  1
  O  O11  1  0.750129  0.912352  0.399459  1
  O  O12  1  0.250654  0.412377  0.399432  1
  O  O13  1  0.249623  0.912491  0.399161  1
  O  O14  1  0.750148  0.412455  0.399231  1
  O  O15  1  0.749767  0.087560  0.200889  1
  O  O16  1  0.250454  0.587480  0.200600  1
  O  O17  1  0.249279  0.087410  0.200490  1
  O  O18  1  0.749945  0.587505  0.200747  1
  O  O19  1  0.000000  0.970218  0.235704  1
  O  O20  1  0.499340  0.470242  0.235728  1
  O  O21  1  0.998375  0.970180  0.380276  1
  O  O22  1  0.499662  0.470178  0.380304  1
  O  O23  1  0.997934  0.029735  0.181645  1
  O  O24  1  0.500631  0.529720  0.181661  1
  O  O25  1  0.249589  0.205301  0.393872  1
  O  O26  1  0.748537  0.705166  0.393946  1
  O  O27  1  0.749897  0.205256  0.393842  1
  O  O28  1  0.248805  0.705368  0.393721  1
  O  O29  1  0.252733  0.794468  0.194908  1
  O  O30  1  0.748624  0.294708  0.195343  1
  O  O31  1  0.753062  0.794792  0.195454  1
  O  O32  1  0.248908  0.294565  0.195119  1
  O  O33  1  0.750805  0.205260  0.222174  1
  O  O34  1  0.250527  0.705295  0.222132  1
  O  O35  1  0.250503  0.205374  0.222255  1
  O  O36  1  0.750261  0.705354  0.222225  1
  O  O37  1  0.499581  0.766635  0.231298  1
  O  O38  1  -0.000000  0.266624  0.231350  1
  O  O39  1  0.500412  0.766576  0.384702  1
  O  O40  1  -0.000000  0.266586  0.384730  1
  O  O41  1  0.500213  0.233330  0.186098  1
  O  O42  1  0.000000  0.733324  0.186052  1
  O  O43  1  0.498941  0.845587  0.218276  1
  O  O44  1  -0.000000  0.345589  0.218321  1
  O  O45  1  0.499964  0.845536  0.397710  1
  O  O46  1  -0.000000  0.345534  0.397758  1
  O  O47  1  0.499528  0.154373  0.199099  1
  O  O48  1  0.000000  0.654373  0.199091  1
  O  O49  1  -0.000000  0.576153  0.276784  1
  O  O50  1  0.498877  0.076134  0.276772  1
  O  O51  1  -0.000000  0.576098  0.339253  1
  O  O52  1  0.498187  0.076132  0.339241  1
  O  O53  1  0.000000  0.423790  0.140624  1
  O  O54  1  0.498926  0.923800  0.140595  1
  O  O55  1  0.249180  0.640147  0.274011  1
  O  O56  1  0.761279  0.138727  0.273094  1
  O  O57  1  0.744232  0.639399  0.273517  1
  O  O58  1  0.256449  0.140831  0.274394  1
  O  O59  1  0.745796  0.639458  0.342403  1
  O  O60  1  0.258631  0.141076  0.341581  1
  O  O61  1  0.250751  0.639972  0.342069  1
  O  O62  1  0.763356  0.138501  0.343027  1
  O  O63  1  0.755202  0.359356  0.143180  1
  O  O64  1  0.235141  0.861254  0.144177  1
  O  O65  1  0.260035  0.360950  0.144113  1
  O  O66  1  0.739838  0.859038  0.143045  1
  O  O67  1  0.002681  0.612914  0.237228  1
  O  O68  1  0.493039  0.113004  0.237234  1
  O  O69  1  0.002260  0.612869  0.378790  1
  O  O70  1  0.492716  0.112996  0.378793  1
  O  O71  1  0.995832  0.386977  0.180171  1
  O  O72  1  0.503618  0.886942  0.180129  1
  O  O73  1  0.499728  0.701628  0.262240  1
  O  O74  1  -0.000000  0.201607  0.262284  1
  O  O75  1  0.500532  0.701565  0.353775  1
  O  O76  1  0.000000  0.201588  0.353781  1
  O  O77  1  0.500762  0.298330  0.155164  1
  O  O78  1  0.997776  0.798339  0.155112  1
  O  O79  1  0.250611  0.015631  0.265793  1
  O  O80  1  0.751189  0.515679  0.265748  1
  O  O81  1  0.748806  0.015706  0.265734  1
  O  O82  1  0.249396  0.515714  0.265809  1
  O  O83  1  0.748155  0.984253  0.151559  1
  O  O84  1  0.249544  0.484220  0.151633  1
  O  O85  1  0.249970  0.984291  0.151615  1
  O  O86  1  0.751339  0.484295  0.151591  1
  O  O87  1  0.748513  0.015768  0.350247  1
  O  O88  1  0.249597  0.515643  0.350216  1
  O  O89  1  0.250329  0.015541  0.350212  1
  O  O90  1  0.751393  0.515618  0.350278  1
  O  O91  1  0.496349  0.325462  0.109400  1
  O  O92  1  -0.000000  0.825524  0.109356  1
  O  O93  1  0.502389  0.674479  0.308006  1
  O  O94  1  0.992675  0.174339  0.308029  1
  O  O95  1  0.000000  0.477977  0.109379  1
  O  O96  1  0.498946  0.977972  0.109352  1
  O  O97  1  0.000000  0.521926  0.308012  1
  O  O98  1  0.499922  0.021936  0.307998  1
  O  O99  1  0.998707  0.959015  0.586285  1
  O  O100  1  0.500933  0.458999  0.586316  1
  O  O101  1  -0.000000  0.958958  0.426972  1
  O  O102  1  0.500727  0.458955  0.426998  1
  O  O103  1  -0.000000  0.040938  0.625618  1
  O  O104  1  0.499892  0.540965  0.625630  1
  O  O105  1  0.249103  0.087361  0.415528  1
  O  O106  1  0.750278  0.587447  0.415293  1
  O  O107  1  0.749592  0.087500  0.415110  1
  O  O108  1  0.250787  0.587431  0.415393  1
  O  O109  1  0.248705  0.912406  0.613800  1
  O  O110  1  0.750351  0.412541  0.614131  1
  O  O111  1  0.749218  0.912534  0.614087  1
  O  O112  1  0.250845  0.412405  0.613850  1
  O  O113  1  0.749767  0.087560  0.598167  1
  O  O114  1  0.250454  0.587480  0.597877  1
  O  O115  1  0.249279  0.087410  0.597768  1
  O  O116  1  0.749945  0.587505  0.598024  1
  O  O117  1  0.997826  0.029672  0.434349  1
  O  O118  1  0.500656  0.529677  0.434366  1
  O  O119  1  -0.000000  0.970218  0.632982  1
  O  O120  1  0.499340  0.470242  0.633005  1
  O  O121  1  0.997934  0.029735  0.578922  1
  O  O122  1  0.500631  0.529720  0.578939  1
  O  O123  1  0.252733  0.794468  0.592185  1
  O  O124  1  0.748624  0.294708  0.592621  1
  O  O125  1  0.753062  0.794792  0.592732  1
  O  O126  1  0.248908  0.294565  0.592397  1
  O  O127  1  0.749432  0.794572  0.420902  1
  O  O128  1  0.248327  0.294485  0.420987  1
  O  O129  1  0.249113  0.794601  0.420728  1
  O  O130  1  0.748039  0.294687  0.420722  1
  O  O131  1  0.750805  0.205260  0.619451  1
  O  O132  1  0.250527  0.705295  0.619410  1
  O  O133  1  0.250503  0.205374  0.619533  1
  O  O134  1  0.750261  0.705354  0.619503  1
  O  O135  1  0.500020  0.233276  0.429979  1
  O  O136  1  0.000000  0.733279  0.429953  1
  O  O137  1  0.499581  0.766635  0.628576  1
  O  O138  1  -0.000000  0.266624  0.628628  1
  O  O139  1  0.500213  0.233330  0.583375  1
  O  O140  1  -0.000000  0.733324  0.583330  1
  O  O141  1  0.499482  0.154318  0.416952  1
  O  O142  1  -0.000000  0.654320  0.416925  1
  O  O143  1  0.498941  0.845587  0.615554  1
  O  O144  1  -0.000000  0.345589  0.615599  1
  O  O145  1  0.499528  0.154373  0.596377  1
  O  O146  1  0.000000  0.654373  0.596369  1
  O  O147  1  -0.000000  0.423766  0.475433  1
  O  O148  1  0.499079  0.923743  0.475412  1
  O  O149  1  -0.000000  0.576153  0.674062  1
  O  O150  1  0.498877  0.076134  0.674050  1
  O  O151  1  -0.000000  0.423790  0.537902  1
  O  O152  1  0.498926  0.923800  0.537872  1
  O  O153  1  0.257082  0.360660  0.472102  1
  O  O154  1  0.764722  0.861334  0.471759  1
  O  O155  1  0.752152  0.359624  0.472751  1
  O  O156  1  0.260052  0.858870  0.472969  1
  O  O157  1  0.249180  0.640147  0.671289  1
  O  O158  1  0.761279  0.138727  0.670372  1
  O  O159  1  0.744232  0.639399  0.670795  1
  O  O160  1  0.256449  0.140831  0.671672  1
  O  O161  1  0.755202  0.359356  0.540458  1
  O  O162  1  0.235141  0.861254  0.541455  1
  O  O163  1  0.260035  0.360950  0.541391  1
  O  O164  1  0.739838  0.859038  0.540323  1
  O  O165  1  0.996911  0.386983  0.435888  1
  O  O166  1  0.495073  0.886906  0.435854  1
  O  O167  1  0.002681  0.612914  0.634505  1
  O  O168  1  0.493039  0.113004  0.634512  1
  O  O169  1  0.995832  0.386977  0.577449  1
  O  O170  1  0.503618  0.886942  0.577406  1
  O  O171  1  0.500379  0.298290  0.460915  1
  O  O172  1  0.001104  0.798302  0.460884  1
  O  O173  1  0.499728  0.701628  0.659518  1
  O  O174  1  -0.000000  0.201607  0.659562  1
  O  O175  1  0.500762  0.298330  0.552442  1
  O  O176  1  0.997776  0.798339  0.552390  1
  O  O177  1  0.250611  0.015631  0.663071  1
  O  O178  1  0.751189  0.515679  0.663025  1
  O  O179  1  0.748806  0.015706  0.663011  1
  O  O180  1  0.249396  0.515714  0.663086  1
  O  O181  1  0.250937  0.984314  0.464352  1
  O  O182  1  0.751097  0.484246  0.464452  1
  O  O183  1  0.749127  0.984128  0.464440  1
  O  O184  1  0.249305  0.484205  0.464393  1
  O  O185  1  0.748155  0.984253  0.548837  1
  O  O186  1  0.249544  0.484220  0.548910  1
  O  O187  1  0.249970  0.984291  0.548893  1
  O  O188  1  0.751339  0.484295  0.548869  1
  O  O189  1  0.496349  0.325462  0.506677  1
  O  O190  1  0.000000  0.825524  0.506634  1
  O  O191  1  0.502389  0.674479  0.705284  1
  O  O192  1  0.992675  0.174339  0.705307  1
  O  O193  1  0.000000  0.477977  0.506657  1
  O  O194  1  0.498946  0.977972  0.506629  1
  O  O195  1  -0.000000  0.521926  0.705289  1
  O  O196  1  0.499922  0.021936  0.705276  1
  Si  Si197  1  0.000000  0.938605  0.214901  1
  Si  Si198  1  0.500256  0.438607  0.214938  1
  Si  Si199  1  0.000000  0.938557  0.401074  1
  Si  Si200  1  0.500204  0.438554  0.401100  1
  Si  Si201  1  -0.000000  0.061350  0.202448  1
  Si  Si202  1  0.500274  0.561355  0.202450  1
  Si  Si203  1  0.500725  0.800899  0.211499  1
  Si  Si204  1  0.000000  0.300898  0.211554  1
  Si  Si205  1  0.499907  0.800851  0.404494  1
  Si  Si206  1  -0.000000  0.300849  0.404533  1
  Si  Si207  1  0.500281  0.199056  0.205892  1
  Si  Si208  1  0.000000  0.699061  0.205855  1
  Si  Si209  1  0.000000  0.617806  0.265779  1
  Si  Si210  1  0.502361  0.117793  0.265786  1
  Si  Si211  1  0.000000  0.617760  0.350238  1
  Si  Si212  1  0.503246  0.117781  0.350242  1
  Si  Si213  1  0.002752  0.382136  0.151620  1
  Si  Si214  1  0.494095  0.882143  0.151578  1
  Si  Si215  1  0.500016  0.720963  0.235667  1
  Si  Si216  1  -0.000000  0.220948  0.235709  1
  Si  Si217  1  0.499658  0.720902  0.380345  1
  Si  Si218  1  -0.000000  0.220912  0.380362  1
  Si  Si219  1  0.499669  0.279004  0.181740  1
  Si  Si220  1  0.000000  0.778999  0.181686  1
  Si  Si221  1  -0.000000  0.010095  0.249505  1
  Si  Si222  1  0.500033  0.510125  0.249520  1
  Si  Si223  1  0.998808  0.989857  0.167842  1
  Si  Si224  1  0.500550  0.489836  0.167869  1
  Si  Si225  1  -0.000000  0.010066  0.366484  1
  Si  Si226  1  0.500249  0.510058  0.366506  1
  Si  Si227  1  -0.000000  0.389188  0.407050  1
  Si  Si228  1  0.499226  0.889188  0.407017  1
  Si  Si229  1  0.000000  0.610723  0.208389  1
  Si  Si230  1  0.498693  0.110718  0.208400  1
  Si  Si231  1  0.000000  0.389235  0.209007  1
  Si  Si232  1  0.499568  0.889235  0.208964  1
  Si  Si233  1  0.499121  0.664716  0.279580  1
  Si  Si234  1  0.002166  0.164657  0.279602  1
  Si  Si235  1  0.499956  0.664666  0.336427  1
  Si  Si236  1  0.003058  0.164648  0.336453  1
  Si  Si237  1  0.502651  0.335240  0.137821  1
  Si  Si238  1  0.994002  0.835266  0.137778  1
  Si  Si239  1  -0.000000  0.531187  0.279437  1
  Si  Si240  1  0.499770  0.031167  0.279420  1
  Si  Si241  1  -0.000000  0.531135  0.336593  1
  Si  Si242  1  0.499260  0.031165  0.336578  1
  Si  Si243  1  0.000000  0.468753  0.137959  1
  Si  Si244  1  0.498861  0.968764  0.137933  1
  Si  Si245  1  0.998989  0.061299  0.413551  1
  Si  Si246  1  0.500569  0.561301  0.413570  1
  Si  Si247  1  0.000000  0.938605  0.612179  1
  Si  Si248  1  0.500256  0.438607  0.612216  1
  Si  Si249  1  -0.000000  0.061350  0.599725  1
  Si  Si250  1  0.500274  0.561355  0.599728  1
  Si  Si251  1  0.499823  0.199010  0.410177  1
  Si  Si252  1  0.000000  0.699007  0.410157  1
  Si  Si253  1  0.500725  0.800899  0.608777  1
  Si  Si254  1  0.000000  0.300898  0.608831  1
  Si  Si255  1  0.500281  0.199056  0.603170  1
  Si  Si256  1  -0.000000  0.699061  0.603133  1
  Si  Si257  1  0.001414  0.382108  0.464440  1
  Si  Si258  1  0.505119  0.882101  0.464404  1
  Si  Si259  1  -0.000000  0.617806  0.663057  1
  Si  Si260  1  0.502361  0.117793  0.663064  1
  Si  Si261  1  0.002752  0.382136  0.548897  1
  Si  Si262  1  0.494095  0.882143  0.548856  1
  Si  Si263  1  0.499290  0.278949  0.434343  1
  Si  Si264  1  0.000000  0.778955  0.434312  1
  Si  Si265  1  0.500016  0.720963  0.632945  1
  Si  Si266  1  -0.000000  0.220948  0.632987  1
  Si  Si267  1  0.499669  0.279004  0.579018  1
  Si  Si268  1  -0.000000  0.778999  0.578963  1
  Si  Si269  1  -0.000000  0.010095  0.646783  1
  Si  Si270  1  0.500033  0.510125  0.646798  1
  Si  Si271  1  0.000000  0.989794  0.448141  1
  Si  Si272  1  0.500390  0.489797  0.448164  1
  Si  Si273  1  0.998808  0.989857  0.565120  1
  Si  Si274  1  0.500550  0.489836  0.565147  1
  Si  Si275  1  -0.000000  0.610723  0.605667  1
  Si  Si276  1  0.498693  0.110718  0.605678  1
  Si  Si277  1  -0.000000  0.610670  0.407628  1
  Si  Si278  1  0.498520  0.110674  0.407626  1
  Si  Si279  1  0.000000  0.389235  0.606285  1
  Si  Si280  1  0.499568  0.889235  0.606242  1
  Si  Si281  1  0.501290  0.335209  0.478251  1
  Si  Si282  1  0.005217  0.835240  0.478209  1
  Si  Si283  1  0.499121  0.664716  0.676858  1
  Si  Si284  1  0.002166  0.164657  0.676880  1
  Si  Si285  1  0.502651  0.335240  0.535098  1
  Si  Si286  1  0.994002  0.835266  0.535056  1
  Si  Si287  1  -0.000000  0.468733  0.478080  1
  Si  Si288  1  0.499516  0.968716  0.478054  1
  Si  Si289  1  -0.000000  0.531187  0.676714  1
  Si  Si290  1  0.499770  0.031167  0.676698  1
  Si  Si291  1  0.000000  0.468753  0.535237  1
  Si  Si292  1  0.498861  0.968764  0.535211  1
  H  H293  1  0.496349  0.325462  0.092719  1
  H  H294  1  -0.000000  0.825524  0.092676  1
  H  H295  1  0.000000  0.477977  0.092699  1
  H  H296  1  0.498946  0.977972  0.092671  1
  H  H297  1  0.502389  0.674479  0.721965  1
  H  H298  1  0.992675  0.174339  0.721987  1
  H  H299  1  -0.000000  0.521926  0.721970  1
  H  H300  1  0.499922  0.021936  0.721957  1
