# generated using pymatgen
data_Si20H2O41
_symmetry_space_group_name_H-M   'P 1'
_cell_length_a   5.05415245
_cell_length_b   14.13088993
_cell_length_c   53.25599371
_cell_angle_alpha   100.96000000
_cell_angle_beta   90.00000000
_cell_angle_gamma   90.00000000
_symmetry_Int_Tables_number   1
_chemical_formula_structural   Si20H2O41
_chemical_formula_sum   'Si40 H4 O82'
_cell_volume   3734.14987929
_cell_formula_units_Z   2
loop_
 _symmetry_equiv_pos_site_id
 _symmetry_equiv_pos_as_xyz
  1  'x, y, z'
loop_
 _atom_site_type_symbol
 _atom_site_label
 _atom_site_symmetry_multiplicity
 _atom_site_fract_x
 _atom_site_fract_y
 _atom_site_fract_z
 _atom_site_occupancy
  O  O1  1  0.261100  0.294927  0.150356  1
  O  O2  1  0.761088  0.704959  0.236408  1
  O  O3  1  0.477716  0.136713  0.155785  1
  O  O4  1  0.978378  0.863078  0.231028  1
  O  O5  1  0.480239  0.854115  0.235046  1
  O  O6  1  0.979553  0.145957  0.151756  1
  O  O7  1  0.268006  0.141996  0.112530  1
  O  O8  1  0.768215  0.857804  0.274275  1
  O  O9  1  0.253467  0.495911  0.167699  1
  O  O10  1  0.753497  0.504019  0.219090  1
  O  O11  1  0.972953  0.378035  0.186289  1
  O  O12  1  0.470239  0.621804  0.200668  1
  O  O13  1  0.969120  0.621914  0.195061  1
  O  O14  1  0.471786  0.377862  0.191556  1
  O  O15  1  0.267066  0.692384  0.165098  1
  O  O16  1  0.766935  0.307565  0.221739  1
  O  O17  1  0.261867  0.008528  0.228504  1
  O  O18  1  0.762030  0.991439  0.158306  1
  O  O19  1  0.271239  0.861058  0.191845  1
  O  O20  1  0.770760  0.138902  0.194970  1
  O  O21  1  0.500891  0.835148  0.148746  1
  O  O22  1  -0.000000  0.164638  0.238096  1
  O  O23  1  0.499560  0.169395  0.235788  1
  O  O24  1  -0.000000  0.830690  0.151003  1
  O  O25  1  0.276589  0.105306  0.273262  1
  O  O26  1  0.776709  0.894592  0.113550  1
  O  O27  1  0.985291  0.009015  0.298311  1
  O  O28  1  0.261100  0.294927  0.361323  1
  O  O29  1  0.761088  0.704959  0.447376  1
  O  O30  1  0.477716  0.136713  0.366753  1
  O  O31  1  0.978378  0.863078  0.441995  1
  O  O32  1  0.480239  0.854115  0.446014  1
  O  O33  1  0.979553  0.145957  0.362723  1
  O  O34  1  0.268006  0.141996  0.323497  1
  O  O35  1  0.768215  0.857804  0.485242  1
  O  O36  1  0.253467  0.495911  0.378666  1
  O  O37  1  0.753497  0.504019  0.430057  1
  O  O38  1  0.972953  0.378035  0.397256  1
  O  O39  1  0.470239  0.621804  0.411635  1
  O  O40  1  0.969120  0.621914  0.406029  1
  O  O41  1  0.471786  0.377862  0.402523  1
  O  O42  1  0.267066  0.692384  0.376065  1
  O  O43  1  0.766935  0.307565  0.432706  1
  O  O44  1  0.261867  0.008528  0.439471  1
  O  O45  1  0.762030  0.991439  0.369273  1
  O  O46  1  0.271239  0.861058  0.402812  1
  O  O47  1  0.770760  0.138902  0.405937  1
  O  O48  1  0.500891  0.835148  0.359714  1
  O  O49  1  -0.000000  0.164638  0.449064  1
  O  O50  1  0.499560  0.169395  0.446755  1
  O  O51  1  0.000000  0.830690  0.361971  1
  O  O52  1  0.276589  0.105306  0.484229  1
  O  O53  1  0.776709  0.894592  0.324517  1
  O  O54  1  0.985291  0.009015  0.509278  1
  O  O55  1  0.485299  0.990805  0.299451  1
  O  O56  1  0.261100  0.294927  0.572290  1
  O  O57  1  0.761088  0.704959  0.658343  1
  O  O58  1  0.477716  0.136713  0.577720  1
  O  O59  1  0.978378  0.863078  0.652963  1
  O  O60  1  0.480239  0.854115  0.656981  1
  O  O61  1  0.979553  0.145957  0.573690  1
  O  O62  1  0.268006  0.141996  0.534465  1
  O  O63  1  0.768215  0.857804  0.696209  1
  O  O64  1  0.253467  0.495911  0.589633  1
  O  O65  1  0.753497  0.504019  0.641025  1
  O  O66  1  0.972953  0.378035  0.608223  1
  O  O67  1  0.470239  0.621804  0.622602  1
  O  O68  1  0.969120  0.621914  0.616996  1
  O  O69  1  0.471786  0.377862  0.613491  1
  O  O70  1  0.267066  0.692384  0.587033  1
  O  O71  1  0.766935  0.307565  0.643673  1
  O  O72  1  0.261867  0.008528  0.650439  1
  O  O73  1  0.762030  0.991439  0.580240  1
  O  O74  1  0.271239  0.861058  0.613779  1
  O  O75  1  0.770760  0.138902  0.616904  1
  O  O76  1  0.500891  0.835148  0.570681  1
  O  O77  1  0.000000  0.164638  0.660031  1
  O  O78  1  0.499560  0.169395  0.657722  1
  O  O79  1  -0.000000  0.830690  0.572938  1
  O  O80  1  0.276589  0.105306  0.695196  1
  O  O81  1  0.776709  0.894592  0.535485  1
  O  O82  1  0.485299  0.990805  0.510419  1
  Si  Si83  1  0.247826  0.180891  0.142133  1
  Si  Si84  1  0.748261  0.818977  0.244665  1
  Si  Si85  1  0.242215  0.387672  0.172405  1
  Si  Si86  1  0.740766  0.612232  0.214369  1
  Si  Si87  1  0.240648  0.607619  0.180555  1
  Si  Si88  1  0.742092  0.392293  0.206249  1
  Si  Si89  1  0.247946  0.896184  0.221378  1
  Si  Si90  1  0.747510  0.103775  0.165434  1
  Si  Si91  1  0.260763  0.803464  0.163677  1
  Si  Si92  1  0.760129  0.196467  0.223141  1
  Si  Si93  1  0.259649  0.113821  0.244360  1
  Si  Si94  1  0.760253  0.886134  0.142457  1
  Si  Si95  1  0.254428  0.063145  0.298343  1
  Si  Si96  1  0.247826  0.180891  0.353100  1
  Si  Si97  1  0.748261  0.818977  0.455632  1
  Si  Si98  1  0.242215  0.387672  0.383372  1
  Si  Si99  1  0.740766  0.612232  0.425336  1
  Si  Si100  1  0.240648  0.607619  0.391522  1
  Si  Si101  1  0.742092  0.392293  0.417216  1
  Si  Si102  1  0.247946  0.896184  0.432345  1
  Si  Si103  1  0.747510  0.103775  0.376402  1
  Si  Si104  1  0.260763  0.803464  0.374645  1
  Si  Si105  1  0.760129  0.196467  0.434109  1
  Si  Si106  1  0.259649  0.113821  0.455328  1
  Si  Si107  1  0.760253  0.886134  0.353424  1
  Si  Si108  1  0.254428  0.063145  0.509311  1
  Si  Si109  1  0.754447  0.936680  0.299426  1
  Si  Si110  1  0.247826  0.180891  0.564068  1
  Si  Si111  1  0.748261  0.818977  0.666600  1
  Si  Si112  1  0.242215  0.387672  0.594340  1
  Si  Si113  1  0.740766  0.612232  0.636304  1
  Si  Si114  1  0.240648  0.607619  0.602490  1
  Si  Si115  1  0.742092  0.392293  0.628183  1
  Si  Si116  1  0.247946  0.896184  0.643313  1
  Si  Si117  1  0.747510  0.103775  0.587369  1
  Si  Si118  1  0.260763  0.803464  0.585612  1
  Si  Si119  1  0.760129  0.196467  0.645076  1
  Si  Si120  1  0.259649  0.113821  0.666295  1
  Si  Si121  1  0.760253  0.886134  0.564391  1
  Si  Si122  1  0.754447  0.936680  0.510394  1
  H  H123  1  0.268006  0.141996  0.095630  1
  H  H124  1  0.776709  0.894592  0.096651  1
  H  H125  1  0.768215  0.857804  0.713109  1
  H  H126  1  0.276589  0.105306  0.712096  1
