# generated using pymatgen
data_Si8H2O17
_symmetry_space_group_name_H-M   'P 1'
_cell_length_a   23.54425957
_cell_length_b   24.66038491
_cell_length_c   54.63952451
_cell_angle_alpha   51.49964411
_cell_angle_beta   77.08305236
_cell_angle_gamma   38.67887552
_symmetry_Int_Tables_number   1
_chemical_formula_structural   Si8H2O17
_chemical_formula_sum   'Si80 H20 O170'
_cell_volume   13093.2357878
_cell_formula_units_Z   10
loop_
 _symmetry_equiv_pos_site_id
 _symmetry_equiv_pos_as_xyz
  1  'x, y, z'
loop_
 _atom_site_type_symbol
 _atom_site_label
 _atom_site_symmetry_multiplicity
 _atom_site_fract_x
 _atom_site_fract_y
 _atom_site_fract_z
 _atom_site_occupancy
  O  O1  1  0.093321  0.813304  0.155149  1
  O  O2  1  0.507193  0.318748  0.155038  1
  O  O3  1  0.497708  0.998803  0.175843  1
  O  O4  1  0.594205  0.812921  0.155322  1
  O  O5  1  0.007276  0.318756  0.155039  1
  O  O6  1  0.298515  0.542402  0.285360  1
  O  O7  1  0.388859  0.336452  0.332944  1
  O  O8  1  0.110866  0.663720  0.205279  1
  O  O9  1  0.123725  0.648929  0.272517  1
  O  O10  1  0.376006  0.351234  0.265710  1
  O  O11  1  0.093321  0.813304  0.339787  1
  O  O12  1  0.286460  0.556641  0.216201  1
  O  O13  1  0.155449  0.706539  0.220905  1
  O  O14  1  0.107675  0.795080  0.243550  1
  O  O15  1  0.068612  0.617046  0.255046  1
  O  O16  1  0.431118  0.383120  0.283179  1
  O  O17  1  0.026313  0.970406  0.230234  1
  O  O18  1  0.007197  0.666751  0.293579  1
  O  O19  1  0.492541  0.333393  0.244653  1
  O  O20  1  0.701216  0.139684  0.267401  1
  O  O21  1  0.888864  0.885714  0.256613  1
  O  O22  1  0.610868  0.114426  0.281620  1
  O  O23  1  0.623726  0.103508  0.219128  1
  O  O24  1  0.876002  0.896633  0.319103  1
  O  O25  1  0.906405  0.000000  0.212961  1
  O  O26  1  0.713272  0.129823  0.202692  1
  O  O27  1  0.844284  0.017694  0.255777  1
  O  O28  1  0.892052  0.010683  0.296067  1
  O  O29  1  0.568613  0.245613  0.216250  1
  O  O30  1  0.931119  0.754525  0.321983  1
  O  O31  1  0.973382  0.023335  0.312781  1
  O  O32  1  0.507193  0.318748  0.339675  1
  O  O33  1  0.992537  0.681405  0.198555  1
  O  O34  1  0.201024  0.139766  0.267515  1
  O  O35  1  0.201213  0.457767  0.252864  1
  O  O36  1  0.406419  0.186855  0.198437  1
  O  O37  1  0.405440  0.001696  0.212783  1
  O  O38  1  0.213272  0.443520  0.322024  1
  O  O39  1  0.213445  0.129745  0.202754  1
  O  O40  1  0.344283  0.293620  0.317320  1
  O  O41  1  0.343949  0.017723  0.255887  1
  O  O42  1  0.392032  0.205109  0.294664  1
  O  O43  1  0.393199  0.009350  0.296184  1
  O  O44  1  0.473373  0.029829  0.307953  1
  O  O45  1  0.497708  0.998803  0.360481  1
  O  O46  1  0.798519  0.860454  0.270831  1
  O  O47  1  0.798617  0.542154  0.285541  1
  O  O48  1  0.594205  0.812921  0.339960  1
  O  O49  1  0.593305  -0.000000  0.325263  1
  O  O50  1  0.786194  0.556989  0.216191  1
  O  O51  1  0.786456  0.870317  0.335541  1
  O  O52  1  0.655691  0.705970  0.221134  1
  O  O53  1  0.655448  0.982445  0.282454  1
  O  O54  1  0.501996  0.994520  0.268952  1
  O  O55  1  0.606445  0.796085  0.243248  1
  O  O56  1  0.607695  0.989440  0.242164  1
  O  O57  1  0.526304  0.976895  0.225408  1
  O  O58  1  0.298616  0.860496  0.270687  1
  O  O59  1  0.389164  0.885586  0.256603  1
  O  O60  1  0.110479  0.114673  0.281598  1
  O  O61  1  0.123876  0.103613  0.219039  1
  O  O62  1  0.375764  0.896646  0.319164  1
  O  O63  1  0.094196  0.998572  0.325418  1
  O  O64  1  0.286194  0.870515  0.335447  1
  O  O65  1  0.155687  0.982537  0.282315  1
  O  O66  1  0.001942  0.001403  0.177720  1
  O  O67  1  0.106455  0.990898  0.242016  1
  O  O68  1  0.068620  0.245666  0.216264  1
  O  O69  1  0.431019  0.754598  0.321938  1
  O  O70  1  0.007276  0.318756  0.339677  1
  O  O71  1  0.492358  0.681497  0.198528  1
  O  O72  1  0.701021  0.458084  0.252668  1
  O  O73  1  0.889165  0.335969  0.333058  1
  O  O74  1  0.610476  0.664266  0.205152  1
  O  O75  1  0.623880  0.648511  0.272663  1
  O  O76  1  0.875765  0.351717  0.265547  1
  O  O77  1  0.905451  0.187300  0.198250  1
  O  O78  1  0.713448  0.443242  0.322020  1
  O  O79  1  0.843951  0.294263  0.317076  1
  O  O80  1  0.893188  0.204157  0.294958  1
  O  O81  1  0.568620  0.616982  0.255029  1
  O  O82  1  0.931019  0.383253  0.283180  1
  O  O83  1  0.507277  0.666572  0.293604  1
  O  O84  1  0.992360  0.333678  0.244603  1
  O  O85  1  0.997724  0.005615  0.269261  1
  O  O86  1  0.298515  0.542402  0.469998  1
  O  O87  1  0.388859  0.336452  0.517582  1
  O  O88  1  0.110866  0.663720  0.389916  1
  O  O89  1  0.123725  0.648929  0.457155  1
  O  O90  1  0.376006  0.351234  0.450347  1
  O  O91  1  0.093321  0.813304  0.524425  1
  O  O92  1  0.286460  0.556641  0.400839  1
  O  O93  1  0.155449  0.706539  0.405543  1
  O  O94  1  0.107675  0.795080  0.428188  1
  O  O95  1  0.068612  0.617046  0.439684  1
  O  O96  1  0.431118  0.383120  0.467817  1
  O  O97  1  0.026313  0.970406  0.414872  1
  O  O98  1  0.007197  0.666751  0.478216  1
  O  O99  1  0.492541  0.333393  0.429290  1
  O  O100  1  0.701216  0.139684  0.452039  1
  O  O101  1  0.888864  0.885714  0.441250  1
  O  O102  1  0.610868  0.114426  0.466258  1
  O  O103  1  0.623726  0.103508  0.403766  1
  O  O104  1  0.876002  0.896633  0.503741  1
  O  O105  1  0.906405  -0.000000  0.397598  1
  O  O106  1  0.713272  0.129823  0.387330  1
  O  O107  1  0.844284  0.017694  0.440415  1
  O  O108  1  0.892052  0.010683  0.480705  1
  O  O109  1  0.568613  0.245613  0.400888  1
  O  O110  1  0.931119  0.754525  0.506621  1
  O  O111  1  0.973382  0.023335  0.497419  1
  O  O112  1  0.507193  0.318748  0.524313  1
  O  O113  1  0.992537  0.681405  0.383193  1
  O  O114  1  0.201024  0.139766  0.452153  1
  O  O115  1  0.201213  0.457767  0.437502  1
  O  O116  1  0.406419  0.186855  0.383075  1
  O  O117  1  0.405440  0.001696  0.397421  1
  O  O118  1  0.213272  0.443520  0.506662  1
  O  O119  1  0.213445  0.129745  0.387392  1
  O  O120  1  0.344283  0.293620  0.501958  1
  O  O121  1  0.343949  0.017723  0.440525  1
  O  O122  1  0.392032  0.205109  0.479302  1
  O  O123  1  0.393199  0.009350  0.480822  1
  O  O124  1  0.473373  0.029829  0.492591  1
  O  O125  1  0.497708  0.998803  0.545119  1
  O  O126  1  0.798519  0.860454  0.455469  1
  O  O127  1  0.798617  0.542154  0.470179  1
  O  O128  1  0.594205  0.812921  0.524598  1
  O  O129  1  0.593305  0.000000  0.509901  1
  O  O130  1  0.786194  0.556989  0.400829  1
  O  O131  1  0.786456  0.870317  0.520179  1
  O  O132  1  0.655691  0.705970  0.405772  1
  O  O133  1  0.655448  0.982445  0.467092  1
  O  O134  1  0.501996  0.994520  0.453590  1
  O  O135  1  0.606445  0.796085  0.427886  1
  O  O136  1  0.607695  0.989440  0.426802  1
  O  O137  1  0.526304  0.976895  0.410046  1
  O  O138  1  0.298616  0.860496  0.455325  1
  O  O139  1  0.389164  0.885586  0.441241  1
  O  O140  1  0.110479  0.114673  0.466235  1
  O  O141  1  0.123876  0.103613  0.403677  1
  O  O142  1  0.375764  0.896646  0.503802  1
  O  O143  1  0.094196  0.998572  0.510055  1
  O  O144  1  0.286194  0.870515  0.520085  1
  O  O145  1  0.155687  0.982537  0.466953  1
  O  O146  1  0.001942  0.001403  0.362358  1
  O  O147  1  0.106455  0.990898  0.426654  1
  O  O148  1  0.068620  0.245666  0.400902  1
  O  O149  1  0.431019  0.754598  0.506575  1
  O  O150  1  0.007276  0.318756  0.524315  1
  O  O151  1  0.492358  0.681497  0.383166  1
  O  O152  1  0.701021  0.458084  0.437305  1
  O  O153  1  0.889165  0.335969  0.517696  1
  O  O154  1  0.610476  0.664266  0.389790  1
  O  O155  1  0.623880  0.648511  0.457301  1
  O  O156  1  0.875765  0.351717  0.450185  1
  O  O157  1  0.905451  0.187300  0.382888  1
  O  O158  1  0.713448  0.443242  0.506658  1
  O  O159  1  0.843951  0.294263  0.501714  1
  O  O160  1  0.893188  0.204157  0.479596  1
  O  O161  1  0.568620  0.616982  0.439667  1
  O  O162  1  0.931019  0.383253  0.467818  1
  O  O163  1  0.507277  0.666572  0.478241  1
  O  O164  1  0.992360  0.333678  0.429240  1
  O  O165  1  0.997724  0.005615  0.453899  1
  O  O166  1  0.992537  0.681405  0.567831  1
  O  O167  1  0.406419  0.186855  0.567713  1
  O  O168  1  0.001942  0.001403  0.546995  1
  O  O169  1  0.492358  0.681497  0.567804  1
  O  O170  1  0.905451  0.187300  0.567526  1
  Si  Si171  1  0.009955  0.943496  0.215556  1
  Si  Si172  1  0.100108  0.593129  0.286657  1
  Si  Si173  1  0.399624  0.407032  0.251570  1
  Si  Si174  1  0.410436  0.394513  0.310324  1
  Si  Si175  1  0.089291  0.605656  0.227900  1
  Si  Si176  1  0.161493  0.687164  0.197438  1
  Si  Si177  1  0.172523  0.674198  0.256333  1
  Si  Si178  1  0.600108  0.206541  0.196270  1
  Si  Si179  1  0.899621  0.793598  0.341964  1
  Si  Si180  1  0.910441  0.784498  0.287199  1
  Si  Si181  1  0.589293  0.215641  0.251034  1
  Si  Si182  1  0.838238  0.010412  0.230076  1
  Si  Si183  1  0.827208  0.019496  0.284901  1
  Si  Si184  1  0.989754  0.963694  0.304147  1
  Si  Si185  1  0.338239  0.312998  0.340787  1
  Si  Si186  1  0.338395  0.010349  0.230169  1
  Si  Si187  1  0.327205  0.325968  0.281891  1
  Si  Si188  1  0.327013  0.019482  0.285016  1
  Si  Si189  1  0.489732  0.056702  0.322651  1
  Si  Si190  1  0.491590  0.962001  0.303134  1
  Si  Si191  1  0.509980  0.036457  0.234070  1
  Si  Si192  1  0.661245  0.687491  0.197466  1
  Si  Si193  1  0.661490  0.989732  0.308154  1
  Si  Si194  1  0.672628  0.673849  0.256519  1
  Si  Si195  1  0.672525  0.980641  0.253330  1
  Si  Si196  1  0.508073  0.945515  0.213861  1
  Si  Si197  1  0.100192  0.206660  0.196256  1
  Si  Si198  1  0.399446  0.793602  0.341946  1
  Si  Si199  1  0.410527  0.784515  0.287147  1
  Si  Si200  1  0.089113  0.215746  0.251055  1
  Si  Si201  1  0.161244  0.989912  0.308032  1
  Si  Si202  1  0.172629  0.980776  0.253186  1
  Si  Si203  1  0.008087  0.038210  0.235069  1
  Si  Si204  1  0.600195  0.592835  0.286698  1
  Si  Si205  1  0.899448  0.407396  0.251512  1
  Si  Si206  1  0.910527  0.394316  0.310405  1
  Si  Si207  1  0.589112  0.605922  0.227804  1
  Si  Si208  1  0.838397  0.312743  0.340744  1
  Si  Si209  1  0.827010  0.326388  0.281690  1
  Si  Si210  1  0.991572  0.054729  0.324338  1
  Si  Si211  1  0.009955  0.943496  0.400193  1
  Si  Si212  1  0.100108  0.593129  0.471295  1
  Si  Si213  1  0.399624  0.407032  0.436208  1
  Si  Si214  1  0.410436  0.394513  0.494962  1
  Si  Si215  1  0.089291  0.605656  0.412538  1
  Si  Si216  1  0.161493  0.687164  0.382075  1
  Si  Si217  1  0.172523  0.674198  0.440971  1
  Si  Si218  1  0.600108  0.206541  0.380907  1
  Si  Si219  1  0.899621  0.793598  0.526602  1
  Si  Si220  1  0.910441  0.784498  0.471837  1
  Si  Si221  1  0.589293  0.215641  0.435671  1
  Si  Si222  1  0.838238  0.010412  0.414714  1
  Si  Si223  1  0.827208  0.019496  0.469539  1
  Si  Si224  1  0.989754  0.963694  0.488784  1
  Si  Si225  1  0.338239  0.312998  0.525425  1
  Si  Si226  1  0.338395  0.010349  0.414807  1
  Si  Si227  1  0.327205  0.325968  0.466529  1
  Si  Si228  1  0.327013  0.019482  0.469654  1
  Si  Si229  1  0.489732  0.056702  0.507289  1
  Si  Si230  1  0.491590  0.962001  0.487772  1
  Si  Si231  1  0.509980  0.036457  0.418707  1
  Si  Si232  1  0.661245  0.687491  0.382104  1
  Si  Si233  1  0.661490  0.989732  0.492792  1
  Si  Si234  1  0.672628  0.673849  0.441157  1
  Si  Si235  1  0.672525  0.980641  0.437968  1
  Si  Si236  1  0.508073  0.945515  0.398498  1
  Si  Si237  1  0.100192  0.206660  0.380894  1
  Si  Si238  1  0.399446  0.793602  0.526584  1
  Si  Si239  1  0.410527  0.784515  0.471785  1
  Si  Si240  1  0.089113  0.215746  0.435693  1
  Si  Si241  1  0.161244  0.989912  0.492670  1
  Si  Si242  1  0.172629  0.980776  0.437824  1
  Si  Si243  1  0.008087  0.038210  0.419707  1
  Si  Si244  1  0.600195  0.592835  0.471336  1
  Si  Si245  1  0.899448  0.407396  0.436150  1
  Si  Si246  1  0.910527  0.394316  0.495042  1
  Si  Si247  1  0.589112  0.605922  0.412442  1
  Si  Si248  1  0.838397  0.312743  0.525381  1
  Si  Si249  1  0.827010  0.326388  0.466328  1
  Si  Si250  1  0.991572  0.054729  0.508976  1
  H  H251  1  0.093321  0.813304  0.138677  1
  H  H252  1  0.507193  0.318748  0.138566  1
  H  H253  1  0.497708  0.998803  0.159371  1
  H  H254  1  0.594205  0.812921  0.138850  1
  H  H255  1  0.007276  0.318756  0.138567  1
  H  H256  1  0.992537  0.681405  0.182083  1
  H  H257  1  0.406419  0.186855  0.181965  1
  H  H258  1  0.001942  0.001403  0.161248  1
  H  H259  1  0.492358  0.681497  0.182056  1
  H  H260  1  0.905451  0.187300  0.181779  1
  H  H261  1  0.093321  0.813304  0.540896  1
  H  H262  1  0.507193  0.318748  0.540785  1
  H  H263  1  0.497708  0.998803  0.561590  1
  H  H264  1  0.594205  0.812921  0.541069  1
  H  H265  1  0.007276  0.318756  0.540786  1
  H  H266  1  0.992537  0.681405  0.584302  1
  H  H267  1  0.406419  0.186855  0.584184  1
  H  H268  1  0.001942  0.001403  0.563467  1
  H  H269  1  0.492358  0.681497  0.584275  1
  H  H270  1  0.905451  0.187300  0.583998  1
