# generated using pymatgen
data_Si46H6O95
_symmetry_space_group_name_H-M   'P 1'
_cell_length_a   10.13810602
_cell_length_b   35.95875048
_cell_length_c   53.91989378
_cell_angle_alpha   106.37546612
_cell_angle_beta   90.00000000
_cell_angle_gamma   90.00000000
_symmetry_Int_Tables_number   1
_chemical_formula_structural   Si46H6O95
_chemical_formula_sum   'Si184 H24 O380'
_cell_volume   18859.3147426
_cell_formula_units_Z   4
loop_
 _symmetry_equiv_pos_site_id
 _symmetry_equiv_pos_as_xyz
  1  'x, y, z'
loop_
 _atom_site_type_symbol
 _atom_site_label
 _atom_site_symmetry_multiplicity
 _atom_site_fract_x
 _atom_site_fract_y
 _atom_site_fract_z
 _atom_site_occupancy
  O  O1  1  0.249929  0.457630  0.113342  1
  O  O2  1  0.749734  0.957637  0.113346  1
  O  O3  1  0.249892  0.152047  0.184897  1
  O  O4  1  0.249718  0.152040  0.302918  1
  O  O5  1  0.563593  0.098010  0.233772  1
  O  O6  1  0.935889  0.097985  0.233726  1
  O  O7  1  0.127455  0.125078  0.215849  1
  O  O8  1  0.372089  0.125079  0.261839  1
  O  O9  1  0.127471  0.124910  0.261815  1
  O  O10  1  0.372090  0.125020  0.215836  1
  O  O11  1  0.249601  0.076038  0.178143  1
  O  O12  1  0.250209  0.076022  0.281130  1
  O  O13  1  0.749681  0.046788  0.224137  1
  O  O14  1  0.540031  0.033499  0.197876  1
  O  O15  1  0.959373  0.033481  0.245379  1
  O  O16  1  0.540026  0.033476  0.245398  1
  O  O17  1  0.959252  0.033447  0.197848  1
  O  O18  1  0.122910  0.013425  0.275183  1
  O  O19  1  0.376508  0.013384  0.160533  1
  O  O20  1  0.122827  0.013365  0.160514  1
  O  O21  1  0.376602  0.013305  0.275180  1
  O  O22  1  0.249763  0.042402  0.129304  1
  O  O23  1  0.976135  0.326033  0.182613  1
  O  O24  1  0.523881  0.326012  0.182603  1
  O  O25  1  0.523734  0.174026  0.248026  1
  O  O26  1  0.975962  0.173996  0.248120  1
  O  O27  1  0.249838  0.203258  0.159523  1
  O  O28  1  0.250104  0.296786  0.271134  1
  O  O29  1  0.123614  0.216570  0.201456  1
  O  O30  1  0.376379  0.216562  0.201430  1
  O  O31  1  0.376284  0.283475  0.229192  1
  O  O32  1  0.123553  0.283500  0.308040  1
  O  O33  1  0.376334  0.283475  0.308066  1
  O  O34  1  0.123511  0.283467  0.229239  1
  O  O35  1  0.945029  0.236611  0.235962  1
  O  O36  1  0.554816  0.236670  0.283674  1
  O  O37  1  0.944934  0.236718  0.283677  1
  O  O38  1  0.554829  0.236690  0.235981  1
  O  O39  1  0.554944  0.263375  0.194689  1
  O  O40  1  0.945074  0.263373  0.146995  1
  O  O41  1  0.554922  0.263338  0.146987  1
  O  O42  1  0.945080  0.263377  0.194697  1
  O  O43  1  0.750019  0.292402  0.176296  1
  O  O44  1  0.749887  0.207639  0.254369  1
  O  O45  1  0.936103  0.402046  0.196914  1
  O  O46  1  0.563830  0.402024  0.196906  1
  O  O47  1  0.249919  0.347994  0.245761  1
  O  O48  1  0.249997  0.348006  0.127740  1
  O  O49  1  0.127680  0.375018  0.214821  1
  O  O50  1  0.372281  0.375013  0.168835  1
  O  O51  1  0.127652  0.375045  0.168832  1
  O  O52  1  0.372310  0.374993  0.214826  1
  O  O53  1  0.249983  0.424008  0.252524  1
  O  O54  1  0.250050  0.424016  0.149541  1
  O  O55  1  0.749921  0.453250  0.206537  1
  O  O56  1  0.959574  0.466572  0.232801  1
  O  O57  1  0.540268  0.466535  0.185260  1
  O  O58  1  0.959526  0.466565  0.185273  1
  O  O59  1  0.540241  0.466549  0.232790  1
  O  O60  1  0.376701  0.486687  0.155486  1
  O  O61  1  0.123125  0.486673  0.270141  1
  O  O62  1  0.376796  0.486671  0.270147  1
  O  O63  1  0.122997  0.486644  0.155471  1
  O  O64  1  0.249929  0.457630  0.301360  1
  O  O65  1  0.749928  0.652041  0.184872  1
  O  O66  1  0.749805  0.652027  0.302889  1
  O  O67  1  0.063804  0.597991  0.233724  1
  O  O68  1  0.436080  0.597989  0.233724  1
  O  O69  1  0.627521  0.625098  0.215825  1
  O  O70  1  0.872209  0.624972  0.261800  1
  O  O71  1  0.627588  0.624994  0.261797  1
  O  O72  1  0.872165  0.624983  0.215805  1
  O  O73  1  0.749607  0.576030  0.178119  1
  O  O74  1  0.749806  0.576013  0.281104  1
  O  O75  1  0.249997  0.546775  0.224112  1
  O  O76  1  0.040367  0.533465  0.197844  1
  O  O77  1  0.459648  0.533475  0.245378  1
  O  O78  1  0.040333  0.533481  0.245372  1
  O  O79  1  0.459657  0.533459  0.197849  1
  O  O80  1  0.623153  0.513331  0.275158  1
  O  O81  1  0.876748  0.513397  0.160520  1
  O  O82  1  0.623079  0.513330  0.160486  1
  O  O83  1  0.876840  0.513386  0.275170  1
  O  O84  1  0.749925  0.542397  0.129284  1
  O  O85  1  0.475824  0.826007  0.182632  1
  O  O86  1  0.023600  0.826044  0.182531  1
  O  O87  1  0.023630  0.673998  0.248015  1
  O  O88  1  0.475863  0.674009  0.248078  1
  O  O89  1  0.749747  0.703244  0.159494  1
  O  O90  1  0.749683  0.796780  0.271123  1
  O  O91  1  0.623412  0.716545  0.201419  1
  O  O92  1  0.876176  0.716580  0.201411  1
  O  O93  1  0.876087  0.783470  0.229206  1
  O  O94  1  0.623388  0.783486  0.308047  1
  O  O95  1  0.876168  0.783470  0.308026  1
  O  O96  1  0.623323  0.783450  0.229194  1
  O  O97  1  0.444860  0.736620  0.235944  1
  O  O98  1  0.054659  0.736664  0.283639  1
  O  O99  1  0.444789  0.736710  0.283658  1
  O  O100  1  0.054677  0.736658  0.235940  1
  O  O101  1  0.054595  0.763432  0.194678  1
  O  O102  1  0.444824  0.763363  0.146975  1
  O  O103  1  0.054678  0.763329  0.146961  1
  O  O104  1  0.444775  0.763333  0.194665  1
  O  O105  1  0.249712  0.792396  0.176272  1
  O  O106  1  0.249737  0.707630  0.254343  1
  O  O107  1  0.435953  0.902029  0.196894  1
  O  O108  1  0.063655  0.902051  0.196933  1
  O  O109  1  0.749702  0.847981  0.245750  1
  O  O110  1  0.749859  0.848000  0.127734  1
  O  O111  1  0.627460  0.875014  0.214821  1
  O  O112  1  0.872065  0.875130  0.168841  1
  O  O113  1  0.627439  0.874948  0.168816  1
  O  O114  1  0.872089  0.874970  0.214808  1
  O  O115  1  0.749886  0.923995  0.252522  1
  O  O116  1  0.749262  0.924014  0.149533  1
  O  O117  1  0.249853  0.953250  0.206536  1
  O  O118  1  0.459494  0.966542  0.232797  1
  O  O119  1  0.040164  0.966555  0.185288  1
  O  O120  1  0.459494  0.966567  0.185276  1
  O  O121  1  0.040257  0.966585  0.232819  1
  O  O122  1  0.876595  0.986605  0.155485  1
  O  O123  1  0.622999  0.986657  0.270139  1
  O  O124  1  0.876673  0.986667  0.270151  1
  O  O125  1  0.622902  0.986739  0.155491  1
  O  O126  1  0.749734  0.957637  0.301364  1
  O  O127  1  0.249892  0.152047  0.372915  1
  O  O128  1  0.249718  0.152040  0.490935  1
  O  O129  1  0.563593  0.098010  0.421790  1
  O  O130  1  0.935889  0.097985  0.421743  1
  O  O131  1  0.127455  0.125078  0.403866  1
  O  O132  1  0.372089  0.125079  0.449856  1
  O  O133  1  0.127471  0.124910  0.449832  1
  O  O134  1  0.372090  0.125020  0.403854  1
  O  O135  1  0.249601  0.076038  0.366160  1
  O  O136  1  0.250209  0.076022  0.469148  1
  O  O137  1  0.749681  0.046788  0.412155  1
  O  O138  1  0.540031  0.033499  0.385893  1
  O  O139  1  0.959373  0.033481  0.433397  1
  O  O140  1  0.540026  0.033476  0.433415  1
  O  O141  1  0.959252  0.033447  0.385865  1
  O  O142  1  0.122910  0.013425  0.463200  1
  O  O143  1  0.376508  0.013384  0.348550  1
  O  O144  1  0.122827  0.013365  0.348531  1
  O  O145  1  0.376602  0.013305  0.463198  1
  O  O146  1  0.249763  0.042402  0.317321  1
  O  O147  1  0.976135  0.326033  0.370631  1
  O  O148  1  0.523881  0.326012  0.370620  1
  O  O149  1  0.523734  0.174026  0.436043  1
  O  O150  1  0.975962  0.173996  0.436137  1
  O  O151  1  0.249838  0.203258  0.347540  1
  O  O152  1  0.250104  0.296786  0.459152  1
  O  O153  1  0.123614  0.216570  0.389474  1
  O  O154  1  0.376303  0.216546  0.310632  1
  O  O155  1  0.123528  0.216580  0.310617  1
  O  O156  1  0.376379  0.216562  0.389448  1
  O  O157  1  0.376284  0.283475  0.417209  1
  O  O158  1  0.123553  0.283500  0.496058  1
  O  O159  1  0.376334  0.283475  0.496083  1
  O  O160  1  0.123511  0.283467  0.417256  1
  O  O161  1  0.945029  0.236611  0.423980  1
  O  O162  1  0.554816  0.236670  0.471691  1
  O  O163  1  0.944934  0.236718  0.471694  1
  O  O164  1  0.554829  0.236690  0.423998  1
  O  O165  1  0.554944  0.263375  0.382707  1
  O  O166  1  0.945074  0.263373  0.335013  1
  O  O167  1  0.554922  0.263338  0.335005  1
  O  O168  1  0.945080  0.263377  0.382714  1
  O  O169  1  0.750019  0.292402  0.364313  1
  O  O170  1  0.749887  0.207639  0.442386  1
  O  O171  1  0.936103  0.402046  0.384931  1
  O  O172  1  0.563830  0.402024  0.384923  1
  O  O173  1  0.249919  0.347994  0.433779  1
  O  O174  1  0.249997  0.348006  0.315758  1
  O  O175  1  0.127680  0.375018  0.402839  1
  O  O176  1  0.372281  0.375013  0.356852  1
  O  O177  1  0.127652  0.375045  0.356849  1
  O  O178  1  0.372310  0.374993  0.402843  1
  O  O179  1  0.249983  0.424008  0.440541  1
  O  O180  1  0.250050  0.424016  0.337559  1
  O  O181  1  0.749921  0.453250  0.394555  1
  O  O182  1  0.959574  0.466572  0.420818  1
  O  O183  1  0.540268  0.466535  0.373277  1
  O  O184  1  0.959526  0.466565  0.373290  1
  O  O185  1  0.540241  0.466549  0.420807  1
  O  O186  1  0.376701  0.486687  0.343503  1
  O  O187  1  0.123125  0.486673  0.458158  1
  O  O188  1  0.376796  0.486671  0.458164  1
  O  O189  1  0.122997  0.486644  0.343488  1
  O  O190  1  0.249929  0.457630  0.489377  1
  O  O191  1  0.749928  0.652041  0.372889  1
  O  O192  1  0.749805  0.652027  0.490906  1
  O  O193  1  0.063804  0.597991  0.421741  1
  O  O194  1  0.436080  0.597989  0.421741  1
  O  O195  1  0.627521  0.625098  0.403843  1
  O  O196  1  0.872209  0.624972  0.449817  1
  O  O197  1  0.627588  0.624994  0.449814  1
  O  O198  1  0.872165  0.624983  0.403822  1
  O  O199  1  0.749607  0.576030  0.366136  1
  O  O200  1  0.749806  0.576013  0.469122  1
  O  O201  1  0.249997  0.546775  0.412130  1
  O  O202  1  0.040367  0.533465  0.385861  1
  O  O203  1  0.459648  0.533475  0.433396  1
  O  O204  1  0.040333  0.533481  0.433389  1
  O  O205  1  0.459657  0.533459  0.385867  1
  O  O206  1  0.623153  0.513331  0.463176  1
  O  O207  1  0.876748  0.513397  0.348537  1
  O  O208  1  0.623079  0.513330  0.348503  1
  O  O209  1  0.876840  0.513386  0.463187  1
  O  O210  1  0.749925  0.542397  0.317302  1
  O  O211  1  0.475824  0.826007  0.370650  1
  O  O212  1  0.023600  0.826044  0.370548  1
  O  O213  1  0.023630  0.673998  0.436033  1
  O  O214  1  0.475863  0.674009  0.436095  1
  O  O215  1  0.749747  0.703244  0.347511  1
  O  O216  1  0.749683  0.796780  0.459140  1
  O  O217  1  0.623412  0.716545  0.389436  1
  O  O218  1  0.876112  0.716546  0.310593  1
  O  O219  1  0.623326  0.716551  0.310601  1
  O  O220  1  0.876176  0.716580  0.389429  1
  O  O221  1  0.876087  0.783470  0.417223  1
  O  O222  1  0.623388  0.783486  0.496064  1
  O  O223  1  0.876168  0.783470  0.496044  1
  O  O224  1  0.623323  0.783450  0.417212  1
  O  O225  1  0.444860  0.736620  0.423962  1
  O  O226  1  0.054659  0.736664  0.471657  1
  O  O227  1  0.444789  0.736710  0.471676  1
  O  O228  1  0.054677  0.736658  0.423957  1
  O  O229  1  0.054595  0.763432  0.382695  1
  O  O230  1  0.444824  0.763363  0.334992  1
  O  O231  1  0.054678  0.763329  0.334979  1
  O  O232  1  0.444775  0.763333  0.382683  1
  O  O233  1  0.249712  0.792396  0.364290  1
  O  O234  1  0.249737  0.707630  0.442361  1
  O  O235  1  0.435953  0.902029  0.384911  1
  O  O236  1  0.063655  0.902051  0.384950  1
  O  O237  1  0.749702  0.847981  0.433767  1
  O  O238  1  0.749859  0.848000  0.315751  1
  O  O239  1  0.627460  0.875014  0.402838  1
  O  O240  1  0.872065  0.875130  0.356859  1
  O  O241  1  0.627439  0.874948  0.356834  1
  O  O242  1  0.872089  0.874970  0.402826  1
  O  O243  1  0.749886  0.923995  0.440540  1
  O  O244  1  0.749262  0.924014  0.337550  1
  O  O245  1  0.249853  0.953250  0.394554  1
  O  O246  1  0.459494  0.966542  0.420814  1
  O  O247  1  0.040164  0.966555  0.373306  1
  O  O248  1  0.459494  0.966567  0.373293  1
  O  O249  1  0.040257  0.966585  0.420836  1
  O  O250  1  0.876595  0.986605  0.343503  1
  O  O251  1  0.622999  0.986657  0.458156  1
  O  O252  1  0.876673  0.986667  0.458169  1
  O  O253  1  0.622902  0.986739  0.343508  1
  O  O254  1  0.749734  0.957637  0.489381  1
  O  O255  1  0.249892  0.152047  0.560932  1
  O  O256  1  0.249718  0.152040  0.678952  1
  O  O257  1  0.563593  0.098010  0.609807  1
  O  O258  1  0.935889  0.097985  0.609760  1
  O  O259  1  0.127455  0.125078  0.591883  1
  O  O260  1  0.372089  0.125079  0.637874  1
  O  O261  1  0.127471  0.124910  0.637850  1
  O  O262  1  0.372090  0.125020  0.591871  1
  O  O263  1  0.249601  0.076038  0.554177  1
  O  O264  1  0.250209  0.076022  0.657165  1
  O  O265  1  0.749681  0.046788  0.600172  1
  O  O266  1  0.540031  0.033499  0.573910  1
  O  O267  1  0.959373  0.033481  0.621414  1
  O  O268  1  0.540026  0.033476  0.621433  1
  O  O269  1  0.959252  0.033447  0.573882  1
  O  O270  1  0.122910  0.013425  0.651218  1
  O  O271  1  0.376508  0.013384  0.536568  1
  O  O272  1  0.122827  0.013365  0.536548  1
  O  O273  1  0.376602  0.013305  0.651215  1
  O  O274  1  0.249763  0.042402  0.505339  1
  O  O275  1  0.976135  0.326033  0.558648  1
  O  O276  1  0.523881  0.326012  0.558637  1
  O  O277  1  0.523734  0.174026  0.624060  1
  O  O278  1  0.975962  0.173996  0.624154  1
  O  O279  1  0.249838  0.203258  0.535557  1
  O  O280  1  0.250104  0.296786  0.647169  1
  O  O281  1  0.123614  0.216570  0.577491  1
  O  O282  1  0.376303  0.216546  0.498649  1
  O  O283  1  0.123528  0.216580  0.498634  1
  O  O284  1  0.376379  0.216562  0.577465  1
  O  O285  1  0.376284  0.283475  0.605226  1
  O  O286  1  0.123511  0.283467  0.605273  1
  O  O287  1  0.945029  0.236611  0.611997  1
  O  O288  1  0.554816  0.236670  0.659709  1
  O  O289  1  0.944934  0.236718  0.659712  1
  O  O290  1  0.554829  0.236690  0.612015  1
  O  O291  1  0.554944  0.263375  0.570724  1
  O  O292  1  0.945074  0.263373  0.523030  1
  O  O293  1  0.554922  0.263338  0.523022  1
  O  O294  1  0.945080  0.263377  0.570731  1
  O  O295  1  0.750019  0.292402  0.552330  1
  O  O296  1  0.749887  0.207639  0.630403  1
  O  O297  1  0.936103  0.402046  0.572949  1
  O  O298  1  0.563830  0.402024  0.572940  1
  O  O299  1  0.249919  0.347994  0.621796  1
  O  O300  1  0.249997  0.348006  0.503775  1
  O  O301  1  0.127680  0.375018  0.590856  1
  O  O302  1  0.372281  0.375013  0.544869  1
  O  O303  1  0.127652  0.375045  0.544867  1
  O  O304  1  0.372310  0.374993  0.590861  1
  O  O305  1  0.249983  0.424008  0.628559  1
  O  O306  1  0.250050  0.424016  0.525576  1
  O  O307  1  0.749921  0.453250  0.582572  1
  O  O308  1  0.959574  0.466572  0.608836  1
  O  O309  1  0.540268  0.466535  0.561294  1
  O  O310  1  0.959526  0.466565  0.561308  1
  O  O311  1  0.540241  0.466549  0.608824  1
  O  O312  1  0.376701  0.486687  0.531520  1
  O  O313  1  0.123125  0.486673  0.646175  1
  O  O314  1  0.376796  0.486671  0.646181  1
  O  O315  1  0.122997  0.486644  0.531505  1
  O  O316  1  0.249929  0.457630  0.677394  1
  O  O317  1  0.749928  0.652041  0.560907  1
  O  O318  1  0.749805  0.652027  0.678924  1
  O  O319  1  0.063804  0.597991  0.609759  1
  O  O320  1  0.436080  0.597989  0.609759  1
  O  O321  1  0.627521  0.625098  0.591860  1
  O  O322  1  0.872209  0.624972  0.637835  1
  O  O323  1  0.627588  0.624994  0.637831  1
  O  O324  1  0.872165  0.624983  0.591840  1
  O  O325  1  0.749607  0.576030  0.554154  1
  O  O326  1  0.749806  0.576013  0.657139  1
  O  O327  1  0.249997  0.546775  0.600147  1
  O  O328  1  0.040367  0.533465  0.573878  1
  O  O329  1  0.459648  0.533475  0.621413  1
  O  O330  1  0.040333  0.533481  0.621407  1
  O  O331  1  0.459657  0.533459  0.573884  1
  O  O332  1  0.623153  0.513331  0.651193  1
  O  O333  1  0.876748  0.513397  0.536554  1
  O  O334  1  0.623079  0.513330  0.536520  1
  O  O335  1  0.876840  0.513386  0.651205  1
  O  O336  1  0.749925  0.542397  0.505319  1
  O  O337  1  0.475824  0.826007  0.558667  1
  O  O338  1  0.023600  0.826044  0.558566  1
  O  O339  1  0.023630  0.673998  0.624050  1
  O  O340  1  0.475863  0.674009  0.624112  1
  O  O341  1  0.749747  0.703244  0.535529  1
  O  O342  1  0.749683  0.796780  0.647157  1
  O  O343  1  0.623412  0.716545  0.577454  1
  O  O344  1  0.876112  0.716546  0.498611  1
  O  O345  1  0.623326  0.716551  0.498618  1
  O  O346  1  0.876176  0.716580  0.577446  1
  O  O347  1  0.876087  0.783470  0.605240  1
  O  O348  1  0.623323  0.783450  0.605229  1
  O  O349  1  0.444860  0.736620  0.611979  1
  O  O350  1  0.054659  0.736664  0.659674  1
  O  O351  1  0.444789  0.736710  0.659693  1
  O  O352  1  0.054677  0.736658  0.611975  1
  O  O353  1  0.054595  0.763432  0.570713  1
  O  O354  1  0.444824  0.763363  0.523010  1
  O  O355  1  0.054678  0.763329  0.522996  1
  O  O356  1  0.444775  0.763333  0.570700  1
  O  O357  1  0.249712  0.792396  0.552307  1
  O  O358  1  0.249737  0.707630  0.630378  1
  O  O359  1  0.435953  0.902029  0.572928  1
  O  O360  1  0.063655  0.902051  0.572968  1
  O  O361  1  0.749702  0.847981  0.621785  1
  O  O362  1  0.749859  0.848000  0.503769  1
  O  O363  1  0.627460  0.875014  0.590855  1
  O  O364  1  0.872065  0.875130  0.544876  1
  O  O365  1  0.627439  0.874948  0.544851  1
  O  O366  1  0.872089  0.874970  0.590843  1
  O  O367  1  0.749886  0.923995  0.628557  1
  O  O368  1  0.749262  0.924014  0.525568  1
  O  O369  1  0.249853  0.953250  0.582571  1
  O  O370  1  0.459494  0.966542  0.608832  1
  O  O371  1  0.040164  0.966555  0.561323  1
  O  O372  1  0.459494  0.966567  0.561310  1
  O  O373  1  0.040257  0.966585  0.608854  1
  O  O374  1  0.876595  0.986605  0.531520  1
  O  O375  1  0.622999  0.986657  0.646174  1
  O  O376  1  0.876673  0.986667  0.646186  1
  O  O377  1  0.622902  0.986739  0.531526  1
  O  O378  1  0.749734  0.957637  0.677398  1
  O  O379  1  0.249763  0.042402  0.693356  1
  O  O380  1  0.749925  0.542397  0.693336  1
  Si  Si381  1  0.249752  0.117559  0.197465  1
  Si  Si382  1  0.249854  0.117527  0.277397  1
  Si  Si383  1  0.462367  0.132521  0.240240  1
  Si  Si384  1  0.037206  0.132475  0.240249  1
  Si  Si385  1  0.598062  0.053485  0.225400  1
  Si  Si386  1  0.901310  0.053466  0.225373  1
  Si  Si387  1  0.499732  -0.000000  0.173438  1
  Si  Si388  1  0.249667  0.036270  0.156848  1
  Si  Si389  1  0.249850  0.036255  0.287470  1
  Si  Si390  1  0.000000  -0.000000  0.257239  1
  Si  Si391  1  0.249953  0.196568  0.186773  1
  Si  Si392  1  0.249948  0.303472  0.243883  1
  Si  Si393  1  0.250004  0.303482  0.300901  1
  Si  Si394  1  0.027096  0.250007  0.215339  1
  Si  Si395  1  0.472806  0.250025  0.215324  1
  Si  Si396  1  0.902642  0.286267  0.175149  1
  Si  Si397  1  0.597402  0.286251  0.175136  1
  Si  Si398  1  0.597269  0.213786  0.255519  1
  Si  Si399  1  0.902513  0.213769  0.255531  1
  Si  Si400  1  0.037399  0.367552  0.190421  1
  Si  Si401  1  0.462561  0.367522  0.190420  1
  Si  Si402  1  0.249981  0.382489  0.233201  1
  Si  Si403  1  0.249996  0.382507  0.153268  1
  Si  Si404  1  0.901548  0.446566  0.205280  1
  Si  Si405  1  0.598304  0.446549  0.205270  1
  Si  Si406  1  0.249952  0.463775  0.273819  1
  Si  Si407  1  0.249900  0.463777  0.143194  1
  Si  Si408  1  0.499919  0.499998  0.173414  1
  Si  Si409  1  0.749809  0.617553  0.197438  1
  Si  Si410  1  0.749871  0.617516  0.277368  1
  Si  Si411  1  0.962438  0.632471  0.240209  1
  Si  Si412  1  0.537268  0.632509  0.240226  1
  Si  Si413  1  0.098376  0.553471  0.225366  1
  Si  Si414  1  0.401621  0.553465  0.225370  1
  Si  Si415  1  0.000000  0.500030  0.257226  1
  Si  Si416  1  0.000000  0.500016  0.173421  1
  Si  Si417  1  0.749869  0.536260  0.156827  1
  Si  Si418  1  0.749940  0.536250  0.287450  1
  Si  Si419  1  0.499961  0.500009  0.257224  1
  Si  Si420  1  0.749813  0.696562  0.186746  1
  Si  Si421  1  0.749682  0.803459  0.243870  1
  Si  Si422  1  0.749774  0.803478  0.300890  1
  Si  Si423  1  0.526899  0.749986  0.215305  1
  Si  Si424  1  0.972624  0.750001  0.309309  1
  Si  Si425  1  0.972595  0.750037  0.215309  1
  Si  Si426  1  0.402329  0.786242  0.175128  1
  Si  Si427  1  0.097081  0.786275  0.175109  1
  Si  Si428  1  0.097113  0.713767  0.255487  1
  Si  Si429  1  0.402359  0.713773  0.255510  1
  Si  Si430  1  0.537169  0.867515  0.190420  1
  Si  Si431  1  0.962333  0.867563  0.190406  1
  Si  Si432  1  0.749795  0.882479  0.233193  1
  Si  Si433  1  0.749671  0.882505  0.153259  1
  Si  Si434  1  0.401473  0.946554  0.205272  1
  Si  Si435  1  0.098225  0.946571  0.205295  1
  Si  Si436  1  0.000000  0.000000  0.173428  1
  Si  Si437  1  0.749642  0.963784  0.143198  1
  Si  Si438  1  0.749833  0.963763  0.273818  1
  Si  Si439  1  0.499777  -0.000000  0.257235  1
  Si  Si440  1  0.249752  0.117559  0.385482  1
  Si  Si441  1  0.249854  0.117527  0.465414  1
  Si  Si442  1  0.462367  0.132521  0.428257  1
  Si  Si443  1  0.037206  0.132475  0.428267  1
  Si  Si444  1  0.598062  0.053485  0.413418  1
  Si  Si445  1  0.901310  0.053466  0.413390  1
  Si  Si446  1  0.499732  -0.000000  0.361456  1
  Si  Si447  1  0.249667  0.036270  0.344866  1
  Si  Si448  1  0.249850  0.036255  0.475487  1
  Si  Si449  1  0.000000  0.000000  0.445256  1
  Si  Si450  1  0.249953  0.196568  0.374790  1
  Si  Si451  1  0.249854  0.196564  0.317773  1
  Si  Si452  1  0.249948  0.303472  0.431900  1
  Si  Si453  1  0.250004  0.303482  0.488918  1
  Si  Si454  1  0.027096  0.250007  0.403357  1
  Si  Si455  1  0.472799  0.250005  0.309345  1
  Si  Si456  1  0.027059  0.250047  0.309338  1
  Si  Si457  1  0.472806  0.250025  0.403341  1
  Si  Si458  1  0.902642  0.286267  0.363166  1
  Si  Si459  1  0.597402  0.286251  0.363153  1
  Si  Si460  1  0.597269  0.213786  0.443537  1
  Si  Si461  1  0.902513  0.213769  0.443548  1
  Si  Si462  1  0.037399  0.367552  0.378438  1
  Si  Si463  1  0.462561  0.367522  0.378437  1
  Si  Si464  1  0.249981  0.382489  0.421218  1
  Si  Si465  1  0.249996  0.382507  0.341285  1
  Si  Si466  1  0.901548  0.446566  0.393297  1
  Si  Si467  1  0.598304  0.446549  0.393287  1
  Si  Si468  1  0.249952  0.463775  0.461837  1
  Si  Si469  1  0.249900  0.463777  0.331211  1
  Si  Si470  1  0.499919  0.499998  0.361431  1
  Si  Si471  1  0.749809  0.617553  0.385456  1
  Si  Si472  1  0.749871  0.617516  0.465385  1
  Si  Si473  1  0.962438  0.632471  0.428226  1
  Si  Si474  1  0.537268  0.632509  0.428244  1
  Si  Si475  1  0.098376  0.553471  0.413383  1
  Si  Si476  1  0.401621  0.553465  0.413387  1
  Si  Si477  1  0.000000  0.500030  0.445244  1
  Si  Si478  1  0.000000  0.500016  0.361438  1
  Si  Si479  1  0.749869  0.536260  0.344844  1
  Si  Si480  1  0.749940  0.536250  0.475468  1
  Si  Si481  1  0.499961  0.500009  0.445241  1
  Si  Si482  1  0.749813  0.696562  0.374764  1
  Si  Si483  1  0.749727  0.696551  0.317745  1
  Si  Si484  1  0.749682  0.803459  0.431887  1
  Si  Si485  1  0.749774  0.803478  0.488907  1
  Si  Si486  1  0.526899  0.749986  0.403322  1
  Si  Si487  1  0.972624  0.750001  0.497326  1
  Si  Si488  1  0.526874  0.750027  0.309325  1
  Si  Si489  1  0.972595  0.750037  0.403327  1
  Si  Si490  1  0.402329  0.786242  0.363146  1
  Si  Si491  1  0.097081  0.786275  0.363126  1
  Si  Si492  1  0.097113  0.713767  0.443505  1
  Si  Si493  1  0.402359  0.713773  0.443528  1
  Si  Si494  1  0.537169  0.867515  0.378437  1
  Si  Si495  1  0.962333  0.867563  0.378423  1
  Si  Si496  1  0.749795  0.882479  0.421210  1
  Si  Si497  1  0.749671  0.882505  0.341276  1
  Si  Si498  1  0.401473  0.946554  0.393289  1
  Si  Si499  1  0.098225  0.946571  0.393312  1
  Si  Si500  1  -0.000000  0.000000  0.361445  1
  Si  Si501  1  0.749642  0.963784  0.331215  1
  Si  Si502  1  0.749833  0.963763  0.461835  1
  Si  Si503  1  0.499777  -0.000000  0.445252  1
  Si  Si504  1  0.249752  0.117559  0.573499  1
  Si  Si505  1  0.249854  0.117527  0.653432  1
  Si  Si506  1  0.462367  0.132521  0.616274  1
  Si  Si507  1  0.037206  0.132475  0.616284  1
  Si  Si508  1  0.598062  0.053485  0.601435  1
  Si  Si509  1  0.901310  0.053466  0.601408  1
  Si  Si510  1  0.499732  -0.000000  0.549473  1
  Si  Si511  1  0.249667  0.036270  0.532883  1
  Si  Si512  1  0.249850  0.036255  0.663505  1
  Si  Si513  1  0.000000  -0.000000  0.633274  1
  Si  Si514  1  0.249953  0.196568  0.562808  1
  Si  Si515  1  0.249854  0.196564  0.505791  1
  Si  Si516  1  0.249948  0.303472  0.619918  1
  Si  Si517  1  0.027096  0.250007  0.591374  1
  Si  Si518  1  0.472799  0.250005  0.497362  1
  Si  Si519  1  0.027059  0.250047  0.497355  1
  Si  Si520  1  0.472806  0.250025  0.591359  1
  Si  Si521  1  0.902642  0.286267  0.551184  1
  Si  Si522  1  0.597402  0.286251  0.551171  1
  Si  Si523  1  0.597269  0.213786  0.631554  1
  Si  Si524  1  0.902513  0.213769  0.631566  1
  Si  Si525  1  0.037399  0.367552  0.566456  1
  Si  Si526  1  0.462561  0.367522  0.566455  1
  Si  Si527  1  0.249981  0.382489  0.609236  1
  Si  Si528  1  0.249996  0.382507  0.529303  1
  Si  Si529  1  0.901548  0.446566  0.581314  1
  Si  Si530  1  0.598304  0.446549  0.581304  1
  Si  Si531  1  0.249952  0.463775  0.649854  1
  Si  Si532  1  0.249900  0.463777  0.519228  1
  Si  Si533  1  0.499919  0.499998  0.549448  1
  Si  Si534  1  0.749809  0.617553  0.573473  1
  Si  Si535  1  0.749871  0.617516  0.653403  1
  Si  Si536  1  0.962438  0.632471  0.616243  1
  Si  Si537  1  0.537268  0.632509  0.616261  1
  Si  Si538  1  0.098376  0.553471  0.601400  1
  Si  Si539  1  0.401621  0.553465  0.601404  1
  Si  Si540  1  0.000000  0.500030  0.633261  1
  Si  Si541  1  0.000000  0.500016  0.549455  1
  Si  Si542  1  0.749869  0.536260  0.532861  1
  Si  Si543  1  0.749940  0.536250  0.663485  1
  Si  Si544  1  0.499961  0.500009  0.633259  1
  Si  Si545  1  0.749813  0.696562  0.562781  1
  Si  Si546  1  0.749727  0.696551  0.505762  1
  Si  Si547  1  0.749682  0.803459  0.619904  1
  Si  Si548  1  0.526899  0.749986  0.591340  1
  Si  Si549  1  0.526874  0.750027  0.497342  1
  Si  Si550  1  0.972595  0.750037  0.591344  1
  Si  Si551  1  0.402329  0.786242  0.551163  1
  Si  Si552  1  0.097081  0.786275  0.551144  1
  Si  Si553  1  0.097113  0.713767  0.631522  1
  Si  Si554  1  0.402359  0.713773  0.631545  1
  Si  Si555  1  0.537169  0.867515  0.566454  1
  Si  Si556  1  0.962333  0.867563  0.566440  1
  Si  Si557  1  0.749795  0.882479  0.609227  1
  Si  Si558  1  0.749671  0.882505  0.529294  1
  Si  Si559  1  0.401473  0.946554  0.581306  1
  Si  Si560  1  0.098225  0.946571  0.581330  1
  Si  Si561  1  0.000000  -0.000000  0.549463  1
  Si  Si562  1  0.749642  0.963784  0.519233  1
  Si  Si563  1  0.749833  0.963763  0.649853  1
  Si  Si564  1  0.499777  -0.000000  0.633269  1
  H  H565  1  0.249929  0.457630  0.096651  1
  H  H566  1  0.749734  0.957637  0.096655  1
  H  H567  1  0.249763  0.042402  0.112613  1
  H  H568  1  0.249838  0.203258  0.142831  1
  H  H569  1  0.945074  0.263373  0.130304  1
  H  H570  1  0.554922  0.263338  0.130296  1
  H  H571  1  0.249997  0.348006  0.111049  1
  H  H572  1  0.749925  0.542397  0.112593  1
  H  H573  1  0.749747  0.703244  0.142802  1
  H  H574  1  0.444824  0.763363  0.130284  1
  H  H575  1  0.054678  0.763329  0.130270  1
  H  H576  1  0.749859  0.848000  0.111043  1
  H  H577  1  0.249718  0.152040  0.695644  1
  H  H578  1  0.250104  0.296786  0.663860  1
  H  H579  1  0.554816  0.236670  0.676400  1
  H  H580  1  0.944934  0.236718  0.676403  1
  H  H581  1  0.249929  0.457630  0.694086  1
  H  H582  1  0.749805  0.652027  0.695615  1
  H  H583  1  0.749683  0.796780  0.663849  1
  H  H584  1  0.054659  0.736664  0.676365  1
  H  H585  1  0.444789  0.736710  0.676385  1
  H  H586  1  0.749734  0.957637  0.694090  1
  H  H587  1  0.249763  0.042402  0.710048  1
  H  H588  1  0.749925  0.542397  0.710028  1
