# generated using pymatgen
data_Si7H2O15
_symmetry_space_group_name_H-M   'P 1'
_cell_length_a   12.61833605
_cell_length_b   33.27032509
_cell_length_c   43.31130149
_cell_angle_alpha   112.29219165
_cell_angle_beta   120.00000000
_cell_angle_gamma   79.06676341
_symmetry_Int_Tables_number   1
_chemical_formula_structural   Si7H2O15
_chemical_formula_sum   'Si84 H24 O180'
_cell_volume   14569.8625596
_cell_formula_units_Z   12
loop_
 _symmetry_equiv_pos_site_id
 _symmetry_equiv_pos_as_xyz
  1  'x, y, z'
loop_
 _atom_site_type_symbol
 _atom_site_label
 _atom_site_symmetry_multiplicity
 _atom_site_fract_x
 _atom_site_fract_y
 _atom_site_fract_z
 _atom_site_occupancy
  O  O1  1  0.916814  0.369094  0.162386  1
  O  O2  1  0.541932  0.368998  0.162262  1
  O  O3  1  0.030664  0.583423  0.193573  1
  O  O4  1  0.318838  0.583506  0.193709  1
  O  O5  1  0.364356  0.917159  0.193522  1
  O  O6  1  0.652368  0.917059  0.193509  1
  O  O7  1  0.249668  0.702219  0.162748  1
  O  O8  1  0.874710  0.702249  0.162804  1
  O  O9  1  0.107472  0.704829  0.189942  1
  O  O10  1  0.582848  0.035677  0.162235  1
  O  O11  1  0.207996  0.035570  0.162411  1
  O  O12  1  0.697208  0.250458  0.193001  1
  O  O13  1  0.985227  0.250515  0.192946  1
  O  O14  1  0.440985  0.038101  0.189446  1
  O  O15  1  0.774685  0.371924  0.189583  1
  O  O16  1  0.317050  0.250434  0.289635  1
  O  O17  1  0.697607  0.250268  0.289555  1
  O  O18  1  0.666642  0.166595  0.277179  1
  O  O19  1  0.388832  0.166740  0.277243  1
  O  O20  1  0.356214  0.000000  0.212863  1
  O  O21  1  0.542237  0.226864  0.303127  1
  O  O22  1  0.892093  0.295067  0.329827  1
  O  O23  1  0.215338  0.295051  0.329795  1
  O  O24  1  0.560028  0.112639  0.280356  1
  O  O25  1  0.689352  0.333251  0.316269  1
  O  O26  1  0.643955  0.000000  0.212745  1
  O  O27  1  0.976996  0.333140  0.400083  1
  O  O28  1  0.124872  0.297771  0.372074  1
  O  O29  1  0.208248  0.035537  0.344475  1
  O  O30  1  0.985496  0.250202  0.373431  1
  O  O31  1  0.316674  0.250280  0.373449  1
  O  O32  1  0.347351  0.082943  0.342738  1
  O  O33  1  0.016324  0.082872  0.342953  1
  O  O34  1  0.388591  0.166650  0.358121  1
  O  O35  1  0.944391  0.166545  0.358154  1
  O  O36  1  0.915287  0.226858  0.411856  1
  O  O37  1  0.541951  0.226873  0.411896  1
  O  O38  1  0.417570  0.106523  0.304408  1
  O  O39  1  0.791124  0.106393  0.304401  1
  O  O40  1  0.773292  0.220664  0.342751  1
  O  O41  1  0.453278  0.220780  0.342815  1
  O  O42  1  0.559566  0.112560  0.373507  1
  O  O43  1  0.879704  0.112595  0.373561  1
  O  O44  1  0.333232  0.333236  0.400050  1
  O  O45  1  0.681003  0.416209  0.342955  1
  O  O46  1  0.349787  0.416449  0.343011  1
  O  O47  1  0.721865  0.499930  0.358531  1
  O  O48  1  0.541446  0.368769  0.344280  1
  O  O49  1  0.893106  0.445866  0.373617  1
  O  O50  1  0.213471  0.445951  0.373773  1
  O  O51  1  0.332939  0.333455  0.316291  1
  O  O52  1  0.277906  0.500164  0.358655  1
  O  O53  1  0.022394  0.666440  0.212974  1
  O  O54  1  0.310037  0.666490  0.212989  1
  O  O55  1  0.916814  0.369094  0.453775  1
  O  O56  1  0.541932  0.368998  0.453651  1
  O  O57  1  0.030664  0.583423  0.484962  1
  O  O58  1  0.318838  0.583506  0.485098  1
  O  O59  1  0.349669  0.416187  0.426853  1
  O  O60  1  0.968969  0.416084  0.426707  1
  O  O61  1  0.225149  0.628239  0.236179  1
  O  O62  1  0.774324  0.371342  0.386539  1
  O  O63  1  0.450969  0.371576  0.386552  1
  O  O64  1  0.277784  0.499861  0.439531  1
  O  O65  1  -0.000000  0.499766  0.439384  1
  O  O66  1  0.249095  0.560186  0.412631  1
  O  O67  1  0.875442  0.560059  0.412462  1
  O  O68  1  0.124251  0.439664  0.413246  1
  O  O69  1  0.106662  0.553996  0.436637  1
  O  O70  1  0.364356  0.917159  0.484911  1
  O  O71  1  0.652368  0.917059  0.484898  1
  O  O72  1  0.558973  0.961909  0.236030  1
  O  O73  1  -0.000000  -0.000000  0.316624  1
  O  O74  1  0.355909  -0.000000  0.316473  1
  O  O75  1  0.416729  0.964424  0.263197  1
  O  O76  1  0.791714  0.964538  0.263227  1
  O  O77  1  0.249668  0.702219  0.454137  1
  O  O78  1  0.874710  0.702249  0.454193  1
  O  O79  1  0.983175  0.916879  0.290040  1
  O  O80  1  0.363902  0.916872  0.289940  1
  O  O81  1  0.302165  0.749518  0.232476  1
  O  O82  1  0.014299  0.749491  0.232566  1
  O  O83  1  0.558620  0.961568  0.330162  1
  O  O84  1  0.882017  0.961777  0.330261  1
  O  O85  1  0.107472  0.704829  0.481331  1
  O  O86  1  0.333016  0.833216  0.277679  1
  O  O87  1  0.055311  0.833231  0.277740  1
  O  O88  1  0.208471  0.893442  0.303505  1
  O  O89  1  0.226449  0.779199  0.280863  1
  O  O90  1  0.000000  0.000000  0.400430  1
  O  O91  1  0.749858  0.297830  0.262789  1
  O  O92  1  0.124949  0.297742  0.262741  1
  O  O93  1  0.582848  0.035677  0.453624  1
  O  O94  1  0.207996  0.035570  0.453799  1
  O  O95  1  0.697208  0.250458  0.484390  1
  O  O96  1  0.985227  0.250515  0.484335  1
  O  O97  1  0.635548  0.082921  0.231938  1
  O  O98  1  0.016155  0.083137  0.426861  1
  O  O99  1  0.635587  0.083102  0.426796  1
  O  O100  1  0.347813  0.083062  0.231987  1
  O  O101  1  0.892123  0.295082  0.235594  1
  O  O102  1  0.440985  0.038101  0.480835  1
  O  O103  1  0.440882  0.038451  0.386614  1
  O  O104  1  0.117723  0.038271  0.386767  1
  O  O105  1  0.944131  0.166792  0.439133  1
  O  O106  1  0.666379  0.166763  0.439095  1
  O  O107  1  0.790729  0.106584  0.413187  1
  O  O108  1  0.773031  0.220870  0.436031  1
  O  O109  1  0.643415  0.000000  0.400294  1
  O  O110  1  0.977246  0.333587  0.212665  1
  O  O111  1  0.082951  0.631021  0.263365  1
  O  O112  1  0.458377  0.631213  0.372838  1
  O  O113  1  0.457937  0.631159  0.263466  1
  O  O114  1  0.318733  0.583886  0.374264  1
  O  O115  1  0.650024  0.583792  0.290247  1
  O  O116  1  0.650140  0.583644  0.374159  1
  O  O117  1  0.030787  0.583905  0.290406  1
  O  O118  1  0.969266  0.416638  0.232231  1
  O  O119  1  0.681003  0.416500  0.232090  1
  O  O120  1  0.225508  0.628585  0.330544  1
  O  O121  1  0.548703  0.628425  0.330518  1
  O  O122  1  0.774685  0.371924  0.480972  1
  O  O123  1  -0.000000  0.500259  0.277806  1
  O  O124  1  0.722049  0.500137  0.277642  1
  O  O125  1  0.875466  0.560369  0.303881  1
  O  O126  1  0.750617  0.439854  0.304554  1
  O  O127  1  0.124453  0.439990  0.304720  1
  O  O128  1  0.106610  0.554216  0.343554  1
  O  O129  1  0.786351  0.554098  0.343383  1
  O  O130  1  0.893198  0.446004  0.280559  1
  O  O131  1  0.689643  0.333476  0.212564  1
  O  O132  1  0.666667  0.666658  0.400715  1
  O  O133  1  0.791536  0.964382  0.372498  1
  O  O134  1  0.874734  0.702242  0.344824  1
  O  O135  1  0.651912  0.917001  0.373962  1
  O  O136  1  0.983813  0.917191  0.374075  1
  O  O137  1  0.014270  0.749857  0.343513  1
  O  O138  1  0.682802  0.749676  0.427287  1
  O  O139  1  0.682884  0.749688  0.343397  1
  O  O140  1  0.302265  0.749838  0.427426  1
  O  O141  1  0.107550  0.705064  0.387141  1
  O  O142  1  0.784344  0.704970  0.387127  1
  O  O143  1  0.611176  0.833359  0.439638  1
  O  O144  1  0.055535  0.833496  0.358796  1
  O  O145  1  0.610771  0.833316  0.358624  1
  O  O146  1  0.333347  0.833491  0.439711  1
  O  O147  1  0.582119  0.893513  0.412381  1
  O  O148  1  0.209126  0.893643  0.412444  1
  O  O149  1  0.084390  0.773180  0.305060  1
  O  O150  1  0.457644  0.773232  0.413803  1
  O  O151  1  0.457531  0.773087  0.304929  1
  O  O152  1  0.440168  0.887450  0.436560  1
  O  O153  1  0.439652  0.887423  0.343230  1
  O  O154  1  0.119999  0.887439  0.343313  1
  O  O155  1  0.226574  0.779337  0.374178  1
  O  O156  1  0.546364  0.779258  0.374059  1
  O  O157  1  0.310329  0.666879  0.400750  1
  O  O158  1  0.666317  0.666748  0.316911  1
  O  O159  1  0.022869  0.666895  0.316914  1
  O  O160  1  0.356214  0.000000  0.504252  1
  O  O161  1  0.643955  0.000000  0.504134  1
  O  O162  1  0.022394  0.666440  0.504363  1
  O  O163  1  0.310037  0.666490  0.504378  1
  O  O164  1  0.225149  0.628239  0.527568  1
  O  O165  1  0.558973  0.961909  0.527419  1
  O  O166  1  0.416729  0.964424  0.554586  1
  O  O167  1  0.791714  0.964538  0.554616  1
  O  O168  1  0.302165  0.749518  0.523865  1
  O  O169  1  0.014299  0.749491  0.523955  1
  O  O170  1  0.749858  0.297830  0.554178  1
  O  O171  1  0.124949  0.297742  0.554130  1
  O  O172  1  0.635548  0.082921  0.523327  1
  O  O173  1  0.347813  0.083062  0.523376  1
  O  O174  1  0.892123  0.295082  0.526983  1
  O  O175  1  0.977246  0.333587  0.504054  1
  O  O176  1  0.082951  0.631021  0.554754  1
  O  O177  1  0.457937  0.631159  0.554855  1
  O  O178  1  0.969266  0.416638  0.523619  1
  O  O179  1  0.681003  0.416500  0.523479  1
  O  O180  1  0.689643  0.333476  0.503952  1
  Si  Si181  1  0.244314  0.705869  0.198937  1
  Si  Si182  1  -0.000000  0.705870  0.198994  1
  Si  Si183  1  0.577823  0.039225  0.198459  1
  Si  Si184  1  0.334120  0.039293  0.198546  1
  Si  Si185  1  0.911570  0.372983  0.198643  1
  Si  Si186  1  0.667655  0.372875  0.198537  1
  Si  Si187  1  0.755225  0.293998  0.298350  1
  Si  Si188  1  0.666287  0.116866  0.272525  1
  Si  Si189  1  0.422682  0.116998  0.272560  1
  Si  Si190  1  0.667021  0.216370  0.301494  1
  Si  Si191  1  0.422351  0.216493  0.301561  1
  Si  Si192  1  0.245403  0.294042  0.298367  1
  Si  Si193  1  0.333904  0.039356  0.347007  1
  Si  Si194  1  0.422314  0.116881  0.343774  1
  Si  Si195  1  0.245320  0.293970  0.369367  1
  Si  Si196  1  0.422124  0.216387  0.372474  1
  Si  Si197  1  0.910574  0.216314  0.372462  1
  Si  Si198  1  0.087792  0.039246  0.347168  1
  Si  Si199  1  0.910887  0.116810  0.343844  1
  Si  Si200  1  0.998978  0.293937  0.369383  1
  Si  Si201  1  0.244006  0.549880  0.373219  1
  Si  Si202  1  0.755431  0.549703  0.373084  1
  Si  Si203  1  0.667432  0.372484  0.346979  1
  Si  Si204  1  0.420943  0.372699  0.346993  1
  Si  Si205  1  0.244457  0.450376  0.344100  1
  Si  Si206  1  0.755688  0.450204  0.343971  1
  Si  Si207  1  0.332149  0.627221  0.227187  1
  Si  Si208  1  0.911231  0.372453  0.418010  1
  Si  Si209  1  0.421169  0.372571  0.418028  1
  Si  Si210  1  0.244342  0.450146  0.414993  1
  Si  Si211  1  -0.000000  0.549586  0.444334  1
  Si  Si212  1  0.244017  0.549648  0.444455  1
  Si  Si213  1  -0.000000  0.450078  0.414854  1
  Si  Si214  1  0.088256  0.627126  0.227108  1
  Si  Si215  1  0.244418  0.706145  0.418622  1
  Si  Si216  1  0.754324  0.706023  0.418580  1
  Si  Si217  1  0.422147  0.960829  0.227032  1
  Si  Si218  1  0.665914  0.960778  0.226979  1
  Si  Si219  1  0.244314  0.705869  0.490326  1
  Si  Si220  1  -0.000000  0.705870  0.490382  1
  Si  Si221  1  0.333362  0.883013  0.301938  1
  Si  Si222  1  0.332649  0.783493  0.273037  1
  Si  Si223  1  0.089165  0.783501  0.273097  1
  Si  Si224  1  0.088749  0.883011  0.302002  1
  Si  Si225  1  0.912094  0.960637  0.298797  1
  Si  Si226  1  0.421777  0.960523  0.298686  1
  Si  Si227  1  0.910707  0.117017  0.414846  1
  Si  Si228  1  0.755244  0.294074  0.226575  1
  Si  Si229  1  -0.000000  0.294095  0.226566  1
  Si  Si230  1  0.577823  0.039225  0.489848  1
  Si  Si231  1  0.087555  0.039429  0.418220  1
  Si  Si232  1  0.577690  0.039480  0.418090  1
  Si  Si233  1  0.334120  0.039293  0.489935  1
  Si  Si234  1  0.910322  0.216533  0.443789  1
  Si  Si235  1  0.666790  0.216506  0.443817  1
  Si  Si236  1  0.665918  0.116992  0.414785  1
  Si  Si237  1  0.911570  0.372983  0.490032  1
  Si  Si238  1  0.667655  0.372875  0.489926  1
  Si  Si239  1  0.755422  0.549863  0.302151  1
  Si  Si240  1  -0.000000  0.549951  0.302297  1
  Si  Si241  1  -0.000000  0.450445  0.272861  1
  Si  Si242  1  0.755822  0.450355  0.272736  1
  Si  Si243  1  0.332353  0.627537  0.370138  1
  Si  Si244  1  0.578536  0.627424  0.299046  1
  Si  Si245  1  0.578806  0.627345  0.370100  1
  Si  Si246  1  0.088607  0.627509  0.299077  1
  Si  Si247  1  0.577478  0.783607  0.415341  1
  Si  Si248  1  0.577387  0.783577  0.344344  1
  Si  Si249  1  0.665526  0.960617  0.369766  1
  Si  Si250  1  0.912057  0.960763  0.369859  1
  Si  Si251  1  0.000000  0.706134  0.347561  1
  Si  Si252  1  0.754281  0.706027  0.347538  1
  Si  Si253  1  0.089280  0.783716  0.344476  1
  Si  Si254  1  0.577467  0.883105  0.444324  1
  Si  Si255  1  0.089084  0.883224  0.373083  1
  Si  Si256  1  0.576958  0.883080  0.372943  1
  Si  Si257  1  0.333869  0.883197  0.444350  1
  Si  Si258  1  0.332886  0.783696  0.415445  1
  Si  Si259  1  0.332149  0.627221  0.518576  1
  Si  Si260  1  0.088256  0.627126  0.518497  1
  Si  Si261  1  0.422147  0.960829  0.518420  1
  Si  Si262  1  0.665914  0.960778  0.518368  1
  Si  Si263  1  0.755244  0.294074  0.517964  1
  Si  Si264  1  -0.000000  0.294095  0.517955  1
  H  H265  1  0.916814  0.369094  0.141607  1
  H  H266  1  0.541932  0.368998  0.141482  1
  H  H267  1  0.030664  0.583423  0.172794  1
  H  H268  1  0.318838  0.583506  0.172930  1
  H  H269  1  0.364356  0.917159  0.172742  1
  H  H270  1  0.652368  0.917059  0.172729  1
  H  H271  1  0.249668  0.702219  0.141968  1
  H  H272  1  0.874710  0.702249  0.142024  1
  H  H273  1  0.582848  0.035677  0.141455  1
  H  H274  1  0.207996  0.035570  0.141631  1
  H  H275  1  0.697208  0.250458  0.172221  1
  H  H276  1  0.985227  0.250515  0.172167  1
  H  H277  1  0.416729  0.964424  0.575366  1
  H  H278  1  0.791714  0.964538  0.575396  1
  H  H279  1  0.302165  0.749518  0.544645  1
  H  H280  1  0.014299  0.749491  0.544735  1
  H  H281  1  0.749858  0.297830  0.574958  1
  H  H282  1  0.124949  0.297742  0.574910  1
  H  H283  1  0.635548  0.082921  0.544107  1
  H  H284  1  0.347813  0.083062  0.544156  1
  H  H285  1  0.082951  0.631021  0.575534  1
  H  H286  1  0.457937  0.631159  0.575635  1
  H  H287  1  0.969266  0.416638  0.544399  1
  H  H288  1  0.681003  0.416500  0.544259  1
