# generated using pymatgen
data_Si18H2O37
_symmetry_space_group_name_H-M   'P 1'
_cell_length_a   18.36622823
_cell_length_b   9.24612979
_cell_length_c   49.36375628
_cell_angle_alpha   90.00000000
_cell_angle_beta   90.00000000
_cell_angle_gamma   90.00000000
_symmetry_Int_Tables_number   1
_chemical_formula_structural   Si18H2O37
_chemical_formula_sum   'Si72 H8 O148'
_cell_volume   8382.78179696
_cell_formula_units_Z   4
loop_
 _symmetry_equiv_pos_site_id
 _symmetry_equiv_pos_as_xyz
  1  'x, y, z'
loop_
 _atom_site_type_symbol
 _atom_site_label
 _atom_site_symmetry_multiplicity
 _atom_site_fract_x
 _atom_site_fract_y
 _atom_site_fract_z
 _atom_site_occupancy
  O  O1  1  0.130116  0.000000  0.350252  1
  O  O2  1  0.869744  -0.000000  0.164128  1
  O  O3  1  0.369745  -0.000000  0.261045  1
  O  O4  1  0.630115  -0.000000  0.164121  1
  O  O5  1  0.130115  0.000000  0.261051  1
  O  O6  1  0.369745  -0.000000  0.350247  1
  O  O7  1  0.079498  0.112235  0.305652  1
  O  O8  1  0.749928  0.112238  0.182961  1
  O  O9  1  0.420362  0.112212  0.305645  1
  O  O10  1  0.249931  0.887974  0.369086  1
  O  O11  1  0.920362  0.888001  0.119527  1
  O  O12  1  0.249928  0.887990  0.242211  1
  O  O13  1  0.579498  0.887978  0.119521  1
  O  O14  1  0.880780  0.851306  0.354364  1
  O  O15  1  0.880773  0.851327  0.256940  1
  O  O16  1  0.619079  0.851300  0.256933  1
  O  O17  1  0.619086  0.851294  0.354357  1
  O  O18  1  0.119079  0.148926  0.168239  1
  O  O19  1  0.380773  0.148899  0.168233  1
  O  O20  1  0.842886  0.989113  0.397504  1
  O  O21  1  0.996666  0.989129  0.271053  1
  O  O22  1  0.656972  0.989112  0.213792  1
  O  O23  1  0.503194  0.989095  0.340244  1
  O  O24  1  0.842880  0.989135  0.213797  1
  O  O25  1  0.996670  0.989114  0.340250  1
  O  O26  1  0.656979  0.989105  0.397499  1
  O  O27  1  0.503191  0.989103  0.271047  1
  O  O28  1  0.003191  0.011120  0.154126  1
  O  O29  1  0.342879  0.011093  0.211374  1
  O  O30  1  0.156972  0.011115  0.211380  1
  O  O31  1  0.496666  0.011095  0.154120  1
  O  O32  1  0.749934  0.815797  0.376774  1
  O  O33  1  0.940995  0.815828  0.305651  1
  O  O34  1  0.749927  0.815813  0.234522  1
  O  O35  1  0.558865  0.815803  0.305645  1
  O  O36  1  0.058865  0.184409  0.119527  1
  O  O37  1  0.249928  0.184416  0.190650  1
  O  O38  1  0.440995  0.184385  0.119521  1
  O  O39  1  0.427493  0.500078  0.371741  1
  O  O40  1  0.072366  0.500109  0.239556  1
  O  O41  1  0.572366  0.500115  0.185617  1
  O  O42  1  0.427488  0.500089  0.239549  1
  O  O43  1  0.927489  0.500136  0.185624  1
  O  O44  1  0.072371  0.500095  0.371749  1
  O  O45  1  0.369904  0.275192  0.397240  1
  O  O46  1  0.129957  0.275224  0.214057  1
  O  O47  1  0.503864  0.275207  0.164180  1
  O  O48  1  0.369902  0.275198  0.214051  1
  O  O49  1  0.995990  0.275232  0.164187  1
  O  O50  1  0.129960  0.275202  0.397246  1
  O  O51  1  0.003870  0.724999  0.350311  1
  O  O52  1  0.869901  0.725028  0.211122  1
  O  O53  1  0.495989  0.724992  0.260985  1
  O  O54  1  0.629958  0.725003  0.211115  1
  O  O55  1  0.003864  0.725018  0.260992  1
  O  O56  1  0.495995  0.724985  0.350305  1
  O  O57  1  0.442022  0.232748  0.353580  1
  O  O58  1  0.057839  0.232782  0.257717  1
  O  O59  1  0.621161  0.232769  0.191023  1
  O  O60  1  0.442021  0.232760  0.257711  1
  O  O61  1  0.878691  0.232789  0.191030  1
  O  O62  1  0.057841  0.232766  0.353587  1
  O  O63  1  0.121166  0.767441  0.377154  1
  O  O64  1  0.942020  0.767465  0.167462  1
  O  O65  1  0.378691  0.767436  0.234142  1
  O  O66  1  0.557839  0.767444  0.167455  1
  O  O67  1  0.121162  0.767459  0.234149  1
  O  O68  1  0.378696  0.767426  0.377148  1
  O  O69  1  0.504691  0.315623  0.396940  1
  O  O70  1  0.995172  0.315640  0.396947  1
  O  O71  1  0.995169  0.315653  0.214357  1
  O  O72  1  0.504688  0.315634  0.214350  1
  O  O73  1  0.004688  0.684590  0.210822  1
  O  O74  1  0.495168  0.684572  0.210815  1
  O  O75  1  0.630116  -0.000000  0.447169  1
  O  O76  1  0.869744  0.000000  0.536377  1
  O  O77  1  0.369745  0.000000  0.633294  1
  O  O78  1  0.630115  0.000000  0.536370  1
  O  O79  1  0.130115  0.000000  0.633300  1
  O  O80  1  0.869746  -0.000000  0.447175  1
  O  O81  1  0.749930  0.112223  0.428335  1
  O  O82  1  0.079498  0.112235  0.677901  1
  O  O83  1  0.749928  0.112238  0.555211  1
  O  O84  1  0.420362  0.112212  0.677895  1
  O  O85  1  0.920362  0.888001  0.491776  1
  O  O86  1  0.249928  0.887990  0.614460  1
  O  O87  1  0.579498  0.887978  0.491770  1
  O  O88  1  0.880773  0.851327  0.629189  1
  O  O89  1  0.619079  0.851300  0.629182  1
  O  O90  1  0.119087  0.148905  0.443064  1
  O  O91  1  0.119079  0.148926  0.540488  1
  O  O92  1  0.380773  0.148899  0.540482  1
  O  O93  1  0.380781  0.148893  0.443058  1
  O  O94  1  0.996666  0.989129  0.643302  1
  O  O95  1  0.656972  0.989112  0.586041  1
  O  O96  1  0.842880  0.989135  0.586047  1
  O  O97  1  0.503191  0.989103  0.643296  1
  O  O98  1  0.156979  0.011094  0.399922  1
  O  O99  1  0.003191  0.011120  0.526375  1
  O  O100  1  0.342879  0.011093  0.583624  1
  O  O101  1  0.496669  0.011088  0.457171  1
  O  O102  1  0.156972  0.011115  0.583630  1
  O  O103  1  0.003195  0.011106  0.457178  1
  O  O104  1  0.342886  0.011083  0.399917  1
  O  O105  1  0.496666  0.011095  0.526369  1
  O  O106  1  0.940995  0.815828  0.677900  1
  O  O107  1  0.749927  0.815813  0.606772  1
  O  O108  1  0.558865  0.815803  0.677894  1
  O  O109  1  0.249934  0.184399  0.420647  1
  O  O110  1  0.058865  0.184409  0.491776  1
  O  O111  1  0.249928  0.184416  0.562899  1
  O  O112  1  0.440995  0.184385  0.491770  1
  O  O113  1  0.927493  0.500121  0.425681  1
  O  O114  1  0.072366  0.500109  0.611805  1
  O  O115  1  0.572366  0.500115  0.557866  1
  O  O116  1  0.427488  0.500089  0.611798  1
  O  O117  1  0.927489  0.500136  0.557873  1
  O  O118  1  0.572371  0.500106  0.425673  1
  O  O119  1  0.995995  0.275215  0.447116  1
  O  O120  1  0.129957  0.275224  0.586306  1
  O  O121  1  0.503864  0.275207  0.536430  1
  O  O122  1  0.369902  0.275198  0.586300  1
  O  O123  1  0.995990  0.275232  0.536436  1
  O  O124  1  0.503870  0.275201  0.447110  1
  O  O125  1  0.629959  0.724997  0.400175  1
  O  O126  1  0.869901  0.725028  0.583371  1
  O  O127  1  0.495989  0.724992  0.633234  1
  O  O128  1  0.629958  0.725003  0.583365  1
  O  O129  1  0.003864  0.725018  0.633241  1
  O  O130  1  0.869904  0.725007  0.400182  1
  O  O131  1  0.878696  0.232773  0.420273  1
  O  O132  1  0.057839  0.232782  0.629966  1
  O  O133  1  0.621161  0.232769  0.563272  1
  O  O134  1  0.442021  0.232760  0.629960  1
  O  O135  1  0.878691  0.232789  0.563279  1
  O  O136  1  0.621167  0.232758  0.420267  1
  O  O137  1  0.557840  0.767433  0.443835  1
  O  O138  1  0.942020  0.767465  0.539711  1
  O  O139  1  0.378691  0.767436  0.606392  1
  O  O140  1  0.557839  0.767444  0.539705  1
  O  O141  1  0.121162  0.767459  0.606398  1
  O  O142  1  0.942022  0.767452  0.443842  1
  O  O143  1  0.995169  0.315653  0.586606  1
  O  O144  1  0.504688  0.315634  0.586599  1
  O  O145  1  0.495172  0.684560  0.400474  1
  O  O146  1  0.004691  0.684577  0.400482  1
  O  O147  1  0.004688  0.684590  0.583071  1
  O  O148  1  0.495168  0.684572  0.583065  1
  Si  Si149  1  0.065544  0.334394  0.379049  1
  Si  Si150  1  0.947132  0.334449  0.188164  1
  Si  Si151  1  0.434317  0.334387  0.232249  1
  Si  Si152  1  0.552723  0.334428  0.188157  1
  Si  Si153  1  0.065540  0.334409  0.232255  1
  Si  Si154  1  0.434320  0.334377  0.379042  1
  Si  Si155  1  0.447136  0.665766  0.374282  1
  Si  Si156  1  0.052723  0.665798  0.237015  1
  Si  Si157  1  0.565541  0.665816  0.192918  1
  Si  Si158  1  0.447131  0.665776  0.237008  1
  Si  Si159  1  0.934317  0.665837  0.192924  1
  Si  Si160  1  0.052727  0.665781  0.374288  1
  Si  Si161  1  0.665834  0.843224  0.381162  1
  Si  Si162  1  0.952786  0.843206  0.336937  1
  Si  Si163  1  0.834025  0.843254  0.230135  1
  Si  Si164  1  0.547073  0.843194  0.274360  1
  Si  Si165  1  0.665829  0.843233  0.230129  1
  Si  Si166  1  0.952781  0.843223  0.274366  1
  Si  Si167  1  0.834030  0.843232  0.381167  1
  Si  Si168  1  0.547079  0.843190  0.336931  1
  Si  Si169  1  0.165829  0.156995  0.195043  1
  Si  Si170  1  0.452781  0.157000  0.150806  1
  Si  Si171  1  0.334025  0.156974  0.195038  1
  Si  Si172  1  0.047073  0.157028  0.150813  1
  Si  Si173  1  0.066030  0.088593  0.274463  1
  Si  Si174  1  0.666097  0.088500  0.187979  1
  Si  Si175  1  0.433830  0.088561  0.336834  1
  Si  Si176  1  0.833758  0.088518  0.187985  1
  Si  Si177  1  0.066033  0.088582  0.336840  1
  Si  Si178  1  0.433829  0.088573  0.274457  1
  Si  Si179  1  0.166101  0.911709  0.374109  1
  Si  Si180  1  0.933828  0.911651  0.150715  1
  Si  Si181  1  0.333758  0.911708  0.237188  1
  Si  Si182  1  0.166096  0.911728  0.237193  1
  Si  Si183  1  0.333762  0.911697  0.374104  1
  Si  Si184  1  0.566031  0.911630  0.150709  1
  Si  Si185  1  0.552728  0.334418  0.423133  1
  Si  Si186  1  0.947132  0.334449  0.560413  1
  Si  Si187  1  0.434317  0.334387  0.604498  1
  Si  Si188  1  0.552723  0.334428  0.560406  1
  Si  Si189  1  0.065540  0.334409  0.604504  1
  Si  Si190  1  0.947135  0.334433  0.423140  1
  Si  Si191  1  0.934320  0.665822  0.418380  1
  Si  Si192  1  0.052723  0.665798  0.609265  1
  Si  Si193  1  0.565541  0.665816  0.565167  1
  Si  Si194  1  0.447131  0.665776  0.609257  1
  Si  Si195  1  0.934317  0.665837  0.565173  1
  Si  Si196  1  0.565543  0.665808  0.418373  1
  Si  Si197  1  0.834025  0.843254  0.602384  1
  Si  Si198  1  0.547073  0.843194  0.646609  1
  Si  Si199  1  0.665829  0.843233  0.602378  1
  Si  Si200  1  0.952781  0.843223  0.646615  1
  Si  Si201  1  0.334031  0.156965  0.416254  1
  Si  Si202  1  0.047079  0.157012  0.460490  1
  Si  Si203  1  0.165829  0.156995  0.567292  1
  Si  Si204  1  0.452781  0.157000  0.523055  1
  Si  Si205  1  0.334025  0.156974  0.567287  1
  Si  Si206  1  0.047073  0.157028  0.523062  1
  Si  Si207  1  0.165834  0.156973  0.416260  1
  Si  Si208  1  0.452787  0.156997  0.460484  1
  Si  Si209  1  0.833763  0.088501  0.423317  1
  Si  Si210  1  0.066030  0.088593  0.646712  1
  Si  Si211  1  0.666097  0.088500  0.560229  1
  Si  Si212  1  0.833758  0.088518  0.560234  1
  Si  Si213  1  0.666101  0.088489  0.423312  1
  Si  Si214  1  0.433829  0.088573  0.646706  1
  Si  Si215  1  0.933828  0.911651  0.522965  1
  Si  Si216  1  0.333758  0.911708  0.609437  1
  Si  Si217  1  0.566032  0.911620  0.460582  1
  Si  Si218  1  0.166096  0.911728  0.609442  1
  Si  Si219  1  0.933830  0.911641  0.460588  1
  Si  Si220  1  0.566031  0.911630  0.522958  1
  H  H221  1  0.920362  0.888001  0.101295  1
  H  H222  1  0.579498  0.887978  0.101289  1
  H  H223  1  0.058865  0.184409  0.101295  1
  H  H224  1  0.440995  0.184385  0.101289  1
  H  H225  1  0.079498  0.112235  0.696133  1
  H  H226  1  0.420362  0.112212  0.696127  1
  H  H227  1  0.940995  0.815828  0.696132  1
  H  H228  1  0.558865  0.815803  0.696126  1
