# generated using pymatgen
data_Si13H2O27
_symmetry_space_group_name_H-M   'P 1'
_cell_length_a   5.05415245
_cell_length_b   14.13088993
_cell_length_c   42.02071963
_cell_angle_alpha   100.96000000
_cell_angle_beta   90.00000000
_cell_angle_gamma   90.00000000
_symmetry_Int_Tables_number   1
_chemical_formula_structural   Si13H2O27
_chemical_formula_sum   'Si26 H4 O54'
_cell_volume   2946.36629983
_cell_formula_units_Z   2
loop_
 _symmetry_equiv_pos_site_id
 _symmetry_equiv_pos_as_xyz
  1  'x, y, z'
loop_
 _atom_site_type_symbol
 _atom_site_label
 _atom_site_symmetry_multiplicity
 _atom_site_fract_x
 _atom_site_fract_y
 _atom_site_fract_z
 _atom_site_occupancy
  O  O1  1  0.261100  0.294927  0.190557  1
  O  O2  1  0.761088  0.704959  0.299618  1
  O  O3  1  0.477716  0.136713  0.197438  1
  O  O4  1  0.978378  0.863078  0.292799  1
  O  O5  1  0.480239  0.854115  0.297892  1
  O  O6  1  0.979553  0.145957  0.192331  1
  O  O7  1  0.268006  0.141996  0.142618  1
  O  O8  1  0.768215  0.857804  0.347609  1
  O  O9  1  0.253467  0.495911  0.212537  1
  O  O10  1  0.753497  0.504019  0.277669  1
  O  O11  1  0.972953  0.378035  0.236097  1
  O  O12  1  0.470239  0.621804  0.254321  1
  O  O13  1  0.969120  0.621914  0.247216  1
  O  O14  1  0.471786  0.377862  0.242773  1
  O  O15  1  0.267066  0.692384  0.209241  1
  O  O16  1  0.766935  0.307565  0.281026  1
  O  O17  1  0.261867  0.008528  0.289600  1
  O  O18  1  0.762030  0.991439  0.200633  1
  O  O19  1  0.271239  0.861058  0.243139  1
  O  O20  1  0.770760  0.138902  0.247100  1
  O  O21  1  0.500891  0.835148  0.188518  1
  O  O22  1  -0.000000  0.164638  0.301757  1
  O  O23  1  0.499560  0.169395  0.298831  1
  O  O24  1  -0.000000  0.830690  0.191378  1
  O  O25  1  0.276589  0.105306  0.346325  1
  O  O26  1  0.776709  0.894592  0.143911  1
  O  O27  1  0.985291  0.009015  0.378072  1
  O  O28  1  0.261100  0.294927  0.457931  1
  O  O29  1  0.761088  0.704959  0.566993  1
  O  O30  1  0.477716  0.136713  0.464813  1
  O  O31  1  0.978378  0.863078  0.560174  1
  O  O32  1  0.480239  0.854115  0.565266  1
  O  O33  1  0.979553  0.145957  0.459706  1
  O  O34  1  0.268006  0.141996  0.409992  1
  O  O35  1  0.768215  0.857804  0.614983  1
  O  O36  1  0.253467  0.495911  0.479912  1
  O  O37  1  0.753497  0.504019  0.545044  1
  O  O38  1  0.972953  0.378035  0.503472  1
  O  O39  1  0.470239  0.621804  0.521696  1
  O  O40  1  0.969120  0.621914  0.514590  1
  O  O41  1  0.471786  0.377862  0.510148  1
  O  O42  1  0.267066  0.692384  0.476616  1
  O  O43  1  0.766935  0.307565  0.548401  1
  O  O44  1  0.261867  0.008528  0.556975  1
  O  O45  1  0.762030  0.991439  0.468007  1
  O  O46  1  0.271239  0.861058  0.510514  1
  O  O47  1  0.770760  0.138902  0.514474  1
  O  O48  1  0.500891  0.835148  0.455892  1
  O  O49  1  -0.000000  0.164638  0.569132  1
  O  O50  1  0.499560  0.169395  0.566206  1
  O  O51  1  0.000000  0.830690  0.458752  1
  O  O52  1  0.276589  0.105306  0.613699  1
  O  O53  1  0.776709  0.894592  0.411285  1
  O  O54  1  0.485299  0.990805  0.379517  1
  Si  Si55  1  0.247826  0.180891  0.180136  1
  Si  Si56  1  0.748261  0.818977  0.310082  1
  Si  Si57  1  0.242215  0.387672  0.218502  1
  Si  Si58  1  0.740766  0.612232  0.271686  1
  Si  Si59  1  0.240648  0.607619  0.228831  1
  Si  Si60  1  0.742092  0.392293  0.261394  1
  Si  Si61  1  0.247946  0.896184  0.280569  1
  Si  Si62  1  0.747510  0.103775  0.209667  1
  Si  Si63  1  0.260763  0.803464  0.207441  1
  Si  Si64  1  0.760129  0.196467  0.282804  1
  Si  Si65  1  0.259649  0.113821  0.309696  1
  Si  Si66  1  0.760253  0.886134  0.180546  1
  Si  Si67  1  0.254428  0.063145  0.378113  1
  Si  Si68  1  0.247826  0.180891  0.447510  1
  Si  Si69  1  0.748261  0.818977  0.577457  1
  Si  Si70  1  0.242215  0.387672  0.485876  1
  Si  Si71  1  0.740766  0.612232  0.539060  1
  Si  Si72  1  0.240648  0.607619  0.496206  1
  Si  Si73  1  0.742092  0.392293  0.528769  1
  Si  Si74  1  0.247946  0.896184  0.547944  1
  Si  Si75  1  0.747510  0.103775  0.477042  1
  Si  Si76  1  0.260763  0.803464  0.474815  1
  Si  Si77  1  0.760129  0.196467  0.550178  1
  Si  Si78  1  0.259649  0.113821  0.577071  1
  Si  Si79  1  0.760253  0.886134  0.447921  1
  Si  Si80  1  0.754447  0.936680  0.379485  1
  H  H81  1  0.268006  0.141996  0.121200  1
  H  H82  1  0.776709  0.894592  0.122493  1
  H  H83  1  0.768215  0.857804  0.636401  1
  H  H84  1  0.276589  0.105306  0.635117  1
