# generated using pymatgen
data_Si59(H3O31)4
_symmetry_space_group_name_H-M   'P 1'
_cell_length_a   11.93342971
_cell_length_b   38.24605466
_cell_length_c   57.43211308
_cell_angle_alpha   128.60968990
_cell_angle_beta   120.00000000
_cell_angle_gamma   71.81984424
_symmetry_Int_Tables_number   1
_chemical_formula_structural   Si59(H3O31)4
_chemical_formula_sum   'Si118 H24 O248'
_cell_volume   17738.5886981
_cell_formula_units_Z   2
loop_
 _symmetry_equiv_pos_site_id
 _symmetry_equiv_pos_as_xyz
  1  'x, y, z'
loop_
 _atom_site_type_symbol
 _atom_site_label
 _atom_site_symmetry_multiplicity
 _atom_site_fract_x
 _atom_site_fract_y
 _atom_site_fract_z
 _atom_site_occupancy
  O  O1  1  0.224000  0.167125  0.221115  1
  O  O2  1  0.323976  0.083361  0.200802  1
  O  O3  1  0.022770  0.201302  0.192161  1
  O  O4  1  0.308114  0.015561  0.197704  1
  O  O5  1  0.011146  0.183445  0.226790  1
  O  O6  1  0.354198  0.500457  0.192863  1
  O  O7  1  0.113803  0.365808  0.228948  1
  O  O8  1  0.097128  0.649633  0.155122  1
  O  O9  1  0.354192  0.000000  0.151500  1
  O  O10  1  0.104735  0.800920  0.201984  1
  O  O11  1  0.072009  0.916697  0.189634  1
  O  O12  1  0.198431  0.982967  0.211955  1
  O  O13  1  0.295716  0.816299  0.204168  1
  O  O14  1  0.230908  0.682227  0.219252  1
  O  O15  1  0.102975  0.731781  0.199498  1
  O  O16  1  0.578347  0.166268  0.147135  1
  O  O17  1  0.781016  0.032473  0.230948  1
  O  O18  1  0.894970  0.199139  0.137897  1
  O  O19  1  0.801259  0.017092  0.184874  1
  O  O20  1  0.648109  0.250031  0.202715  1
  O  O21  1  0.768793  0.182230  0.202911  1
  O  O22  1  0.768794  0.317831  0.227594  1
  O  O23  1  0.521531  0.035473  0.208714  1
  O  O24  1  0.781963  0.202141  0.169578  1
  O  O25  1  0.896728  0.268277  0.193237  1
  O  O26  1  -0.000000  -0.000000  0.223834  1
  O  O27  1  0.781019  0.467588  0.202100  1
  O  O28  1  0.927687  0.416696  0.219620  1
  O  O29  1  0.902575  0.350426  0.218349  1
  O  O30  1  0.925622  0.333362  0.169997  1
  O  O31  1  0.976938  0.798758  0.227898  1
  O  O32  1  0.988554  0.683446  0.196384  1
  O  O33  1  0.859104  0.750032  0.224635  1
  O  O34  1  0.775699  0.667130  0.188498  1
  O  O35  1  0.224000  0.167125  0.428891  1
  O  O36  1  0.224003  0.332932  0.303970  1
  O  O37  1  0.113794  0.134253  0.273242  1
  O  O38  1  0.323976  0.083361  0.408578  1
  O  O39  1  0.022770  0.298756  0.291113  1
  O  O40  1  0.370638  0.132091  0.298898  1
  O  O41  1  0.022770  0.201302  0.399937  1
  O  O42  1  0.308114  0.015561  0.405479  1
  O  O43  1  0.460521  0.151162  0.254052  1
  O  O44  1  0.260273  0.131252  0.248514  1
  O  O45  1  0.241869  0.065115  0.244877  1
  O  O46  1  0.011148  0.316614  0.254069  1
  O  O47  1  0.437970  0.016779  0.248565  1
  O  O48  1  0.011146  0.183445  0.434566  1
  O  O49  1  0.140601  0.250029  0.253878  1
  O  O50  1  0.354198  0.500457  0.400639  1
  O  O51  1  0.421351  0.666262  0.261761  1
  O  O52  1  0.113803  0.365808  0.436723  1
  O  O53  1  0.218686  0.532472  0.274532  1
  O  O54  1  0.072013  0.583363  0.303873  1
  O  O55  1  0.097128  0.649633  0.362897  1
  O  O56  1  0.198435  0.517094  0.307823  1
  O  O57  1  0.323981  0.416695  0.345057  1
  O  O58  1  0.370645  0.367972  0.256659  1
  O  O59  1  0.347727  0.534634  0.248876  1
  O  O60  1  0.460528  0.348896  0.320178  1
  O  O61  1  0.308118  0.484498  0.344862  1
  O  O62  1  0.260278  0.368807  0.284109  1
  O  O63  1  0.478172  0.535475  0.299260  1
  O  O64  1  0.241873  0.434946  0.283925  1
  O  O65  1  0.344998  0.601611  0.302897  1
  O  O66  1  0.426677  0.649946  0.299208  1
  O  O67  1  0.437975  0.483283  0.320983  1
  O  O68  1  0.429477  0.583360  0.244641  1
  O  O69  1  0.074084  0.833363  0.377774  1
  O  O70  1  0.421361  0.833789  0.304327  1
  O  O71  1  0.354192  0.000000  0.359276  1
  O  O72  1  0.218673  0.967585  0.249451  1
  O  O73  1  0.104735  0.800920  0.409760  1
  O  O74  1  0.104730  0.699139  0.298320  1
  O  O75  1  0.072009  0.916697  0.397410  1
  O  O76  1  0.144174  0.750029  0.358137  1
  O  O77  1  0.198431  0.982967  0.419731  1
  O  O78  1  0.295716  0.816299  0.411943  1
  O  O79  1  0.295711  0.683759  0.335818  1
  O  O80  1  0.097137  0.850426  0.343604  1
  O  O81  1  0.351596  0.750026  0.275797  1
  O  O82  1  0.347716  0.965421  0.301918  1
  O  O83  1  0.230908  0.682227  0.427027  1
  O  O84  1  0.230916  0.817829  0.307269  1
  O  O85  1  0.217739  0.702139  0.269133  1
  O  O86  1  0.478158  0.964586  0.278639  1
  O  O87  1  0.217745  0.797917  0.254651  1
  O  O88  1  0.344996  0.898447  0.247330  1
  O  O89  1  0.102975  0.731781  0.407274  1
  O  O90  1  0.102979  0.768278  0.300441  1
  O  O91  1  0.426681  0.850109  0.267988  1
  O  O92  1  0.429475  0.916693  0.323137  1
  O  O93  1  0.074079  0.666696  0.323938  1
  O  O94  1  0.645499  0.000000  0.286010  1
  O  O95  1  0.925611  0.166696  0.293090  1
  O  O96  1  0.578347  0.166268  0.354911  1
  O  O97  1  0.894971  0.300920  0.318824  1
  O  O98  1  0.781016  0.032473  0.438723  1
  O  O99  1  0.894970  0.199139  0.345672  1
  O  O100  1  0.855523  0.250029  0.328150  1
  O  O101  1  0.927682  0.083363  0.243898  1
  O  O102  1  0.703990  0.316300  0.329422  1
  O  O103  1  0.902568  0.149633  0.239950  1
  O  O104  1  0.801259  0.017092  0.392650  1
  O  O105  1  0.703983  0.183759  0.295393  1
  O  O106  1  0.648109  0.250031  0.410490  1
  O  O107  1  0.651974  0.034636  0.258401  1
  O  O108  1  0.768793  0.182230  0.410687  1
  O  O109  1  0.768794  0.317831  0.435369  1
  O  O110  1  0.521531  0.035473  0.416490  1
  O  O111  1  0.781963  0.202141  0.377354  1
  O  O112  1  0.781963  0.297920  0.263663  1
  O  O113  1  0.896727  0.231782  0.263848  1
  O  O114  1  0.654701  0.101610  0.260043  1
  O  O115  1  0.896728  0.268277  0.401013  1
  O  O116  1  0.573019  0.149948  0.303903  1
  O  O117  1  0.570222  0.083364  0.303132  1
  O  O118  1  0.000000  -0.000000  0.431609  1
  O  O119  1  0.578351  0.333795  0.243802  1
  O  O120  1  0.645509  0.499602  0.326659  1
  O  O121  1  0.885900  0.634252  0.316824  1
  O  O122  1  0.781019  0.467588  0.409876  1
  O  O123  1  0.927687  0.416696  0.427396  1
  O  O124  1  0.801272  0.482966  0.252380  1
  O  O125  1  0.902575  0.350426  0.426125  1
  O  O126  1  0.675725  0.583365  0.346972  1
  O  O127  1  0.629057  0.632088  0.289372  1
  O  O128  1  0.651980  0.465425  0.355612  1
  O  O129  1  0.691589  0.515562  0.293722  1
  O  O130  1  0.539174  0.651165  0.350070  1
  O  O131  1  0.739424  0.631253  0.339059  1
  O  O132  1  0.521536  0.464585  0.378194  1
  O  O133  1  0.757831  0.565114  0.287730  1
  O  O134  1  0.654706  0.398449  0.354535  1
  O  O135  1  0.573026  0.350113  0.293703  1
  O  O136  1  0.561731  0.516776  0.243871  1
  O  O137  1  0.570228  0.416699  0.293895  1
  O  O138  1  -0.000000  0.500029  0.254681  1
  O  O139  1  0.925622  0.333362  0.377773  1
  O  O140  1  0.775705  0.832935  0.243444  1
  O  O141  1  0.885905  0.865805  0.345787  1
  O  O142  1  0.675717  0.916698  0.271974  1
  O  O143  1  0.976938  0.798758  0.435673  1
  O  O144  1  0.976932  0.701304  0.245855  1
  O  O145  1  0.629062  0.867967  0.319874  1
  O  O146  1  0.539178  0.848895  0.240503  1
  O  O147  1  0.691575  0.984498  0.328520  1
  O  O148  1  0.739426  0.868808  0.293121  1
  O  O149  1  0.757826  0.934945  0.348274  1
  O  O150  1  0.561721  0.983279  0.351388  1
  O  O151  1  0.988562  0.816616  0.279784  1
  O  O152  1  0.988554  0.683446  0.404159  1
  O  O153  1  0.859104  0.750032  0.432411  1
  O  O154  1  0.775699  0.667130  0.396273  1
  O  O155  1  0.224003  0.332932  0.511746  1
  O  O156  1  0.113794  0.134253  0.481017  1
  O  O157  1  0.022770  0.298756  0.498888  1
  O  O158  1  0.370638  0.132091  0.506673  1
  O  O159  1  0.460521  0.151162  0.461827  1
  O  O160  1  0.260273  0.131252  0.456290  1
  O  O161  1  0.241869  0.065115  0.452653  1
  O  O162  1  0.011148  0.316614  0.461845  1
  O  O163  1  0.437970  0.016779  0.456341  1
  O  O164  1  0.140601  0.250029  0.461654  1
  O  O165  1  0.354198  0.500457  0.608414  1
  O  O166  1  0.421351  0.666262  0.469537  1
  O  O167  1  0.218686  0.532472  0.482307  1
  O  O168  1  0.072013  0.583363  0.511648  1
  O  O169  1  0.097128  0.649633  0.570673  1
  O  O170  1  0.198435  0.517094  0.515598  1
  O  O171  1  0.323981  0.416695  0.552832  1
  O  O172  1  0.370645  0.367972  0.464435  1
  O  O173  1  0.347727  0.534634  0.456652  1
  O  O174  1  0.460528  0.348896  0.527954  1
  O  O175  1  0.308118  0.484498  0.552638  1
  O  O176  1  0.260278  0.368807  0.491885  1
  O  O177  1  0.478172  0.535475  0.507036  1
  O  O178  1  0.241873  0.434946  0.491700  1
  O  O179  1  0.344998  0.601611  0.510672  1
  O  O180  1  0.426677  0.649946  0.506983  1
  O  O181  1  0.437975  0.483283  0.528759  1
  O  O182  1  0.429477  0.583360  0.452417  1
  O  O183  1  0.421361  0.833789  0.512103  1
  O  O184  1  0.354192  0.000000  0.567051  1
  O  O185  1  0.218673  0.967585  0.457227  1
  O  O186  1  0.104730  0.699139  0.506096  1
  O  O187  1  0.144174  0.750029  0.565913  1
  O  O188  1  0.295711  0.683759  0.543593  1
  O  O189  1  0.097137  0.850426  0.551380  1
  O  O190  1  0.351596  0.750026  0.483573  1
  O  O191  1  0.347716  0.965421  0.509693  1
  O  O192  1  0.230916  0.817829  0.515044  1
  O  O193  1  0.217739  0.702139  0.476909  1
  O  O194  1  0.478158  0.964586  0.486415  1
  O  O195  1  0.217745  0.797917  0.462427  1
  O  O196  1  0.344996  0.898447  0.455106  1
  O  O197  1  0.102979  0.768278  0.508217  1
  O  O198  1  0.426681  0.850109  0.475764  1
  O  O199  1  0.429475  0.916693  0.530913  1
  O  O200  1  0.074079  0.666696  0.531713  1
  O  O201  1  0.645499  -0.000000  0.493786  1
  O  O202  1  0.925611  0.166696  0.500866  1
  O  O203  1  0.578347  0.166268  0.562686  1
  O  O204  1  0.894971  0.300920  0.526600  1
  O  O205  1  0.894970  0.199139  0.553448  1
  O  O206  1  0.855523  0.250029  0.535925  1
  O  O207  1  0.927682  0.083363  0.451674  1
  O  O208  1  0.703990  0.316300  0.537198  1
  O  O209  1  0.902568  0.149633  0.447726  1
  O  O210  1  0.801259  0.017092  0.600426  1
  O  O211  1  0.703983  0.183759  0.503169  1
  O  O212  1  0.651974  0.034636  0.466176  1
  O  O213  1  0.781963  0.297920  0.471439  1
  O  O214  1  0.896727  0.231782  0.471624  1
  O  O215  1  0.654701  0.101610  0.467818  1
  O  O216  1  0.573019  0.149948  0.511678  1
  O  O217  1  0.570222  0.083364  0.510907  1
  O  O218  1  0.578351  0.333795  0.451577  1
  O  O219  1  0.645509  0.499602  0.534435  1
  O  O220  1  0.885900  0.634252  0.524600  1
  O  O221  1  0.781019  0.467588  0.617652  1
  O  O222  1  0.801272  0.482966  0.460156  1
  O  O223  1  0.675725  0.583365  0.554747  1
  O  O224  1  0.629057  0.632088  0.497147  1
  O  O225  1  0.651980  0.465425  0.563388  1
  O  O226  1  0.691589  0.515562  0.501497  1
  O  O227  1  0.539174  0.651165  0.557845  1
  O  O228  1  0.739424  0.631253  0.546835  1
  O  O229  1  0.521536  0.464585  0.585969  1
  O  O230  1  0.757831  0.565114  0.495506  1
  O  O231  1  0.654706  0.398449  0.562310  1
  O  O232  1  0.573026  0.350113  0.501479  1
  O  O233  1  0.561731  0.516776  0.451646  1
  O  O234  1  0.570228  0.416699  0.501671  1
  O  O235  1  0.000000  0.500029  0.462457  1
  O  O236  1  0.925622  0.333362  0.585549  1
  O  O237  1  0.775705  0.832935  0.451220  1
  O  O238  1  0.885905  0.865805  0.553563  1
  O  O239  1  0.675717  0.916698  0.479750  1
  O  O240  1  0.976932  0.701304  0.453630  1
  O  O241  1  0.629062  0.867967  0.527650  1
  O  O242  1  0.539178  0.848895  0.448278  1
  O  O243  1  0.691575  0.984498  0.536296  1
  O  O244  1  0.739426  0.868808  0.500896  1
  O  O245  1  0.757826  0.934945  0.556049  1
  O  O246  1  0.561721  0.983279  0.559164  1
  O  O247  1  0.988562  0.816616  0.487559  1
  O  O248  1  0.775699  0.667130  0.604049  1
  Si  Si249  1  0.369728  0.033346  0.188087  1
  Si  Si250  1  0.317054  0.133377  0.229654  1
  Si  Si251  1  0.104642  0.200124  0.223293  1
  Si  Si252  1  0.294407  0.017353  0.224348  1
  Si  Si253  1  0.418047  0.533456  0.231376  1
  Si  Si254  1  0.400824  0.850685  0.238398  1
  Si  Si255  1  0.106259  0.684020  0.191250  1
  Si  Si256  1  0.100828  0.784146  0.220642  1
  Si  Si257  1  0.115569  0.966444  0.218004  1
  Si  Si258  1  0.686937  0.200016  0.180493  1
  Si  Si259  1  0.686936  0.300047  0.233005  1
  Si  Si260  1  0.893441  0.184020  0.232401  1
  Si  Si261  1  0.893440  0.316039  0.224001  1
  Si  Si262  1  0.657672  0.049245  0.238728  1
  Si  Si263  1  0.898876  0.215913  0.171307  1
  Si  Si264  1  0.884121  0.033616  0.221873  1
  Si  Si265  1  0.964737  0.366949  0.207999  1
  Si  Si266  1  0.884129  0.466444  0.232598  1
  Si  Si267  1  0.895060  0.700128  0.213744  1
  Si  Si268  1  0.369728  0.033346  0.395862  1
  Si  Si269  1  0.317054  0.133377  0.437429  1
  Si  Si270  1  0.104642  0.299933  0.276992  1
  Si  Si271  1  0.104642  0.200124  0.431069  1
  Si  Si272  1  0.294407  0.017353  0.432123  1
  Si  Si273  1  0.241045  0.117480  0.267084  1
  Si  Si274  1  0.115577  0.533616  0.284556  1
  Si  Si275  1  0.317059  0.366680  0.314767  1
  Si  Si276  1  0.369733  0.466710  0.367280  1
  Si  Si277  1  0.476870  0.633264  0.272850  1
  Si  Si278  1  0.418047  0.533456  0.439152  1
  Si  Si279  1  0.294414  0.482707  0.315371  1
  Si  Si280  1  0.400819  0.649372  0.323426  1
  Si  Si281  1  0.241053  0.382581  0.261546  1
  Si  Si282  1  0.342029  0.549245  0.280691  1
  Si  Si283  1  0.034963  0.633110  0.325899  1
  Si  Si284  1  0.312766  0.700011  0.256452  1
  Si  Si285  1  0.312772  0.800042  0.287076  1
  Si  Si286  1  0.418039  0.966598  0.334029  1
  Si  Si287  1  0.476875  0.866790  0.304775  1
  Si  Si288  1  0.400824  0.850685  0.446174  1
  Si  Si289  1  0.106259  0.684020  0.399026  1
  Si  Si290  1  0.106270  0.816039  0.309373  1
  Si  Si291  1  0.342021  0.950812  0.268920  1
  Si  Si292  1  0.100828  0.784146  0.428417  1
  Si  Si293  1  0.100828  0.715913  0.278851  1
  Si  Si294  1  0.115569  0.966444  0.425780  1
  Si  Si295  1  0.150697  0.799776  0.387861  1
  Si  Si296  1  0.150693  0.700282  0.329768  1
  Si  Si297  1  0.034970  0.866949  0.367685  1
  Si  Si298  1  0.849001  0.200282  0.315174  1
  Si  Si299  1  0.686937  0.200016  0.388268  1
  Si  Si300  1  0.686936  0.300047  0.440781  1
  Si  Si301  1  0.522826  0.133268  0.316397  1
  Si  Si302  1  0.581654  0.033460  0.274922  1
  Si  Si303  1  0.893441  0.184020  0.440177  1
  Si  Si304  1  0.598878  0.149372  0.279207  1
  Si  Si305  1  0.893440  0.316039  0.431777  1
  Si  Si306  1  0.898877  0.284147  0.286226  1
  Si  Si307  1  0.657672  0.049245  0.446504  1
  Si  Si308  1  0.898876  0.215913  0.379082  1
  Si  Si309  1  0.849008  0.299777  0.339772  1
  Si  Si310  1  0.964729  0.133109  0.263216  1
  Si  Si311  1  0.884121  0.033616  0.429649  1
  Si  Si312  1  0.964737  0.366949  0.415775  1
  Si  Si313  1  0.884129  0.466444  0.440374  1
  Si  Si314  1  0.629975  0.533350  0.318121  1
  Si  Si315  1  0.682644  0.633380  0.359687  1
  Si  Si316  1  0.581659  0.466603  0.324480  1
  Si  Si317  1  0.522833  0.366795  0.270780  1
  Si  Si318  1  0.705295  0.517352  0.268566  1
  Si  Si319  1  0.598882  0.350687  0.323771  1
  Si  Si320  1  0.758652  0.617479  0.309043  1
  Si  Si321  1  0.657676  0.450814  0.376467  1
  Si  Si322  1  0.758652  0.882579  0.327130  1
  Si  Si323  1  0.682645  0.866682  0.260695  1
  Si  Si324  1  0.629961  0.966712  0.291320  1
  Si  Si325  1  0.895065  0.799936  0.242997  1
  Si  Si326  1  0.895060  0.700128  0.421520  1
  Si  Si327  1  0.705282  0.982705  0.356522  1
  Si  Si328  1  0.104642  0.299933  0.484767  1
  Si  Si329  1  0.241045  0.117480  0.474859  1
  Si  Si330  1  0.115577  0.533616  0.492331  1
  Si  Si331  1  0.317059  0.366680  0.522542  1
  Si  Si332  1  0.369733  0.466710  0.575056  1
  Si  Si333  1  0.476870  0.633264  0.480626  1
  Si  Si334  1  0.294414  0.482707  0.523147  1
  Si  Si335  1  0.400819  0.649372  0.531202  1
  Si  Si336  1  0.241053  0.382581  0.469322  1
  Si  Si337  1  0.342029  0.549245  0.488466  1
  Si  Si338  1  0.034963  0.633110  0.533674  1
  Si  Si339  1  0.312766  0.700011  0.464227  1
  Si  Si340  1  0.312772  0.800042  0.494852  1
  Si  Si341  1  0.418039  0.966598  0.541804  1
  Si  Si342  1  0.476875  0.866790  0.512551  1
  Si  Si343  1  0.106270  0.816039  0.517148  1
  Si  Si344  1  0.342021  0.950812  0.476696  1
  Si  Si345  1  0.100828  0.715913  0.486627  1
  Si  Si346  1  0.150693  0.700282  0.537544  1
  Si  Si347  1  0.849001  0.200282  0.522949  1
  Si  Si348  1  0.522826  0.133268  0.524173  1
  Si  Si349  1  0.581654  0.033460  0.482698  1
  Si  Si350  1  0.598878  0.149372  0.486982  1
  Si  Si351  1  0.898877  0.284147  0.494002  1
  Si  Si352  1  0.849008  0.299777  0.547548  1
  Si  Si353  1  0.964729  0.133109  0.470992  1
  Si  Si354  1  0.629975  0.533350  0.525896  1
  Si  Si355  1  0.682644  0.633380  0.567462  1
  Si  Si356  1  0.581659  0.466603  0.532256  1
  Si  Si357  1  0.522833  0.366795  0.478556  1
  Si  Si358  1  0.705295  0.517352  0.476342  1
  Si  Si359  1  0.598882  0.350687  0.531546  1
  Si  Si360  1  0.758652  0.617479  0.516819  1
  Si  Si361  1  0.657676  0.450814  0.584242  1
  Si  Si362  1  0.758652  0.882579  0.534906  1
  Si  Si363  1  0.682645  0.866682  0.468471  1
  Si  Si364  1  0.629961  0.966712  0.499095  1
  Si  Si365  1  0.895065  0.799936  0.450773  1
  Si  Si366  1  0.705282  0.982705  0.564298  1
  H  H367  1  0.354198  0.500457  0.177192  1
  H  H368  1  0.097128  0.649633  0.139451  1
  H  H369  1  0.354192  0.000000  0.135829  1
  H  H370  1  0.104735  0.800920  0.186313  1
  H  H371  1  0.072009  0.916697  0.173963  1
  H  H372  1  0.295716  0.816299  0.188497  1
  H  H373  1  0.578347  0.166268  0.131464  1
  H  H374  1  0.894970  0.199139  0.122226  1
  H  H375  1  0.801259  0.017092  0.169204  1
  H  H376  1  0.781019  0.467588  0.186430  1
  H  H377  1  0.925622  0.333362  0.154327  1
  H  H378  1  0.775699  0.667130  0.172827  1
  H  H379  1  0.354198  0.500457  0.624085  1
  H  H380  1  0.097128  0.649633  0.586344  1
  H  H381  1  0.354192  0.000000  0.582722  1
  H  H382  1  0.144174  0.750029  0.581584  1
  H  H383  1  0.097137  0.850426  0.567050  1
  H  H384  1  0.578347  0.166268  0.578357  1
  H  H385  1  0.894970  0.199139  0.569118  1
  H  H386  1  0.801259  0.017092  0.616096  1
  H  H387  1  0.781019  0.467588  0.633322  1
  H  H388  1  0.925622  0.333362  0.601219  1
  H  H389  1  0.885905  0.865805  0.569233  1
  H  H390  1  0.775699  0.667130  0.619720  1
