# generated using pymatgen
data_Si15H2O31
_symmetry_space_group_name_H-M   'P 1'
_cell_length_a   7.17685991
_cell_length_b   41.18971782
_cell_length_c   39.16498190
_cell_angle_alpha   76.53100941
_cell_angle_beta   90.00000000
_cell_angle_gamma   90.00000000
_symmetry_Int_Tables_number   1
_chemical_formula_structural   Si15H2O31
_chemical_formula_sum   'Si60 H8 O124'
_cell_volume   11259.2404583
_cell_formula_units_Z   4
loop_
 _symmetry_equiv_pos_site_id
 _symmetry_equiv_pos_as_xyz
  1  'x, y, z'
loop_
 _atom_site_type_symbol
 _atom_site_label
 _atom_site_symmetry_multiplicity
 _atom_site_fract_x
 _atom_site_fract_y
 _atom_site_fract_z
 _atom_site_occupancy
  O  O1  1  0.493063  0.396042  0.271682  1
  O  O2  1  0.500393  0.103482  0.343230  1
  O  O3  1  0.500393  0.603482  0.220749  1
  O  O4  1  0.499890  0.646347  0.332738  1
  O  O5  1  0.499915  0.853872  0.282204  1
  O  O6  1  0.606468  0.435826  0.215699  1
  O  O7  1  0.606468  0.935825  0.338179  1
  O  O8  1  0.604037  0.063885  0.305921  1
  O  O9  1  0.604037  0.563884  0.183440  1
  O  O10  1  0.394363  0.685893  0.276108  1
  O  O11  1  0.394527  0.313809  0.367546  1
  O  O12  1  0.394527  0.813809  0.245066  1
  O  O13  1  0.393306  0.563946  0.277293  1
  O  O14  1  0.389060  0.435932  0.308544  1
  O  O15  1  0.606051  0.813964  0.338705  1
  O  O16  1  0.002369  0.415551  0.266783  1
  O  O17  1  -0.000000  0.085377  0.347938  1
  O  O18  1  -0.000000  0.585377  0.225458  1
  O  O19  1  -0.000000  0.665048  0.328185  1
  O  O20  1  -0.000000  0.833921  0.286930  1
  O  O21  1  0.718897  0.414097  0.311411  1
  O  O22  1  0.723727  0.586528  0.270928  1
  O  O23  1  0.277433  0.836344  0.331712  1
  O  O24  1  0.275767  0.086788  0.301529  1
  O  O25  1  0.275767  0.586788  0.179049  1
  O  O26  1  0.277170  0.413560  0.221127  1
  O  O27  1  0.277170  0.913559  0.343607  1
  O  O28  1  0.723031  0.336564  0.363566  1
  O  O29  1  0.723031  0.836565  0.241086  1
  O  O30  1  0.723961  0.663440  0.282723  1
  O  O31  1  0.544595  0.375004  0.215849  1
  O  O32  1  0.544595  0.875004  0.338329  1
  O  O33  1  0.543179  0.124987  0.276736  1
  O  O34  1  0.543179  0.624987  0.154255  1
  O  O35  1  0.457019  0.624915  0.276706  1
  O  O36  1  0.454167  0.374978  0.338233  1
  O  O37  1  0.454167  0.874979  0.215753  1
  O  O38  1  0.958011  0.452062  0.209009  1
  O  O39  1  0.958011  0.952062  0.331489  1
  O  O40  1  0.956350  0.048180  0.307910  1
  O  O41  1  0.956350  0.548180  0.185430  1
  O  O42  1  0.042231  0.702760  0.270041  1
  O  O43  1  0.041722  0.796805  0.248598  1
  O  O44  1  0.041298  0.547211  0.283419  1
  O  O45  1  0.040537  0.453330  0.305641  1
  O  O46  1  0.958629  0.796768  0.343397  1
  O  O47  1  0.957611  0.702806  0.367818  1
  O  O48  1  0.221803  0.459352  0.253386  1
  O  O49  1  0.218987  0.041211  0.356398  1
  O  O50  1  0.218987  0.541211  0.233918  1
  O  O51  1  0.779565  0.708926  0.315377  1
  O  O52  1  0.773910  0.790795  0.295175  1
  O  O53  1  0.779174  0.041701  0.360251  1
  O  O54  1  0.779174  0.541701  0.237771  1
  O  O55  1  0.782154  0.458996  0.258524  1
  O  O56  1  0.226452  0.790645  0.299814  1
  O  O57  1  0.220312  0.708855  0.319477  1
  O  O58  1  0.296072  0.500192  0.291223  1
  O  O59  1  0.702192  0.749899  0.352726  1
  O  O60  1  0.711950  0.499798  0.201653  1
  O  O61  1  0.711950  0.000000  0.324133  1
  O  O62  1  0.297622  0.749819  0.262119  1
  O  O63  1  0.493063  0.396042  0.516643  1
  O  O64  1  0.493063  0.896042  0.394163  1
  O  O65  1  0.500393  0.603482  0.465710  1
  O  O66  1  0.499890  0.146347  0.455218  1
  O  O67  1  0.499915  0.353872  0.404684  1
  O  O68  1  0.606468  0.435825  0.460659  1
  O  O69  1  0.604037  0.563884  0.428401  1
  O  O70  1  0.394363  0.185893  0.398588  1
  O  O71  1  0.393306  0.063946  0.399773  1
  O  O72  1  0.393306  0.563946  0.522253  1
  O  O73  1  0.389060  0.435932  0.553504  1
  O  O74  1  0.389060  0.935933  0.431024  1
  O  O75  1  0.606051  0.313963  0.461185  1
  O  O76  1  0.605432  0.185964  0.492434  1
  O  O77  1  0.605432  0.685963  0.369954  1
  O  O78  1  0.002369  0.415551  0.511743  1
  O  O79  1  0.002369  0.915551  0.389263  1
  O  O80  1  -0.000000  0.585377  0.470418  1
  O  O81  1  -0.000000  0.165048  0.450665  1
  O  O82  1  -0.000000  0.333921  0.409410  1
  O  O83  1  0.718897  0.414097  0.556371  1
  O  O84  1  0.718897  0.914097  0.433891  1
  O  O85  1  0.723727  0.086528  0.393408  1
  O  O86  1  0.723727  0.586528  0.515888  1
  O  O87  1  0.275906  0.163442  0.496879  1
  O  O88  1  0.275906  0.663442  0.374398  1
  O  O89  1  0.277433  0.336344  0.454192  1
  O  O90  1  0.275767  0.586788  0.424009  1
  O  O91  1  0.277170  0.413559  0.466087  1
  O  O92  1  0.723961  0.163440  0.405204  1
  O  O93  1  0.544595  0.375004  0.460809  1
  O  O94  1  0.543179  0.124987  0.521696  1
  O  O95  1  0.543179  0.624986  0.399216  1
  O  O96  1  0.457019  0.124915  0.399186  1
  O  O97  1  0.457019  0.624915  0.521666  1
  O  O98  1  0.454167  0.374979  0.583193  1
  O  O99  1  0.454167  0.874978  0.460713  1
  O  O100  1  0.958011  0.452062  0.453969  1
  O  O101  1  0.956350  0.548180  0.430390  1
  O  O102  1  0.042231  0.202760  0.392521  1
  O  O103  1  0.041722  0.296805  0.371078  1
  O  O104  1  0.041298  0.047211  0.405899  1
  O  O105  1  0.041298  0.547211  0.528380  1
  O  O106  1  0.040537  0.453331  0.550601  1
  O  O107  1  0.040537  0.953330  0.428121  1
  O  O108  1  0.958629  0.296768  0.465877  1
  O  O109  1  0.957611  0.202806  0.490298  1
  O  O110  1  0.221803  0.459352  0.498347  1
  O  O111  1  0.221803  0.959352  0.375867  1
  O  O112  1  0.218987  0.541211  0.478878  1
  O  O113  1  0.779565  0.208926  0.437858  1
  O  O114  1  0.773910  0.290795  0.417655  1
  O  O115  1  0.779174  0.541701  0.482731  1
  O  O116  1  0.782154  0.458996  0.503484  1
  O  O117  1  0.782154  0.958996  0.381004  1
  O  O118  1  0.226452  0.290644  0.422294  1
  O  O119  1  0.220312  0.208856  0.441957  1
  O  O120  1  0.296072  0.000000  0.413703  1
  O  O121  1  0.296072  0.500192  0.536183  1
  O  O122  1  0.702192  0.249900  0.475206  1
  O  O123  1  0.711950  0.499798  0.446613  1
  O  O124  1  0.297622  0.249820  0.384599  1
  Si  Si125  1  0.510430  0.404266  0.308659  1
  Si  Si126  1  0.518814  0.595456  0.262016  1
  Si  Si127  1  0.482974  0.845753  0.323442  1
  Si  Si128  1  0.481099  0.095571  0.305849  1
  Si  Si129  1  0.481099  0.595571  0.183368  1
  Si  Si130  1  0.481227  0.404336  0.230436  1
  Si  Si131  1  0.481227  0.904336  0.352916  1
  Si  Si132  1  0.516923  0.345667  0.367435  1
  Si  Si133  1  0.516923  0.845667  0.244955  1
  Si  Si134  1  0.518947  0.654308  0.291496  1
  Si  Si135  1  0.243312  0.463998  0.292695  1
  Si  Si136  1  0.242798  0.536463  0.275478  1
  Si  Si137  1  0.755476  0.713545  0.354738  1
  Si  Si138  1  0.752032  0.786188  0.336353  1
  Si  Si139  1  0.755952  0.037193  0.321162  1
  Si  Si140  1  0.755952  0.537193  0.198682  1
  Si  Si141  1  0.758075  0.462595  0.217790  1
  Si  Si142  1  0.758075  0.962595  0.340270  1
  Si  Si143  1  0.248031  0.786081  0.260877  1
  Si  Si144  1  0.244432  0.713458  0.277860  1
  Si  Si145  1  0.882220  0.434587  0.290693  1
  Si  Si146  1  0.881376  0.566194  0.259360  1
  Si  Si147  1  0.118415  0.684006  0.352990  1
  Si  Si148  1  0.125142  0.815211  0.319981  1
  Si  Si149  1  0.118362  0.066404  0.323040  1
  Si  Si150  1  0.118362  0.566404  0.200560  1
  Si  Si151  1  0.121867  0.434281  0.232625  1
  Si  Si152  1  0.121867  0.934281  0.355105  1
  Si  Si153  1  0.875721  0.815334  0.263002  1
  Si  Si154  1  0.881275  0.684022  0.294080  1
  Si  Si155  1  0.510430  0.404266  0.553619  1
  Si  Si156  1  0.510430  0.904266  0.431139  1
  Si  Si157  1  0.518814  0.095456  0.384496  1
  Si  Si158  1  0.518814  0.595456  0.506976  1
  Si  Si159  1  0.480944  0.154355  0.492539  1
  Si  Si160  1  0.480944  0.654355  0.370059  1
  Si  Si161  1  0.482974  0.345753  0.445922  1
  Si  Si162  1  0.481099  0.595570  0.428329  1
  Si  Si163  1  0.481227  0.404336  0.475397  1
  Si  Si164  1  0.518947  0.154308  0.413976  1
  Si  Si165  1  0.243312  0.463998  0.537655  1
  Si  Si166  1  0.243312  0.963997  0.415175  1
  Si  Si167  1  0.242798  0.036463  0.397959  1
  Si  Si168  1  0.242798  0.536463  0.520439  1
  Si  Si169  1  0.755476  0.213545  0.477218  1
  Si  Si170  1  0.752032  0.286188  0.458834  1
  Si  Si171  1  0.755952  0.537192  0.443642  1
  Si  Si172  1  0.758075  0.462595  0.462750  1
  Si  Si173  1  0.248031  0.286081  0.383357  1
  Si  Si174  1  0.244432  0.213458  0.400341  1
  Si  Si175  1  0.882220  0.434587  0.535653  1
  Si  Si176  1  0.882220  0.934587  0.413173  1
  Si  Si177  1  0.881376  0.066195  0.381840  1
  Si  Si178  1  0.881376  0.566194  0.504320  1
  Si  Si179  1  0.118415  0.184006  0.475470  1
  Si  Si180  1  0.125142  0.315211  0.442461  1
  Si  Si181  1  0.118362  0.566404  0.445520  1
  Si  Si182  1  0.121867  0.434281  0.477585  1
  Si  Si183  1  0.875721  0.315334  0.385482  1
  Si  Si184  1  0.881275  0.184022  0.416561  1
  H  H185  1  0.544595  0.375004  0.192869  1
  H  H186  1  0.543179  0.124987  0.253756  1
  H  H187  1  0.543179  0.624987  0.131276  1
  H  H188  1  0.454167  0.874978  0.192773  1
  H  H189  1  0.543179  0.124987  0.544676  1
  H  H190  1  0.457019  0.624915  0.544646  1
  H  H191  1  0.454167  0.374978  0.606173  1
  H  H192  1  0.454167  0.874978  0.483693  1
