# generated using pymatgen
data_Si24H2O49
_symmetry_space_group_name_H-M   'P 1'
_cell_length_a   7.37523501
_cell_length_b   23.09866732
_cell_length_c   69.28105932
_cell_angle_alpha   127.22993261
_cell_angle_beta   98.98900000
_cell_angle_gamma   84.57570238
_symmetry_Int_Tables_number   1
_chemical_formula_structural   Si24H2O49
_chemical_formula_sum   'Si96 H8 O196'
_cell_volume   9281.97118352
_cell_formula_units_Z   4
loop_
 _symmetry_equiv_pos_site_id
 _symmetry_equiv_pos_as_xyz
  1  'x, y, z'
loop_
 _atom_site_type_symbol
 _atom_site_label
 _atom_site_symmetry_multiplicity
 _atom_site_fract_x
 _atom_site_fract_y
 _atom_site_fract_z
 _atom_site_occupancy
  O  O1  1  0.617019  0.312422  0.104348  1
  O  O2  1  0.617104  0.812158  0.104409  1
  O  O3  1  0.392668  0.000000  0.181987  1
  O  O4  1  0.392546  0.500082  0.182091  1
  O  O5  1  0.607374  0.000000  0.231837  1
  O  O6  1  0.607223  0.500113  0.231803  1
  O  O7  1  0.626291  0.071061  0.180149  1
  O  O8  1  0.626892  0.571151  0.180259  1
  O  O9  1  0.372366  0.071216  0.262260  1
  O  O10  1  0.372993  0.571123  0.262333  1
  O  O11  1  0.373541  0.929145  0.233664  1
  O  O12  1  0.372800  0.429036  0.233622  1
  O  O13  1  0.627386  0.928974  0.151548  1
  O  O14  1  0.626690  0.429078  0.151551  1
  O  O15  1  0.711281  0.000000  0.198305  1
  O  O16  1  0.711167  0.499998  0.198304  1
  O  O17  1  0.288755  -0.000000  0.215511  1
  O  O18  1  0.288606  0.500197  0.215586  1
  O  O19  1  0.115915  0.927520  0.172561  1
  O  O20  1  0.115645  0.427886  0.172633  1
  O  O21  1  0.883863  0.927988  0.212148  1
  O  O22  1  0.883608  0.427620  0.212074  1
  O  O23  1  0.884082  0.072712  0.241251  1
  O  O24  1  0.884022  0.572327  0.241264  1
  O  O25  1  0.116112  0.072177  0.201657  1
  O  O26  1  0.116074  0.572564  0.201818  1
  O  O27  1  0.617019  0.312422  0.306063  1
  O  O28  1  0.617104  0.812158  0.306124  1
  O  O29  1  0.383004  0.312145  0.233597  1
  O  O30  1  0.383085  0.812413  0.233764  1
  O  O31  1  0.383038  0.687836  0.107792  1
  O  O32  1  0.382363  0.188034  0.107692  1
  O  O33  1  0.617068  0.687988  0.180233  1
  O  O34  1  0.616432  0.187785  0.180051  1
  O  O35  1  0.771482  0.203476  0.270780  1
  O  O36  1  0.770721  0.702879  0.270868  1
  O  O37  1  0.229540  0.202627  0.224614  1
  O  O38  1  0.228726  0.703240  0.224947  1
  O  O39  1  0.228846  0.796881  0.143038  1
  O  O40  1  0.228722  0.297347  0.142986  1
  O  O41  1  0.770845  0.797400  0.189137  1
  O  O42  1  0.770714  0.296935  0.188896  1
  O  O43  1  0.443933  0.194794  0.275816  1
  O  O44  1  0.442630  0.694883  0.275918  1
  O  O45  1  0.558082  0.194980  0.216534  1
  O  O46  1  0.556742  0.694886  0.216602  1
  O  O47  1  0.556694  0.805326  0.138019  1
  O  O48  1  0.556764  0.305286  0.137896  1
  O  O49  1  0.442583  0.805295  0.197329  1
  O  O50  1  0.442653  0.305330  0.197222  1
  O  O51  1  0.499364  0.263835  0.260064  1
  O  O52  1  0.499921  0.763843  0.260170  1
  O  O53  1  0.500410  0.736356  0.153786  1
  O  O54  1  0.499545  0.236353  0.153648  1
  O  O55  1  0.118270  0.165869  0.276005  1
  O  O56  1  0.117857  0.665412  0.276126  1
  O  O57  1  0.882183  0.165114  0.204271  1
  O  O58  1  0.881743  0.665570  0.204577  1
  O  O59  1  0.881858  0.834423  0.137791  1
  O  O60  1  0.881689  0.334804  0.137775  1
  O  O61  1  0.117979  0.834999  0.209488  1
  O  O62  1  0.117808  0.334605  0.209315  1
  O  O63  1  0.000000  0.171728  0.241391  1
  O  O64  1  -0.000000  0.671717  0.241747  1
  O  O65  1  -0.000000  0.828482  0.172392  1
  O  O66  1  -0.000000  0.328482  0.172293  1
  O  O67  1  0.392668  -0.000000  0.383703  1
  O  O68  1  0.392546  0.500082  0.383806  1
  O  O69  1  0.607374  -0.000000  0.433552  1
  O  O70  1  0.607223  0.500113  0.433518  1
  O  O71  1  0.626291  0.071061  0.381864  1
  O  O72  1  0.626892  0.571151  0.381974  1
  O  O73  1  0.372366  0.071216  0.463976  1
  O  O74  1  0.372993  0.571123  0.464048  1
  O  O75  1  0.373541  0.929145  0.435380  1
  O  O76  1  0.372800  0.429036  0.435337  1
  O  O77  1  0.627386  0.928974  0.353263  1
  O  O78  1  0.626690  0.429078  0.353266  1
  O  O79  1  0.711281  0.000000  0.400020  1
  O  O80  1  0.711167  0.499998  0.400019  1
  O  O81  1  0.288755  -0.000000  0.417226  1
  O  O82  1  0.288606  0.500197  0.417301  1
  O  O83  1  0.115915  0.927520  0.374276  1
  O  O84  1  0.115645  0.427886  0.374348  1
  O  O85  1  0.883863  0.927988  0.413863  1
  O  O86  1  0.883608  0.427620  0.413789  1
  O  O87  1  0.884082  0.072712  0.442967  1
  O  O88  1  0.884022  0.572327  0.442980  1
  O  O89  1  0.116112  0.072177  0.403373  1
  O  O90  1  0.116074  0.572564  0.403534  1
  O  O91  1  0.617019  0.312422  0.507778  1
  O  O92  1  0.617104  0.812158  0.507839  1
  O  O93  1  0.383004  0.312145  0.435312  1
  O  O94  1  0.383085  0.812413  0.435480  1
  O  O95  1  0.383038  0.687836  0.309507  1
  O  O96  1  0.382363  0.188034  0.309407  1
  O  O97  1  0.617068  0.687988  0.381949  1
  O  O98  1  0.616432  0.187785  0.381767  1
  O  O99  1  0.771482  0.203476  0.472496  1
  O  O100  1  0.770721  0.702879  0.472584  1
  O  O101  1  0.229540  0.202627  0.426329  1
  O  O102  1  0.228726  0.703240  0.426662  1
  O  O103  1  0.228846  0.796881  0.344753  1
  O  O104  1  0.228722  0.297347  0.344701  1
  O  O105  1  0.770845  0.797400  0.390852  1
  O  O106  1  0.770714  0.296935  0.390611  1
  O  O107  1  0.443933  0.194794  0.477531  1
  O  O108  1  0.442630  0.694883  0.477634  1
  O  O109  1  0.558082  0.194980  0.418249  1
  O  O110  1  0.556742  0.694886  0.418318  1
  O  O111  1  0.556694  0.805326  0.339734  1
  O  O112  1  0.556764  0.305286  0.339611  1
  O  O113  1  0.442583  0.805295  0.399044  1
  O  O114  1  0.442653  0.305330  0.398937  1
  O  O115  1  0.499364  0.263835  0.461779  1
  O  O116  1  0.499921  0.763843  0.461885  1
  O  O117  1  0.500410  0.736356  0.355501  1
  O  O118  1  0.499545  0.236353  0.355363  1
  O  O119  1  0.118270  0.165869  0.477720  1
  O  O120  1  0.117857  0.665412  0.477841  1
  O  O121  1  0.882183  0.165114  0.405987  1
  O  O122  1  0.881743  0.665570  0.406293  1
  O  O123  1  0.881858  0.834423  0.339507  1
  O  O124  1  0.881689  0.334804  0.339490  1
  O  O125  1  0.117979  0.834999  0.411203  1
  O  O126  1  0.117808  0.334605  0.411031  1
  O  O127  1  -0.000000  0.171728  0.443106  1
  O  O128  1  -0.000000  0.671717  0.443462  1
  O  O129  1  -0.000000  0.828482  0.374108  1
  O  O130  1  -0.000000  0.328482  0.374008  1
  O  O131  1  0.392668  -0.000000  0.585418  1
  O  O132  1  0.392546  0.500082  0.585521  1
  O  O133  1  0.607374  0.000000  0.635268  1
  O  O134  1  0.607223  0.500113  0.635234  1
  O  O135  1  0.626291  0.071061  0.583579  1
  O  O136  1  0.626892  0.571151  0.583689  1
  O  O137  1  0.372366  0.071216  0.665691  1
  O  O138  1  0.372993  0.571123  0.665764  1
  O  O139  1  0.373541  0.929145  0.637095  1
  O  O140  1  0.372800  0.429036  0.637052  1
  O  O141  1  0.627386  0.928974  0.554979  1
  O  O142  1  0.626690  0.429078  0.554981  1
  O  O143  1  0.711281  -0.000000  0.601735  1
  O  O144  1  0.711167  0.499998  0.601734  1
  O  O145  1  0.288755  0.000000  0.618941  1
  O  O146  1  0.288606  0.500197  0.619016  1
  O  O147  1  0.115915  0.927520  0.575991  1
  O  O148  1  0.115645  0.427886  0.576063  1
  O  O149  1  0.883863  0.927988  0.615578  1
  O  O150  1  0.883608  0.427620  0.615504  1
  O  O151  1  0.884082  0.072712  0.644682  1
  O  O152  1  0.884022  0.572327  0.644695  1
  O  O153  1  0.116112  0.072177  0.605088  1
  O  O154  1  0.116074  0.572564  0.605249  1
  O  O155  1  0.617019  0.312422  0.709494  1
  O  O156  1  0.617104  0.812158  0.709554  1
  O  O157  1  0.383004  0.312145  0.637027  1
  O  O158  1  0.383085  0.812413  0.637195  1
  O  O159  1  0.383038  0.687836  0.511222  1
  O  O160  1  0.382363  0.188034  0.511122  1
  O  O161  1  0.617068  0.687988  0.583664  1
  O  O162  1  0.616432  0.187785  0.583482  1
  O  O163  1  0.771482  0.203476  0.674211  1
  O  O164  1  0.770721  0.702879  0.674299  1
  O  O165  1  0.229540  0.202627  0.628045  1
  O  O166  1  0.228726  0.703240  0.628377  1
  O  O167  1  0.228846  0.796881  0.546469  1
  O  O168  1  0.228722  0.297347  0.546416  1
  O  O169  1  0.770845  0.797400  0.592568  1
  O  O170  1  0.770714  0.296935  0.592326  1
  O  O171  1  0.443933  0.194794  0.679246  1
  O  O172  1  0.442630  0.694883  0.679349  1
  O  O173  1  0.558082  0.194980  0.619964  1
  O  O174  1  0.556742  0.694886  0.620033  1
  O  O175  1  0.556694  0.805326  0.541449  1
  O  O176  1  0.556764  0.305286  0.541326  1
  O  O177  1  0.442583  0.805295  0.600760  1
  O  O178  1  0.442653  0.305330  0.600652  1
  O  O179  1  0.499364  0.263835  0.663494  1
  O  O180  1  0.499921  0.763843  0.663601  1
  O  O181  1  0.500410  0.736356  0.557217  1
  O  O182  1  0.499545  0.236353  0.557078  1
  O  O183  1  0.118270  0.165869  0.679436  1
  O  O184  1  0.117857  0.665412  0.679556  1
  O  O185  1  0.882183  0.165114  0.607702  1
  O  O186  1  0.881743  0.665570  0.608008  1
  O  O187  1  0.881858  0.834423  0.541222  1
  O  O188  1  0.881689  0.334804  0.541205  1
  O  O189  1  0.117979  0.834999  0.612918  1
  O  O190  1  0.117808  0.334605  0.612746  1
  O  O191  1  0.000000  0.171728  0.644821  1
  O  O192  1  -0.000000  0.671717  0.645177  1
  O  O193  1  0.000000  0.828482  0.575823  1
  O  O194  1  -0.000000  0.328482  0.575723  1
  O  O195  1  0.383038  0.687836  0.712937  1
  O  O196  1  0.382363  0.188034  0.712837  1
  Si  Si197  1  0.940058  0.155077  0.258287  1
  Si  Si198  1  0.939700  0.654723  0.258413  1
  Si  Si199  1  0.060447  0.154569  0.217695  1
  Si  Si200  1  0.060069  0.654916  0.217958  1
  Si  Si201  1  0.060044  0.845162  0.155502  1
  Si  Si202  1  0.059867  0.345504  0.155483  1
  Si  Si203  1  0.939680  0.845599  0.196083  1
  Si  Si204  1  0.939505  0.345254  0.195926  1
  Si  Si205  1  0.585274  0.245609  0.278133  1
  Si  Si206  1  0.584873  0.745371  0.278204  1
  Si  Si207  1  0.415269  0.245314  0.234546  1
  Si  Si208  1  0.414832  0.745559  0.234714  1
  Si  Si209  1  0.415004  0.754636  0.135715  1
  Si  Si210  1  0.414497  0.254821  0.135614  1
  Si  Si211  1  0.585053  0.754829  0.179282  1
  Si  Si212  1  0.584549  0.254641  0.179105  1
  Si  Si213  1  0.329281  0.154105  0.281479  1
  Si  Si214  1  0.329156  0.653906  0.281585  1
  Si  Si215  1  0.670705  0.153764  0.194252  1
  Si  Si216  1  0.670546  0.653965  0.194440  1
  Si  Si217  1  0.670718  0.846114  0.132333  1
  Si  Si218  1  0.670492  0.346308  0.132276  1
  Si  Si219  1  0.329339  0.846409  0.219550  1
  Si  Si220  1  0.329108  0.346212  0.219414  1
  Si  Si221  1  0.592601  0.000000  0.177387  1
  Si  Si222  1  0.592496  0.500069  0.177433  1
  Si  Si223  1  0.407394  -0.000000  0.236431  1
  Si  Si224  1  0.407263  0.500127  0.236457  1
  Si  Si225  1  0.222735  0.000000  0.192835  1
  Si  Si226  1  0.222577  0.500180  0.192936  1
  Si  Si227  1  0.777333  -0.000000  0.220985  1
  Si  Si228  1  0.777172  0.500017  0.220955  1
  Si  Si229  1  0.940058  0.155077  0.460002  1
  Si  Si230  1  0.939700  0.654723  0.460128  1
  Si  Si231  1  0.060447  0.154569  0.419410  1
  Si  Si232  1  0.060069  0.654916  0.419673  1
  Si  Si233  1  0.060044  0.845162  0.357217  1
  Si  Si234  1  0.059867  0.345504  0.357198  1
  Si  Si235  1  0.939680  0.845599  0.397799  1
  Si  Si236  1  0.939505  0.345254  0.397641  1
  Si  Si237  1  0.585274  0.245609  0.479848  1
  Si  Si238  1  0.584873  0.745371  0.479919  1
  Si  Si239  1  0.415269  0.245314  0.436261  1
  Si  Si240  1  0.414832  0.745559  0.436430  1
  Si  Si241  1  0.415004  0.754636  0.337430  1
  Si  Si242  1  0.414497  0.254821  0.337329  1
  Si  Si243  1  0.585053  0.754829  0.380997  1
  Si  Si244  1  0.584549  0.254641  0.380820  1
  Si  Si245  1  0.329281  0.154105  0.483194  1
  Si  Si246  1  0.329156  0.653906  0.483300  1
  Si  Si247  1  0.670705  0.153764  0.395967  1
  Si  Si248  1  0.670546  0.653965  0.396155  1
  Si  Si249  1  0.670718  0.846114  0.334049  1
  Si  Si250  1  0.670492  0.346308  0.333991  1
  Si  Si251  1  0.329339  0.846409  0.421265  1
  Si  Si252  1  0.329108  0.346212  0.421129  1
  Si  Si253  1  0.592601  0.000000  0.379102  1
  Si  Si254  1  0.592496  0.500069  0.379148  1
  Si  Si255  1  0.407394  0.000000  0.438146  1
  Si  Si256  1  0.407263  0.500127  0.438172  1
  Si  Si257  1  0.222735  0.000000  0.394551  1
  Si  Si258  1  0.222577  0.500180  0.394651  1
  Si  Si259  1  0.777333  0.000000  0.422700  1
  Si  Si260  1  0.777172  0.500017  0.422670  1
  Si  Si261  1  0.940058  0.155077  0.661717  1
  Si  Si262  1  0.939700  0.654723  0.661843  1
  Si  Si263  1  0.060447  0.154569  0.621125  1
  Si  Si264  1  0.060069  0.654916  0.621389  1
  Si  Si265  1  0.060044  0.845162  0.558932  1
  Si  Si266  1  0.059867  0.345504  0.558913  1
  Si  Si267  1  0.939680  0.845599  0.599514  1
  Si  Si268  1  0.939505  0.345254  0.599356  1
  Si  Si269  1  0.585274  0.245609  0.681563  1
  Si  Si270  1  0.584873  0.745371  0.681634  1
  Si  Si271  1  0.415269  0.245314  0.637976  1
  Si  Si272  1  0.414832  0.745559  0.638145  1
  Si  Si273  1  0.415004  0.754636  0.539146  1
  Si  Si274  1  0.414497  0.254821  0.539044  1
  Si  Si275  1  0.585053  0.754829  0.582712  1
  Si  Si276  1  0.584549  0.254641  0.582535  1
  Si  Si277  1  0.329281  0.154105  0.684909  1
  Si  Si278  1  0.329156  0.653906  0.685015  1
  Si  Si279  1  0.670705  0.153764  0.597682  1
  Si  Si280  1  0.670546  0.653965  0.597870  1
  Si  Si281  1  0.670718  0.846114  0.535764  1
  Si  Si282  1  0.670492  0.346308  0.535707  1
  Si  Si283  1  0.329339  0.846409  0.622980  1
  Si  Si284  1  0.329108  0.346212  0.622844  1
  Si  Si285  1  0.592601  0.000000  0.580817  1
  Si  Si286  1  0.592496  0.500069  0.580864  1
  Si  Si287  1  0.407394  0.000000  0.639861  1
  Si  Si288  1  0.407263  0.500127  0.639888  1
  Si  Si289  1  0.222735  -0.000000  0.596266  1
  Si  Si290  1  0.222577  0.500180  0.596366  1
  Si  Si291  1  0.777333  0.000000  0.624415  1
  Si  Si292  1  0.777172  0.500017  0.624385  1
  H  H293  1  0.617019  0.312422  0.091357  1
  H  H294  1  0.617104  0.812158  0.091418  1
  H  H295  1  0.383038  0.687836  0.094801  1
  H  H296  1  0.382363  0.188034  0.094701  1
  H  H297  1  0.617019  0.312422  0.722484  1
  H  H298  1  0.617104  0.812158  0.722545  1
  H  H299  1  0.383038  0.687836  0.725928  1
  H  H300  1  0.382363  0.188034  0.725828  1
