# generated using pymatgen
data_Si84H10O173
_symmetry_space_group_name_H-M   'P 1'
_cell_length_a   25.24803673
_cell_length_b   12.87887348
_cell_length_c   52.00874003
_cell_angle_alpha   90.00000000
_cell_angle_beta   90.00000000
_cell_angle_gamma   90.00000000
_symmetry_Int_Tables_number   1
_chemical_formula_structural   Si84H10O173
_chemical_formula_sum   'Si168 H20 O346'
_cell_volume   16911.4880367
_cell_formula_units_Z   2
loop_
 _symmetry_equiv_pos_site_id
 _symmetry_equiv_pos_as_xyz
  1  'x, y, z'
loop_
 _atom_site_type_symbol
 _atom_site_label
 _atom_site_symmetry_multiplicity
 _atom_site_fract_x
 _atom_site_fract_y
 _atom_site_fract_z
 _atom_site_occupancy
  O  O1  1  0.836090  0.593037  0.258526  1
  O  O2  1  0.926214  0.632451  0.240863  1
  O  O3  1  0.844437  0.612967  0.210454  1
  O  O4  1  0.844434  0.612987  0.113457  1
  O  O5  1  0.854193  0.771281  0.241347  1
  O  O6  1  0.800128  0.942378  0.241119  1
  O  O7  1  0.699821  0.942348  0.241127  1
  O  O8  1  0.899666  0.946731  0.249003  1
  O  O9  1  0.749976  0.556462  0.196706  1
  O  O10  1  0.749974  0.556469  0.127206  1
  O  O11  1  0.820057  0.564927  0.161955  1
  O  O12  1  0.679893  0.564929  0.161957  1
  O  O13  1  -0.000000  0.000000  0.246823  1
  O  O14  1  0.925662  0.139798  0.239862  1
  O  O15  1  0.974330  0.312862  0.241463  1
  O  O16  1  0.881370  0.299053  0.258613  1
  O  O17  1  0.892907  0.289484  0.210407  1
  O  O18  1  0.892905  0.289490  0.113502  1
  O  O19  1  0.859539  0.306133  0.161954  1
  O  O20  1  0.824791  0.426605  0.196367  1
  O  O21  1  0.675156  0.426608  0.196368  1
  O  O22  1  0.824792  0.426616  0.127543  1
  O  O23  1  0.675154  0.426617  0.127544  1
  O  O24  1  0.799576  0.235251  0.196670  1
  O  O25  1  0.700355  0.235249  0.196670  1
  O  O26  1  0.799574  0.235262  0.127237  1
  O  O27  1  0.700355  0.235260  0.127239  1
  O  O28  1  0.749963  0.069621  0.210462  1
  O  O29  1  0.749962  0.069634  0.113442  1
  O  O30  1  0.749971  0.094964  0.258561  1
  O  O31  1  0.749967  0.137373  0.161953  1
  O  O32  1  0.000000  0.499967  0.249964  1
  O  O33  1  0.663863  0.593058  0.258527  1
  O  O34  1  0.573731  0.632400  0.240862  1
  O  O35  1  0.655514  0.612971  0.210455  1
  O  O36  1  0.655509  0.612975  0.113459  1
  O  O37  1  0.645733  0.771279  0.241349  1
  O  O38  1  0.600282  0.946744  0.249001  1
  O  O39  1  0.425663  0.860101  0.239865  1
  O  O40  1  0.474346  0.687056  0.241462  1
  O  O41  1  0.381392  0.700824  0.258618  1
  O  O42  1  0.392913  0.710415  0.113504  1
  O  O43  1  0.392916  0.710412  0.210408  1
  O  O44  1  0.359548  0.693771  0.161957  1
  O  O45  1  0.499975  0.000000  0.246823  1
  O  O46  1  0.336080  0.406864  0.258526  1
  O  O47  1  0.426203  0.367477  0.240860  1
  O  O48  1  0.344428  0.386935  0.113458  1
  O  O49  1  0.344424  0.386932  0.210454  1
  O  O50  1  0.354195  0.228622  0.241351  1
  O  O51  1  0.399666  0.053166  0.249001  1
  O  O52  1  0.574288  0.139807  0.239865  1
  O  O53  1  0.525588  0.312837  0.241457  1
  O  O54  1  0.618539  0.299106  0.258616  1
  O  O55  1  0.607026  0.289497  0.210405  1
  O  O56  1  0.607029  0.289507  0.113502  1
  O  O57  1  0.640394  0.306148  0.161955  1
  O  O58  1  0.499965  0.499942  0.249962  1
  O  O59  1  0.074289  0.860114  0.239866  1
  O  O60  1  0.025602  0.687070  0.241462  1
  O  O61  1  0.118554  0.700837  0.258619  1
  O  O62  1  0.107033  0.710435  0.113507  1
  O  O63  1  0.107033  0.710429  0.210409  1
  O  O64  1  0.140400  0.693784  0.161958  1
  O  O65  1  0.175148  0.573307  0.127545  1
  O  O66  1  0.324792  0.573303  0.127544  1
  O  O67  1  0.175152  0.573307  0.196369  1
  O  O68  1  0.324788  0.573304  0.196369  1
  O  O69  1  0.200366  0.764655  0.127242  1
  O  O70  1  0.299586  0.764660  0.127241  1
  O  O71  1  0.200367  0.764659  0.196674  1
  O  O72  1  0.299588  0.764666  0.196674  1
  O  O73  1  0.249971  0.930282  0.113446  1
  O  O74  1  0.249970  0.930293  0.210466  1
  O  O75  1  0.249961  0.904956  0.258565  1
  O  O76  1  0.249975  0.862541  0.161957  1
  O  O77  1  0.163841  0.406888  0.258527  1
  O  O78  1  0.073718  0.367488  0.240861  1
  O  O79  1  0.155504  0.386947  0.113459  1
  O  O80  1  0.155502  0.386949  0.210455  1
  O  O81  1  0.145738  0.228648  0.241352  1
  O  O82  1  0.199821  0.057570  0.241126  1
  O  O83  1  0.300128  0.057534  0.241128  1
  O  O84  1  0.100282  0.053182  0.249001  1
  O  O85  1  0.249968  0.443459  0.127206  1
  O  O86  1  0.249967  0.443451  0.196706  1
  O  O87  1  0.179886  0.434989  0.161957  1
  O  O88  1  0.320049  0.434989  0.161956  1
  O  O89  1  0.836090  0.593037  0.500434  1
  O  O90  1  0.836100  0.593038  0.307294  1
  O  O91  1  0.926214  0.632451  0.482771  1
  O  O92  1  0.926214  0.632475  0.324960  1
  O  O93  1  0.844437  0.612967  0.452362  1
  O  O94  1  0.844434  0.612987  0.355365  1
  O  O95  1  0.854193  0.771281  0.483255  1
  O  O96  1  0.854182  0.771297  0.324467  1
  O  O97  1  0.800128  0.942378  0.483027  1
  O  O98  1  0.699821  0.942348  0.483035  1
  O  O99  1  0.800128  0.942412  0.324687  1
  O  O100  1  0.699822  0.942333  0.324695  1
  O  O101  1  0.839201  0.872344  0.282906  1
  O  O102  1  0.899666  0.946731  0.490911  1
  O  O103  1  0.899664  0.946738  0.316820  1
  O  O104  1  0.749976  0.562682  0.282914  1
  O  O105  1  0.978180  0.636242  0.282912  1
  O  O106  1  0.749976  0.556462  0.438614  1
  O  O107  1  0.749974  0.556469  0.369114  1
  O  O108  1  0.820057  0.564927  0.403863  1
  O  O109  1  0.679893  0.564929  0.403865  1
  O  O110  1  -0.000000  0.000000  0.488731  1
  O  O111  1  -0.000000  0.000000  0.318996  1
  O  O112  1  0.925662  0.139798  0.481770  1
  O  O113  1  0.925659  0.139807  0.325954  1
  O  O114  1  0.974330  0.312862  0.483371  1
  O  O115  1  0.974336  0.312860  0.324359  1
  O  O116  1  0.881370  0.299053  0.500521  1
  O  O117  1  0.881382  0.299070  0.307202  1
  O  O118  1  0.892907  0.289484  0.452315  1
  O  O119  1  0.892905  0.289490  0.355410  1
  O  O120  1  0.859539  0.306133  0.403862  1
  O  O121  1  0.824791  0.426605  0.438275  1
  O  O122  1  0.675156  0.426608  0.438276  1
  O  O123  1  0.824792  0.426616  0.369451  1
  O  O124  1  0.675154  0.426617  0.369452  1
  O  O125  1  0.799576  0.235251  0.438578  1
  O  O126  1  0.700355  0.235249  0.438578  1
  O  O127  1  0.799574  0.235262  0.369145  1
  O  O128  1  0.700355  0.235260  0.369147  1
  O  O129  1  0.822777  0.425461  0.282910  1
  O  O130  1  0.677161  0.425479  0.282909  1
  O  O131  1  0.800849  0.232349  0.282914  1
  O  O132  1  0.699076  0.232367  0.282895  1
  O  O133  1  0.749963  0.069621  0.452370  1
  O  O134  1  0.749962  0.069634  0.355350  1
  O  O135  1  0.749971  0.094964  0.500469  1
  O  O136  1  0.749935  0.094970  0.307252  1
  O  O137  1  0.941064  0.057288  0.282909  1
  O  O138  1  0.749967  0.137373  0.403861  1
  O  O139  1  -0.000000  0.499968  0.315860  1
  O  O140  1  -0.000000  0.499967  0.491872  1
  O  O141  1  0.663863  0.593058  0.500435  1
  O  O142  1  0.663853  0.593046  0.307296  1
  O  O143  1  0.573731  0.632400  0.482770  1
  O  O144  1  0.573724  0.632396  0.324961  1
  O  O145  1  0.655514  0.612971  0.452363  1
  O  O146  1  0.655509  0.612975  0.355367  1
  O  O147  1  0.645733  0.771279  0.483257  1
  O  O148  1  0.645725  0.771275  0.324470  1
  O  O149  1  0.600282  0.946744  0.490909  1
  O  O150  1  0.600282  0.946740  0.316820  1
  O  O151  1  0.425664  0.860104  0.325957  1
  O  O152  1  0.425663  0.860101  0.481773  1
  O  O153  1  0.474339  0.687050  0.324356  1
  O  O154  1  0.474346  0.687056  0.483370  1
  O  O155  1  0.381377  0.700842  0.307206  1
  O  O156  1  0.381392  0.700824  0.500526  1
  O  O157  1  0.392913  0.710415  0.355412  1
  O  O158  1  0.392916  0.710412  0.452316  1
  O  O159  1  0.359548  0.693771  0.403865  1
  O  O160  1  0.660730  0.872322  0.282910  1
  O  O161  1  0.521766  0.636203  0.282910  1
  O  O162  1  0.499975  0.000000  0.318998  1
  O  O163  1  0.441070  0.942617  0.282911  1
  O  O164  1  0.499975  0.000000  0.488731  1
  O  O165  1  0.336084  0.406860  0.307294  1
  O  O166  1  0.336080  0.406864  0.500434  1
  O  O167  1  0.426207  0.367455  0.324959  1
  O  O168  1  0.426203  0.367477  0.482768  1
  O  O169  1  0.344428  0.386935  0.355366  1
  O  O170  1  0.344424  0.386932  0.452362  1
  O  O171  1  0.354191  0.228619  0.324471  1
  O  O172  1  0.354195  0.228622  0.483259  1
  O  O173  1  0.399663  0.053165  0.316820  1
  O  O174  1  0.399666  0.053166  0.490909  1
  O  O175  1  0.574288  0.139807  0.481773  1
  O  O176  1  0.574288  0.139804  0.325956  1
  O  O177  1  0.525588  0.312837  0.483365  1
  O  O178  1  0.525599  0.312843  0.324356  1
  O  O179  1  0.618539  0.299106  0.500524  1
  O  O180  1  0.618561  0.299074  0.307204  1
  O  O181  1  0.607026  0.289497  0.452313  1
  O  O182  1  0.607029  0.289507  0.355410  1
  O  O183  1  0.640394  0.306148  0.403863  1
  O  O184  1  0.478169  0.363667  0.282908  1
  O  O185  1  0.558878  0.057300  0.282910  1
  O  O186  1  0.339212  0.127565  0.282911  1
  O  O187  1  0.499958  0.499939  0.315856  1
  O  O188  1  0.499965  0.499942  0.491870  1
  O  O189  1  0.074284  0.860123  0.325958  1
  O  O190  1  0.074289  0.860114  0.481774  1
  O  O191  1  0.025603  0.687069  0.324361  1
  O  O192  1  0.025602  0.687070  0.483370  1
  O  O193  1  0.118559  0.700854  0.307208  1
  O  O194  1  0.118554  0.700837  0.500527  1
  O  O195  1  0.107033  0.710435  0.355415  1
  O  O196  1  0.107033  0.710429  0.452317  1
  O  O197  1  0.140400  0.693784  0.403866  1
  O  O198  1  0.175148  0.573307  0.369453  1
  O  O199  1  0.324792  0.573303  0.369452  1
  O  O200  1  0.175152  0.573307  0.438277  1
  O  O201  1  0.324788  0.573304  0.438277  1
  O  O202  1  0.200366  0.764655  0.369150  1
  O  O203  1  0.299586  0.764660  0.369149  1
  O  O204  1  0.200367  0.764659  0.438582  1
  O  O205  1  0.299588  0.764666  0.438582  1
  O  O206  1  0.177161  0.574449  0.282915  1
  O  O207  1  0.322777  0.574439  0.282911  1
  O  O208  1  0.199085  0.767555  0.282909  1
  O  O209  1  0.300858  0.767556  0.282904  1
  O  O210  1  0.249971  0.930282  0.355354  1
  O  O211  1  0.249970  0.930293  0.452374  1
  O  O212  1  0.249973  0.904935  0.307256  1
  O  O213  1  0.249961  0.904956  0.500473  1
  O  O214  1  0.058879  0.942624  0.282911  1
  O  O215  1  0.249975  0.862541  0.403865  1
  O  O216  1  0.163846  0.406872  0.307296  1
  O  O217  1  0.163841  0.406888  0.500435  1
  O  O218  1  0.073723  0.367484  0.324960  1
  O  O219  1  0.073718  0.367488  0.482769  1
  O  O220  1  0.155504  0.386947  0.355367  1
  O  O221  1  0.155502  0.386949  0.452363  1
  O  O222  1  0.145744  0.228636  0.324472  1
  O  O223  1  0.145738  0.228648  0.483260  1
  O  O224  1  0.199818  0.057541  0.324694  1
  O  O225  1  0.300125  0.057530  0.324693  1
  O  O226  1  0.199821  0.057570  0.483034  1
  O  O227  1  0.300128  0.057534  0.483036  1
  O  O228  1  0.160735  0.127590  0.282911  1
  O  O229  1  0.100280  0.053188  0.316820  1
  O  O230  1  0.100282  0.053182  0.490909  1
  O  O231  1  0.249965  0.437233  0.282911  1
  O  O232  1  0.021757  0.363701  0.282911  1
  O  O233  1  0.249968  0.443459  0.369114  1
  O  O234  1  0.249967  0.443451  0.438614  1
  O  O235  1  0.179886  0.434989  0.403865  1
  O  O236  1  0.320049  0.434989  0.403864  1
  O  O237  1  0.836100  0.593038  0.549202  1
  O  O238  1  0.926214  0.632475  0.566868  1
  O  O239  1  0.844437  0.612967  0.694270  1
  O  O240  1  0.844434  0.612987  0.597273  1
  O  O241  1  0.854182  0.771297  0.566375  1
  O  O242  1  0.800128  0.942412  0.566595  1
  O  O243  1  0.699822  0.942333  0.566603  1
  O  O244  1  0.839201  0.872344  0.524814  1
  O  O245  1  0.899664  0.946738  0.558728  1
  O  O246  1  0.749976  0.562682  0.524822  1
  O  O247  1  0.978180  0.636242  0.524820  1
  O  O248  1  0.749976  0.556462  0.680522  1
  O  O249  1  0.749974  0.556469  0.611022  1
  O  O250  1  0.820057  0.564927  0.645771  1
  O  O251  1  0.679893  0.564929  0.645773  1
  O  O252  1  0.000000  0.000000  0.560904  1
  O  O253  1  0.925659  0.139807  0.567862  1
  O  O254  1  0.974336  0.312860  0.566267  1
  O  O255  1  0.881382  0.299070  0.549110  1
  O  O256  1  0.892907  0.289484  0.694223  1
  O  O257  1  0.892905  0.289490  0.597318  1
  O  O258  1  0.859539  0.306133  0.645770  1
  O  O259  1  0.824791  0.426605  0.680183  1
  O  O260  1  0.675156  0.426608  0.680184  1
  O  O261  1  0.824792  0.426616  0.611359  1
  O  O262  1  0.675154  0.426617  0.611360  1
  O  O263  1  0.799576  0.235251  0.680486  1
  O  O264  1  0.700355  0.235249  0.680486  1
  O  O265  1  0.799574  0.235262  0.611053  1
  O  O266  1  0.700355  0.235260  0.611055  1
  O  O267  1  0.822777  0.425461  0.524818  1
  O  O268  1  0.677161  0.425479  0.524817  1
  O  O269  1  0.800849  0.232349  0.524822  1
  O  O270  1  0.699076  0.232367  0.524803  1
  O  O271  1  0.749963  0.069621  0.694278  1
  O  O272  1  0.749962  0.069634  0.597258  1
  O  O273  1  0.749935  0.094970  0.549160  1
  O  O274  1  0.941064  0.057288  0.524817  1
  O  O275  1  0.749967  0.137373  0.645769  1
  O  O276  1  -0.000000  0.499968  0.557768  1
  O  O277  1  0.663853  0.593046  0.549204  1
  O  O278  1  0.573724  0.632396  0.566869  1
  O  O279  1  0.655514  0.612971  0.694271  1
  O  O280  1  0.655509  0.612975  0.597275  1
  O  O281  1  0.645725  0.771275  0.566378  1
  O  O282  1  0.600282  0.946740  0.558728  1
  O  O283  1  0.425664  0.860104  0.567865  1
  O  O284  1  0.474339  0.687050  0.566264  1
  O  O285  1  0.381377  0.700842  0.549114  1
  O  O286  1  0.392913  0.710415  0.597320  1
  O  O287  1  0.392916  0.710412  0.694224  1
  O  O288  1  0.359548  0.693771  0.645773  1
  O  O289  1  0.660730  0.872322  0.524818  1
  O  O290  1  0.521766  0.636203  0.524818  1
  O  O291  1  0.499975  0.000000  0.560906  1
  O  O292  1  0.441070  0.942617  0.524819  1
  O  O293  1  0.336084  0.406860  0.549202  1
  O  O294  1  0.426207  0.367455  0.566867  1
  O  O295  1  0.344428  0.386935  0.597274  1
  O  O296  1  0.344424  0.386932  0.694270  1
  O  O297  1  0.354191  0.228619  0.566379  1
  O  O298  1  0.399663  0.053165  0.558728  1
  O  O299  1  0.574288  0.139804  0.567864  1
  O  O300  1  0.525599  0.312843  0.566264  1
  O  O301  1  0.618561  0.299074  0.549111  1
  O  O302  1  0.607026  0.289497  0.694221  1
  O  O303  1  0.607029  0.289507  0.597318  1
  O  O304  1  0.640394  0.306148  0.645771  1
  O  O305  1  0.478169  0.363667  0.524816  1
  O  O306  1  0.558878  0.057300  0.524818  1
  O  O307  1  0.339212  0.127565  0.524819  1
  O  O308  1  0.499958  0.499939  0.557764  1
  O  O309  1  0.074284  0.860123  0.567866  1
  O  O310  1  0.025603  0.687069  0.566269  1
  O  O311  1  0.118559  0.700854  0.549116  1
  O  O312  1  0.107033  0.710435  0.597323  1
  O  O313  1  0.107033  0.710429  0.694225  1
  O  O314  1  0.140400  0.693784  0.645774  1
  O  O315  1  0.175148  0.573307  0.611361  1
  O  O316  1  0.324792  0.573303  0.611360  1
  O  O317  1  0.175152  0.573307  0.680185  1
  O  O318  1  0.324788  0.573304  0.680185  1
  O  O319  1  0.200366  0.764655  0.611058  1
  O  O320  1  0.299586  0.764660  0.611057  1
  O  O321  1  0.200367  0.764659  0.680490  1
  O  O322  1  0.299588  0.764666  0.680490  1
  O  O323  1  0.177161  0.574449  0.524823  1
  O  O324  1  0.322777  0.574439  0.524819  1
  O  O325  1  0.199085  0.767555  0.524817  1
  O  O326  1  0.300858  0.767556  0.524812  1
  O  O327  1  0.249971  0.930282  0.597262  1
  O  O328  1  0.249970  0.930293  0.694282  1
  O  O329  1  0.249973  0.904935  0.549164  1
  O  O330  1  0.058879  0.942624  0.524819  1
  O  O331  1  0.249975  0.862541  0.645773  1
  O  O332  1  0.163846  0.406872  0.549204  1
  O  O333  1  0.073723  0.367484  0.566868  1
  O  O334  1  0.155504  0.386947  0.597275  1
  O  O335  1  0.155502  0.386949  0.694271  1
  O  O336  1  0.145744  0.228636  0.566380  1
  O  O337  1  0.199818  0.057541  0.566602  1
  O  O338  1  0.300125  0.057530  0.566601  1
  O  O339  1  0.160735  0.127590  0.524819  1
  O  O340  1  0.100280  0.053188  0.558728  1
  O  O341  1  0.249965  0.437233  0.524819  1
  O  O342  1  0.021757  0.363701  0.524819  1
  O  O343  1  0.249968  0.443459  0.611022  1
  O  O344  1  0.249967  0.443451  0.680522  1
  O  O345  1  0.179886  0.434989  0.645773  1
  O  O346  1  0.320049  0.434989  0.645772  1
  Si  Si347  1  0.688943  0.543878  0.132397  1
  Si  Si348  1  0.811006  0.543879  0.132396  1
  Si  Si349  1  0.865754  0.653548  0.237006  1
  Si  Si350  1  0.847739  0.882062  0.253135  1
  Si  Si351  1  0.981981  0.614958  0.253243  1
  Si  Si352  1  0.811007  0.543869  0.191514  1
  Si  Si353  1  0.688944  0.543871  0.191515  1
  Si  Si354  1  0.749965  0.164859  0.132390  1
  Si  Si355  1  0.919189  0.260396  0.236856  1
  Si  Si356  1  0.845947  0.313728  0.191475  1
  Si  Si357  1  0.845946  0.313736  0.132433  1
  Si  Si358  1  0.941630  0.035069  0.253259  1
  Si  Si359  1  0.749966  0.164852  0.191516  1
  Si  Si360  1  0.749968  0.011162  0.237020  1
  Si  Si361  1  0.441633  0.964833  0.253260  1
  Si  Si362  1  0.634187  0.653543  0.237005  1
  Si  Si363  1  0.652200  0.882053  0.253139  1
  Si  Si364  1  0.419198  0.739501  0.236857  1
  Si  Si365  1  0.345954  0.686176  0.132436  1
  Si  Si366  1  0.345953  0.686177  0.191478  1
  Si  Si367  1  0.517961  0.614925  0.253241  1
  Si  Si368  1  0.365745  0.346355  0.237005  1
  Si  Si369  1  0.347743  0.117844  0.253140  1
  Si  Si370  1  0.580741  0.260408  0.236854  1
  Si  Si371  1  0.653989  0.313737  0.191476  1
  Si  Si372  1  0.653988  0.313745  0.132434  1
  Si  Si373  1  0.481972  0.384957  0.253239  1
  Si  Si374  1  0.558317  0.035077  0.253260  1
  Si  Si375  1  0.080750  0.739515  0.236858  1
  Si  Si376  1  0.153992  0.686185  0.132437  1
  Si  Si377  1  0.153994  0.686185  0.191479  1
  Si  Si378  1  0.058318  0.964846  0.253260  1
  Si  Si379  1  0.249975  0.835057  0.132394  1
  Si  Si380  1  0.249976  0.835062  0.191520  1
  Si  Si381  1  0.249969  0.988756  0.237023  1
  Si  Si382  1  0.310999  0.456043  0.191515  1
  Si  Si383  1  0.188935  0.456044  0.191516  1
  Si  Si384  1  0.134177  0.346377  0.237006  1
  Si  Si385  1  0.152202  0.117869  0.253139  1
  Si  Si386  1  0.017951  0.384979  0.253242  1
  Si  Si387  1  0.188936  0.456046  0.132398  1
  Si  Si388  1  0.311000  0.456043  0.132397  1
  Si  Si389  1  0.688943  0.543878  0.374305  1
  Si  Si390  1  0.811006  0.543879  0.374304  1
  Si  Si391  1  0.865754  0.653548  0.478914  1
  Si  Si392  1  0.865753  0.653572  0.328814  1
  Si  Si393  1  0.847739  0.882062  0.495043  1
  Si  Si394  1  0.847737  0.882076  0.312677  1
  Si  Si395  1  0.811049  0.544007  0.282912  1
  Si  Si396  1  0.688901  0.544019  0.282912  1
  Si  Si397  1  0.981981  0.614958  0.495151  1
  Si  Si398  1  0.981980  0.614959  0.312581  1
  Si  Si399  1  0.811007  0.543869  0.433422  1
  Si  Si400  1  0.688944  0.543871  0.433423  1
  Si  Si401  1  0.749965  0.164859  0.374298  1
  Si  Si402  1  0.919189  0.260396  0.478764  1
  Si  Si403  1  0.919191  0.260404  0.328962  1
  Si  Si404  1  0.845947  0.313728  0.433383  1
  Si  Si405  1  0.845946  0.313736  0.374341  1
  Si  Si406  1  0.846238  0.313865  0.282909  1
  Si  Si407  1  0.749959  0.164499  0.282906  1
  Si  Si408  1  0.941630  0.035069  0.495167  1
  Si  Si409  1  0.941629  0.035074  0.312560  1
  Si  Si410  1  0.749966  0.164852  0.433424  1
  Si  Si411  1  0.749963  0.011171  0.328794  1
  Si  Si412  1  0.749968  0.011162  0.478928  1
  Si  Si413  1  0.441633  0.964833  0.495168  1
  Si  Si414  1  0.441632  0.964836  0.312561  1
  Si  Si415  1  0.634187  0.653543  0.478913  1
  Si  Si416  1  0.634180  0.653540  0.328816  1
  Si  Si417  1  0.652200  0.882053  0.495047  1
  Si  Si418  1  0.652199  0.882047  0.312681  1
  Si  Si419  1  0.419195  0.739506  0.328963  1
  Si  Si420  1  0.419198  0.739501  0.478765  1
  Si  Si421  1  0.345954  0.686176  0.374344  1
  Si  Si422  1  0.345953  0.686177  0.433386  1
  Si  Si423  1  0.346245  0.686031  0.282910  1
  Si  Si424  1  0.517961  0.614925  0.495149  1
  Si  Si425  1  0.517956  0.614921  0.312579  1
  Si  Si426  1  0.365748  0.346350  0.328815  1
  Si  Si427  1  0.365745  0.346355  0.478913  1
  Si  Si428  1  0.347740  0.117841  0.312682  1
  Si  Si429  1  0.347743  0.117844  0.495048  1
  Si  Si430  1  0.580741  0.260408  0.478762  1
  Si  Si431  1  0.580748  0.260405  0.328962  1
  Si  Si432  1  0.653989  0.313737  0.433384  1
  Si  Si433  1  0.653988  0.313745  0.374342  1
  Si  Si434  1  0.653690  0.313891  0.282907  1
  Si  Si435  1  0.481974  0.384950  0.312577  1
  Si  Si436  1  0.481972  0.384957  0.495147  1
  Si  Si437  1  0.558317  0.035077  0.495168  1
  Si  Si438  1  0.558317  0.035074  0.312561  1
  Si  Si439  1  0.080747  0.739524  0.328967  1
  Si  Si440  1  0.080750  0.739515  0.478766  1
  Si  Si441  1  0.153992  0.686185  0.374345  1
  Si  Si442  1  0.153994  0.686185  0.433387  1
  Si  Si443  1  0.153695  0.686041  0.282913  1
  Si  Si444  1  0.249971  0.835414  0.282908  1
  Si  Si445  1  0.058316  0.964851  0.312561  1
  Si  Si446  1  0.058318  0.964846  0.495168  1
  Si  Si447  1  0.249975  0.835057  0.374302  1
  Si  Si448  1  0.249976  0.835062  0.433428  1
  Si  Si449  1  0.249969  0.988756  0.478931  1
  Si  Si450  1  0.249970  0.988739  0.328796  1
  Si  Si451  1  0.310999  0.456043  0.433423  1
  Si  Si452  1  0.188935  0.456044  0.433424  1
  Si  Si453  1  0.134181  0.346366  0.328817  1
  Si  Si454  1  0.134177  0.346377  0.478914  1
  Si  Si455  1  0.152204  0.117861  0.312682  1
  Si  Si456  1  0.152202  0.117869  0.495047  1
  Si  Si457  1  0.188891  0.455905  0.282912  1
  Si  Si458  1  0.311039  0.455897  0.282911  1
  Si  Si459  1  0.017955  0.384982  0.312580  1
  Si  Si460  1  0.017951  0.384979  0.495150  1
  Si  Si461  1  0.188936  0.456046  0.374306  1
  Si  Si462  1  0.311000  0.456043  0.374305  1
  Si  Si463  1  0.688943  0.543878  0.616213  1
  Si  Si464  1  0.811006  0.543879  0.616212  1
  Si  Si465  1  0.865753  0.653572  0.570722  1
  Si  Si466  1  0.847737  0.882076  0.554585  1
  Si  Si467  1  0.811049  0.544007  0.524820  1
  Si  Si468  1  0.688901  0.544019  0.524820  1
  Si  Si469  1  0.981980  0.614959  0.554489  1
  Si  Si470  1  0.811007  0.543869  0.675330  1
  Si  Si471  1  0.688944  0.543871  0.675331  1
  Si  Si472  1  0.749965  0.164859  0.616206  1
  Si  Si473  1  0.919191  0.260404  0.570870  1
  Si  Si474  1  0.845947  0.313728  0.675291  1
  Si  Si475  1  0.845946  0.313736  0.616249  1
  Si  Si476  1  0.846238  0.313865  0.524817  1
  Si  Si477  1  0.749959  0.164499  0.524814  1
  Si  Si478  1  0.941629  0.035074  0.554468  1
  Si  Si479  1  0.749966  0.164852  0.675332  1
  Si  Si480  1  0.749963  0.011171  0.570702  1
  Si  Si481  1  0.441632  0.964836  0.554469  1
  Si  Si482  1  0.634180  0.653540  0.570724  1
  Si  Si483  1  0.652199  0.882047  0.554589  1
  Si  Si484  1  0.419195  0.739506  0.570871  1
  Si  Si485  1  0.345954  0.686176  0.616252  1
  Si  Si486  1  0.345953  0.686177  0.675294  1
  Si  Si487  1  0.346245  0.686031  0.524818  1
  Si  Si488  1  0.517956  0.614921  0.554487  1
  Si  Si489  1  0.365748  0.346350  0.570723  1
  Si  Si490  1  0.347740  0.117841  0.554590  1
  Si  Si491  1  0.580748  0.260405  0.570870  1
  Si  Si492  1  0.653989  0.313737  0.675292  1
  Si  Si493  1  0.653988  0.313745  0.616250  1
  Si  Si494  1  0.653690  0.313891  0.524814  1
  Si  Si495  1  0.481974  0.384950  0.554485  1
  Si  Si496  1  0.558317  0.035074  0.554469  1
  Si  Si497  1  0.080747  0.739524  0.570874  1
  Si  Si498  1  0.153992  0.686185  0.616253  1
  Si  Si499  1  0.153994  0.686185  0.675295  1
  Si  Si500  1  0.153695  0.686041  0.524821  1
  Si  Si501  1  0.249971  0.835414  0.524816  1
  Si  Si502  1  0.058316  0.964851  0.554469  1
  Si  Si503  1  0.249975  0.835057  0.616210  1
  Si  Si504  1  0.249976  0.835062  0.675336  1
  Si  Si505  1  0.249970  0.988739  0.570704  1
  Si  Si506  1  0.310999  0.456043  0.675331  1
  Si  Si507  1  0.188935  0.456044  0.675332  1
  Si  Si508  1  0.134181  0.346366  0.570725  1
  Si  Si509  1  0.152204  0.117861  0.554590  1
  Si  Si510  1  0.188891  0.455905  0.524820  1
  Si  Si511  1  0.311039  0.455897  0.524819  1
  Si  Si512  1  0.017955  0.384982  0.554488  1
  Si  Si513  1  0.188936  0.456046  0.616214  1
  Si  Si514  1  0.311000  0.456043  0.616213  1
  H  H515  1  0.844434  0.612987  0.096152  1
  H  H516  1  0.892905  0.289490  0.096198  1
  H  H517  1  0.749962  0.069634  0.096138  1
  H  H518  1  0.655509  0.612975  0.096154  1
  H  H519  1  0.392913  0.710415  0.096200  1
  H  H520  1  0.344428  0.386935  0.096153  1
  H  H521  1  0.607029  0.289507  0.096198  1
  H  H522  1  0.107033  0.710435  0.096202  1
  H  H523  1  0.249971  0.930282  0.096142  1
  H  H524  1  0.155504  0.386947  0.096154  1
  H  H525  1  0.844437  0.612967  0.711575  1
  H  H526  1  0.892907  0.289484  0.711527  1
  H  H527  1  0.749963  0.069621  0.711583  1
  H  H528  1  0.655514  0.612971  0.711576  1
  H  H529  1  0.392916  0.710412  0.711529  1
  H  H530  1  0.344424  0.386932  0.711575  1
  H  H531  1  0.607026  0.289497  0.711526  1
  H  H532  1  0.107033  0.710429  0.711530  1
  H  H533  1  0.249970  0.930293  0.711587  1
  H  H534  1  0.155502  0.386949  0.711576  1
