# generated using pymatgen
data_Si47H10O99
_symmetry_space_group_name_H-M   'P 1'
_cell_length_a   25.24803673
_cell_length_b   12.87887348
_cell_length_c   39.42741089
_cell_angle_alpha   90.00000000
_cell_angle_beta   90.00000000
_cell_angle_gamma   90.00000000
_symmetry_Int_Tables_number   1
_chemical_formula_structural   Si47H10O99
_chemical_formula_sum   'Si94 H20 O198'
_cell_volume   12820.4641602
_cell_formula_units_Z   2
loop_
 _symmetry_equiv_pos_site_id
 _symmetry_equiv_pos_as_xyz
  1  'x, y, z'
loop_
 _atom_site_type_symbol
 _atom_site_label
 _atom_site_symmetry_multiplicity
 _atom_site_fract_x
 _atom_site_fract_y
 _atom_site_fract_z
 _atom_site_occupancy
  O  O1  1  0.836090  0.593037  0.341022  1
  O  O2  1  0.926214  0.632451  0.317723  1
  O  O3  1  0.844437  0.612967  0.277610  1
  O  O4  1  0.844434  0.612987  0.149662  1
  O  O5  1  0.854193  0.771281  0.318361  1
  O  O6  1  0.800128  0.942378  0.318060  1
  O  O7  1  0.699821  0.942348  0.318070  1
  O  O8  1  0.899666  0.946731  0.328460  1
  O  O9  1  0.749976  0.556462  0.259475  1
  O  O10  1  0.749974  0.556469  0.167798  1
  O  O11  1  0.820057  0.564927  0.213635  1
  O  O12  1  0.679893  0.564929  0.213637  1
  O  O13  1  0.000000  -0.000000  0.325585  1
  O  O14  1  0.925662  0.139798  0.316403  1
  O  O15  1  0.974330  0.312862  0.318515  1
  O  O16  1  0.881370  0.299053  0.341137  1
  O  O17  1  0.892907  0.289484  0.277548  1
  O  O18  1  0.892905  0.289490  0.149721  1
  O  O19  1  0.859539  0.306133  0.213634  1
  O  O20  1  0.824791  0.426605  0.259027  1
  O  O21  1  0.675156  0.426608  0.259029  1
  O  O22  1  0.824792  0.426616  0.168242  1
  O  O23  1  0.675154  0.426617  0.168244  1
  O  O24  1  0.799576  0.235251  0.259428  1
  O  O25  1  0.700355  0.235249  0.259428  1
  O  O26  1  0.799574  0.235262  0.167839  1
  O  O27  1  0.700355  0.235260  0.167841  1
  O  O28  1  0.749963  0.069621  0.277621  1
  O  O29  1  0.749962  0.069634  0.149642  1
  O  O30  1  0.749971  0.094964  0.341068  1
  O  O31  1  0.749967  0.137373  0.213632  1
  O  O32  1  0.000000  0.499967  0.329728  1
  O  O33  1  0.663863  0.593058  0.341023  1
  O  O34  1  0.573731  0.632400  0.317721  1
  O  O35  1  0.655514  0.612971  0.277611  1
  O  O36  1  0.655509  0.612975  0.149664  1
  O  O37  1  0.645733  0.771279  0.318363  1
  O  O38  1  0.600282  0.946744  0.328457  1
  O  O39  1  0.425663  0.860101  0.316407  1
  O  O40  1  0.474346  0.687056  0.318512  1
  O  O41  1  0.381392  0.700824  0.341144  1
  O  O42  1  0.392913  0.710415  0.149724  1
  O  O43  1  0.392916  0.710412  0.277549  1
  O  O44  1  0.359548  0.693771  0.213637  1
  O  O45  1  0.499975  -0.000000  0.325585  1
  O  O46  1  0.336080  0.406864  0.341021  1
  O  O47  1  0.426203  0.367477  0.317719  1
  O  O48  1  0.344428  0.386935  0.149662  1
  O  O49  1  0.344424  0.386932  0.277610  1
  O  O50  1  0.354195  0.228622  0.318366  1
  O  O51  1  0.399666  0.053166  0.328458  1
  O  O52  1  0.574288  0.139807  0.316406  1
  O  O53  1  0.525588  0.312837  0.318506  1
  O  O54  1  0.618539  0.299106  0.341140  1
  O  O55  1  0.607026  0.289497  0.277546  1
  O  O56  1  0.607029  0.289507  0.149721  1
  O  O57  1  0.640394  0.306148  0.213635  1
  O  O58  1  0.499965  0.499942  0.329725  1
  O  O59  1  0.074289  0.860114  0.316408  1
  O  O60  1  0.025602  0.687070  0.318513  1
  O  O61  1  0.118554  0.700837  0.341145  1
  O  O62  1  0.107033  0.710435  0.149727  1
  O  O63  1  0.107033  0.710429  0.277551  1
  O  O64  1  0.140400  0.693784  0.213639  1
  O  O65  1  0.175148  0.573307  0.168245  1
  O  O66  1  0.324792  0.573303  0.168244  1
  O  O67  1  0.175152  0.573307  0.259031  1
  O  O68  1  0.324788  0.573304  0.259030  1
  O  O69  1  0.200366  0.764655  0.167845  1
  O  O70  1  0.299586  0.764660  0.167844  1
  O  O71  1  0.200367  0.764659  0.259433  1
  O  O72  1  0.299588  0.764666  0.259433  1
  O  O73  1  0.249971  0.930282  0.149647  1
  O  O74  1  0.249970  0.930293  0.277626  1
  O  O75  1  0.249961  0.904956  0.341073  1
  O  O76  1  0.249975  0.862541  0.213637  1
  O  O77  1  0.163841  0.406888  0.341023  1
  O  O78  1  0.073718  0.367488  0.317720  1
  O  O79  1  0.155504  0.386947  0.149664  1
  O  O80  1  0.155502  0.386949  0.277612  1
  O  O81  1  0.145738  0.228648  0.318368  1
  O  O82  1  0.199821  0.057570  0.318069  1
  O  O83  1  0.300128  0.057534  0.318072  1
  O  O84  1  0.100282  0.053182  0.328458  1
  O  O85  1  0.249968  0.443459  0.167798  1
  O  O86  1  0.249967  0.443451  0.259475  1
  O  O87  1  0.179886  0.434989  0.213637  1
  O  O88  1  0.320049  0.434989  0.213636  1
  O  O89  1  0.836100  0.593038  0.405352  1
  O  O90  1  0.926214  0.632475  0.428655  1
  O  O91  1  0.844437  0.612967  0.596711  1
  O  O92  1  0.844434  0.612987  0.468763  1
  O  O93  1  0.854182  0.771297  0.428004  1
  O  O94  1  0.800128  0.942412  0.428295  1
  O  O95  1  0.699822  0.942333  0.428305  1
  O  O96  1  0.839201  0.872344  0.373182  1
  O  O97  1  0.899664  0.946738  0.417918  1
  O  O98  1  0.749976  0.562682  0.373192  1
  O  O99  1  0.978180  0.636242  0.373190  1
  O  O100  1  0.749976  0.556462  0.578576  1
  O  O101  1  0.749974  0.556469  0.486899  1
  O  O102  1  0.820057  0.564927  0.532736  1
  O  O103  1  0.679893  0.564929  0.532738  1
  O  O104  1  -0.000000  -0.000000  0.420788  1
  O  O105  1  0.925659  0.139807  0.429966  1
  O  O106  1  0.974336  0.312860  0.427862  1
  O  O107  1  0.881382  0.299070  0.405231  1
  O  O108  1  0.892907  0.289484  0.596649  1
  O  O109  1  0.892905  0.289490  0.468822  1
  O  O110  1  0.859539  0.306133  0.532735  1
  O  O111  1  0.824791  0.426605  0.578128  1
  O  O112  1  0.675156  0.426608  0.578130  1
  O  O113  1  0.824792  0.426616  0.487343  1
  O  O114  1  0.675154  0.426617  0.487345  1
  O  O115  1  0.799576  0.235251  0.578529  1
  O  O116  1  0.700355  0.235249  0.578529  1
  O  O117  1  0.799574  0.235262  0.486940  1
  O  O118  1  0.700355  0.235260  0.486942  1
  O  O119  1  0.822777  0.425461  0.373186  1
  O  O120  1  0.677161  0.425479  0.373185  1
  O  O121  1  0.800849  0.232349  0.373193  1
  O  O122  1  0.699076  0.232367  0.373168  1
  O  O123  1  0.749963  0.069621  0.596722  1
  O  O124  1  0.749962  0.069634  0.468743  1
  O  O125  1  0.749935  0.094970  0.405296  1
  O  O126  1  0.941064  0.057288  0.373186  1
  O  O127  1  0.749967  0.137373  0.532733  1
  O  O128  1  -0.000000  0.499968  0.416652  1
  O  O129  1  0.663853  0.593046  0.405354  1
  O  O130  1  0.573724  0.632396  0.428656  1
  O  O131  1  0.655514  0.612971  0.596712  1
  O  O132  1  0.655509  0.612975  0.468765  1
  O  O133  1  0.645725  0.771275  0.428009  1
  O  O134  1  0.600282  0.946740  0.417917  1
  O  O135  1  0.425664  0.860104  0.429970  1
  O  O136  1  0.474339  0.687050  0.427859  1
  O  O137  1  0.381377  0.700842  0.405236  1
  O  O138  1  0.392913  0.710415  0.468825  1
  O  O139  1  0.392916  0.710412  0.596650  1
  O  O140  1  0.359548  0.693771  0.532739  1
  O  O141  1  0.660730  0.872322  0.373187  1
  O  O142  1  0.521766  0.636203  0.373187  1
  O  O143  1  0.499975  0.000000  0.420791  1
  O  O144  1  0.441070  0.942617  0.373188  1
  O  O145  1  0.336084  0.406860  0.405352  1
  O  O146  1  0.426207  0.367455  0.428653  1
  O  O147  1  0.344428  0.386935  0.468763  1
  O  O148  1  0.344424  0.386932  0.596711  1
  O  O149  1  0.354191  0.228619  0.428010  1
  O  O150  1  0.399663  0.053165  0.417918  1
  O  O151  1  0.574288  0.139804  0.429969  1
  O  O152  1  0.525599  0.312843  0.427858  1
  O  O153  1  0.618561  0.299074  0.405232  1
  O  O154  1  0.607026  0.289497  0.596647  1
  O  O155  1  0.607029  0.289507  0.468822  1
  O  O156  1  0.640394  0.306148  0.532736  1
  O  O157  1  0.478169  0.363667  0.373185  1
  O  O158  1  0.558878  0.057300  0.373187  1
  O  O159  1  0.339212  0.127565  0.373188  1
  O  O160  1  0.499958  0.499939  0.416646  1
  O  O161  1  0.074284  0.860123  0.429971  1
  O  O162  1  0.025603  0.687069  0.427865  1
  O  O163  1  0.118559  0.700854  0.405238  1
  O  O164  1  0.107033  0.710435  0.468828  1
  O  O165  1  0.107033  0.710429  0.596652  1
  O  O166  1  0.140400  0.693784  0.532740  1
  O  O167  1  0.175148  0.573307  0.487346  1
  O  O168  1  0.324792  0.573303  0.487345  1
  O  O169  1  0.175152  0.573307  0.578132  1
  O  O170  1  0.324788  0.573304  0.578131  1
  O  O171  1  0.200366  0.764655  0.486946  1
  O  O172  1  0.299586  0.764660  0.486945  1
  O  O173  1  0.200367  0.764659  0.578534  1
  O  O174  1  0.299588  0.764666  0.578534  1
  O  O175  1  0.177161  0.574449  0.373193  1
  O  O176  1  0.322777  0.574439  0.373189  1
  O  O177  1  0.199085  0.767555  0.373186  1
  O  O178  1  0.300858  0.767556  0.373178  1
  O  O179  1  0.249971  0.930282  0.468748  1
  O  O180  1  0.249970  0.930293  0.596727  1
  O  O181  1  0.249973  0.904935  0.405302  1
  O  O182  1  0.058879  0.942624  0.373188  1
  O  O183  1  0.249975  0.862541  0.532739  1
  O  O184  1  0.163846  0.406872  0.405354  1
  O  O185  1  0.073723  0.367484  0.428655  1
  O  O186  1  0.155504  0.386947  0.468765  1
  O  O187  1  0.155502  0.386949  0.596713  1
  O  O188  1  0.145744  0.228636  0.428012  1
  O  O189  1  0.199818  0.057541  0.428304  1
  O  O190  1  0.300125  0.057530  0.428303  1
  O  O191  1  0.160735  0.127590  0.373188  1
  O  O192  1  0.100280  0.053188  0.417917  1
  O  O193  1  0.249965  0.437233  0.373188  1
  O  O194  1  0.021757  0.363701  0.373189  1
  O  O195  1  0.249968  0.443459  0.486899  1
  O  O196  1  0.249967  0.443451  0.578576  1
  O  O197  1  0.179886  0.434989  0.532738  1
  O  O198  1  0.320049  0.434989  0.532737  1
  Si  Si199  1  0.688943  0.543878  0.174646  1
  Si  Si200  1  0.811006  0.543879  0.174644  1
  Si  Si201  1  0.865754  0.653548  0.312634  1
  Si  Si202  1  0.847739  0.882062  0.333911  1
  Si  Si203  1  0.981981  0.614958  0.334053  1
  Si  Si204  1  0.811007  0.543869  0.252626  1
  Si  Si205  1  0.688944  0.543871  0.252628  1
  Si  Si206  1  0.749965  0.164859  0.174636  1
  Si  Si207  1  0.919189  0.260396  0.312437  1
  Si  Si208  1  0.845947  0.313728  0.252575  1
  Si  Si209  1  0.845946  0.313736  0.174693  1
  Si  Si210  1  0.941630  0.035069  0.334074  1
  Si  Si211  1  0.749966  0.164852  0.252629  1
  Si  Si212  1  0.749968  0.011162  0.312653  1
  Si  Si213  1  0.441633  0.964833  0.334076  1
  Si  Si214  1  0.634187  0.653543  0.312634  1
  Si  Si215  1  0.652200  0.882053  0.333916  1
  Si  Si216  1  0.419198  0.739501  0.312439  1
  Si  Si217  1  0.345954  0.686176  0.174697  1
  Si  Si218  1  0.345953  0.686177  0.252578  1
  Si  Si219  1  0.517961  0.614925  0.334050  1
  Si  Si220  1  0.365745  0.346355  0.312634  1
  Si  Si221  1  0.347743  0.117844  0.333917  1
  Si  Si222  1  0.580741  0.260408  0.312434  1
  Si  Si223  1  0.653989  0.313737  0.252576  1
  Si  Si224  1  0.653988  0.313745  0.174694  1
  Si  Si225  1  0.481972  0.384957  0.334048  1
  Si  Si226  1  0.558317  0.035077  0.334075  1
  Si  Si227  1  0.080750  0.739515  0.312439  1
  Si  Si228  1  0.153992  0.686185  0.174698  1
  Si  Si229  1  0.153994  0.686185  0.252580  1
  Si  Si230  1  0.058318  0.964846  0.334076  1
  Si  Si231  1  0.249975  0.835057  0.174641  1
  Si  Si232  1  0.249976  0.835062  0.252635  1
  Si  Si233  1  0.249969  0.988756  0.312658  1
  Si  Si234  1  0.310999  0.456043  0.252627  1
  Si  Si235  1  0.188935  0.456044  0.252628  1
  Si  Si236  1  0.134177  0.346377  0.312635  1
  Si  Si237  1  0.152202  0.117869  0.333917  1
  Si  Si238  1  0.017951  0.384979  0.334052  1
  Si  Si239  1  0.188936  0.456046  0.174646  1
  Si  Si240  1  0.311000  0.456043  0.174645  1
  Si  Si241  1  0.688943  0.543878  0.493747  1
  Si  Si242  1  0.811006  0.543879  0.493745  1
  Si  Si243  1  0.865753  0.653572  0.433739  1
  Si  Si244  1  0.847737  0.882076  0.412453  1
  Si  Si245  1  0.811049  0.544007  0.373189  1
  Si  Si246  1  0.688901  0.544019  0.373189  1
  Si  Si247  1  0.981980  0.614959  0.412326  1
  Si  Si248  1  0.811007  0.543869  0.571727  1
  Si  Si249  1  0.688944  0.543871  0.571729  1
  Si  Si250  1  0.749965  0.164859  0.493737  1
  Si  Si251  1  0.919191  0.260404  0.433935  1
  Si  Si252  1  0.845947  0.313728  0.571676  1
  Si  Si253  1  0.845946  0.313736  0.493794  1
  Si  Si254  1  0.846238  0.313865  0.373186  1
  Si  Si255  1  0.749959  0.164499  0.373182  1
  Si  Si256  1  0.941629  0.035074  0.412298  1
  Si  Si257  1  0.749966  0.164852  0.571730  1
  Si  Si258  1  0.749963  0.011171  0.433712  1
  Si  Si259  1  0.441632  0.964836  0.412300  1
  Si  Si260  1  0.634180  0.653540  0.433742  1
  Si  Si261  1  0.652199  0.882047  0.412458  1
  Si  Si262  1  0.419195  0.739506  0.433936  1
  Si  Si263  1  0.345954  0.686176  0.493798  1
  Si  Si264  1  0.345953  0.686177  0.571679  1
  Si  Si265  1  0.346245  0.686031  0.373187  1
  Si  Si266  1  0.517956  0.614921  0.412323  1
  Si  Si267  1  0.365748  0.346350  0.433741  1
  Si  Si268  1  0.347740  0.117841  0.412459  1
  Si  Si269  1  0.580748  0.260405  0.433935  1
  Si  Si270  1  0.653989  0.313737  0.571677  1
  Si  Si271  1  0.653988  0.313745  0.493795  1
  Si  Si272  1  0.653690  0.313891  0.373182  1
  Si  Si273  1  0.481974  0.384950  0.412321  1
  Si  Si274  1  0.558317  0.035074  0.412299  1
  Si  Si275  1  0.080747  0.739524  0.433940  1
  Si  Si276  1  0.153992  0.686185  0.493799  1
  Si  Si277  1  0.153994  0.686185  0.571681  1
  Si  Si278  1  0.153695  0.686041  0.373191  1
  Si  Si279  1  0.249971  0.835414  0.373185  1
  Si  Si280  1  0.058316  0.964851  0.412299  1
  Si  Si281  1  0.249975  0.835057  0.493742  1
  Si  Si282  1  0.249976  0.835062  0.571736  1
  Si  Si283  1  0.249970  0.988739  0.433716  1
  Si  Si284  1  0.310999  0.456043  0.571729  1
  Si  Si285  1  0.188935  0.456044  0.571730  1
  Si  Si286  1  0.134181  0.346366  0.433742  1
  Si  Si287  1  0.152204  0.117861  0.412459  1
  Si  Si288  1  0.188891  0.455905  0.373189  1
  Si  Si289  1  0.311039  0.455897  0.373188  1
  Si  Si290  1  0.017955  0.384982  0.412325  1
  Si  Si291  1  0.188936  0.456046  0.493747  1
  Si  Si292  1  0.311000  0.456043  0.493746  1
  H  H293  1  0.844434  0.612987  0.126835  1
  H  H294  1  0.892905  0.289490  0.126894  1
  H  H295  1  0.749962  0.069634  0.126815  1
  H  H296  1  0.655509  0.612975  0.126837  1
  H  H297  1  0.392913  0.710415  0.126897  1
  H  H298  1  0.344428  0.386935  0.126835  1
  H  H299  1  0.607029  0.289507  0.126894  1
  H  H300  1  0.107033  0.710435  0.126900  1
  H  H301  1  0.249971  0.930282  0.126820  1
  H  H302  1  0.155504  0.386947  0.126837  1
  H  H303  1  0.844437  0.612967  0.619538  1
  H  H304  1  0.892907  0.289484  0.619476  1
  H  H305  1  0.749963  0.069621  0.619549  1
  H  H306  1  0.655514  0.612971  0.619539  1
  H  H307  1  0.392916  0.710412  0.619477  1
  H  H308  1  0.344424  0.386932  0.619538  1
  H  H309  1  0.607026  0.289497  0.619474  1
  H  H310  1  0.107033  0.710429  0.619479  1
  H  H311  1  0.249970  0.930293  0.619554  1
  H  H312  1  0.155502  0.386949  0.619540  1
