# generated using pymatgen
data_Si16H6O35
_symmetry_space_group_name_H-M   'P 1'
_cell_length_a   7.51561045
_cell_length_b   23.17128744
_cell_length_c   38.79511941
_cell_angle_alpha   52.20637989
_cell_angle_beta   90.00000000
_cell_angle_gamma   90.00000000
_symmetry_Int_Tables_number   1
_chemical_formula_structural   Si16H6O35
_chemical_formula_sum   'Si32 H12 O70'
_cell_volume   5338.7714002
_cell_formula_units_Z   2
loop_
 _symmetry_equiv_pos_site_id
 _symmetry_equiv_pos_as_xyz
  1  'x, y, z'
loop_
 _atom_site_type_symbol
 _atom_site_label
 _atom_site_symmetry_multiplicity
 _atom_site_fract_x
 _atom_site_fract_y
 _atom_site_fract_z
 _atom_site_occupancy
  O  O1  1  0.744609  0.998381  0.262825  1
  O  O2  1  0.744607  0.501736  0.261596  1
  O  O3  1  0.255064  0.001793  0.261576  1
  O  O4  1  0.255062  0.498323  0.262846  1
  O  O5  1  0.742203  0.107365  0.263956  1
  O  O6  1  0.731005  0.609925  0.263058  1
  O  O7  1  0.742234  0.107367  0.331339  1
  O  O8  1  0.730978  0.609922  0.330281  1
  O  O9  1  0.268669  0.109925  0.330322  1
  O  O10  1  0.257473  0.607365  0.331299  1
  O  O11  1  0.268698  0.109921  0.263102  1
  O  O12  1  0.257440  0.607367  0.263914  1
  O  O13  1  0.838916  0.220954  0.256066  1
  O  O14  1  0.822686  0.723942  0.254943  1
  O  O15  1  0.176988  0.223942  0.254973  1
  O  O16  1  0.160759  0.720953  0.256037  1
  O  O17  1  0.007729  0.750107  0.336874  1
  O  O18  1  0.002892  0.317438  0.186325  1
  O  O19  1  0.996781  0.817406  0.186295  1
  O  O20  1  0.002895  0.317406  0.255201  1
  O  O21  1  0.996784  0.817438  0.255147  1
  O  O22  1  0.834516  0.128451  0.193848  1
  O  O23  1  0.824599  0.633569  0.192521  1
  O  O24  1  0.824601  0.866547  0.290257  1
  O  O25  1  0.834515  0.371665  0.287837  1
  O  O26  1  0.165155  0.871757  0.287753  1
  O  O27  1  0.175073  0.366456  0.290341  1
  O  O28  1  0.175075  0.133659  0.192539  1
  O  O29  1  0.165151  0.628359  0.193832  1
  O  O30  1  0.507924  0.175981  0.272536  1
  O  O31  1  0.491750  0.675981  0.272488  1
  O  O32  1  0.504297  0.096575  0.222106  1
  O  O33  1  0.495374  0.596514  0.222096  1
  O  O34  1  0.495376  0.903602  0.292705  1
  O  O35  1  0.504295  0.403541  0.292761  1
  O  O36  1  0.744611  0.998323  0.412231  1
  O  O37  1  0.744613  0.501793  0.410961  1
  O  O38  1  0.255066  0.001735  0.410983  1
  O  O39  1  0.255069  0.498380  0.412211  1
  O  O40  1  0.731006  0.890191  0.343485  1
  O  O41  1  0.742202  0.392751  0.342509  1
  O  O42  1  0.730978  0.890194  0.410706  1
  O  O43  1  0.742235  0.392749  0.409894  1
  O  O44  1  0.257473  0.892751  0.409852  1
  O  O45  1  0.268671  0.390191  0.410750  1
  O  O46  1  0.257442  0.892749  0.342468  1
  O  O47  1  0.268697  0.390194  0.343526  1
  O  O48  1  0.822687  0.776174  0.418835  1
  O  O49  1  0.838917  0.279162  0.417770  1
  O  O50  1  0.160761  0.779163  0.417742  1
  O  O51  1  0.176989  0.276174  0.418865  1
  O  O52  1  0.991947  0.250009  0.336934  1
  O  O53  1  0.996781  0.682709  0.418607  1
  O  O54  1  0.002892  0.182678  0.418661  1
  O  O55  1  0.996784  0.682678  0.487482  1
  O  O56  1  0.002895  0.182709  0.487513  1
  O  O57  1  0.834522  0.128359  0.386054  1
  O  O58  1  0.824602  0.633660  0.383466  1
  O  O59  1  0.824601  0.866456  0.481269  1
  O  O60  1  0.834525  0.371756  0.479976  1
  O  O61  1  0.165159  0.871665  0.479960  1
  O  O62  1  0.175076  0.366547  0.481287  1
  O  O63  1  0.175074  0.133569  0.383551  1
  O  O64  1  0.165161  0.628450  0.385971  1
  O  O65  1  0.491751  0.824135  0.401271  1
  O  O66  1  0.507925  0.324135  0.401319  1
  O  O67  1  0.504299  0.096514  0.381103  1
  O  O68  1  0.495380  0.596575  0.381047  1
  O  O69  1  0.495378  0.903541  0.451701  1
  O  O70  1  0.504302  0.403602  0.451712  1
  Si  Si71  1  0.708338  0.082839  0.234521  1
  Si  Si72  1  0.700406  0.585568  0.233464  1
  Si  Si73  1  0.700409  0.914548  0.296061  1
  Si  Si74  1  0.708336  0.417277  0.295120  1
  Si  Si75  1  0.291333  0.917328  0.295069  1
  Si  Si76  1  0.299266  0.414496  0.296113  1
  Si  Si77  1  0.299267  0.085620  0.233478  1
  Si  Si78  1  0.291331  0.582787  0.234508  1
  Si  Si79  1  0.998147  0.827429  0.291781  1
  Si  Si80  1  0.001527  0.327351  0.291855  1
  Si  Si81  1  0.711251  0.153570  0.280737  1
  Si  Si82  1  0.696538  0.655925  0.279832  1
  Si  Si83  1  0.303137  0.155924  0.279875  1
  Si  Si84  1  0.288423  0.653570  0.280694  1
  Si  Si85  1  0.005167  0.272318  0.237268  1
  Si  Si86  1  0.994508  0.772318  0.237235  1
  Si  Si87  1  0.708342  0.082787  0.378739  1
  Si  Si88  1  0.700410  0.585620  0.377695  1
  Si  Si89  1  0.700408  0.914496  0.440330  1
  Si  Si90  1  0.708344  0.417329  0.439299  1
  Si  Si91  1  0.291337  0.917277  0.439286  1
  Si  Si92  1  0.299270  0.414548  0.440344  1
  Si  Si93  1  0.299268  0.085568  0.377747  1
  Si  Si94  1  0.291339  0.582839  0.378688  1
  Si  Si95  1  0.001528  0.172686  0.382027  1
  Si  Si96  1  0.998149  0.672764  0.381953  1
  Si  Si97  1  0.696539  0.844191  0.393933  1
  Si  Si98  1  0.711252  0.346546  0.393113  1
  Si  Si99  1  0.288423  0.846546  0.393071  1
  Si  Si100  1  0.303137  0.344191  0.393976  1
  Si  Si101  1  0.994508  0.727797  0.436540  1
  Si  Si102  1  0.005167  0.227798  0.436573  1
  H  H103  1  0.002892  0.317438  0.163127  1
  H  H104  1  0.996781  0.817406  0.163096  1
  H  H105  1  0.834516  0.128451  0.170649  1
  H  H106  1  0.824599  0.633569  0.169322  1
  H  H107  1  0.175075  0.133659  0.169341  1
  H  H108  1  0.165151  0.628359  0.170633  1
  H  H109  1  0.996784  0.682678  0.510681  1
  H  H110  1  0.002895  0.182709  0.510712  1
  H  H111  1  0.824601  0.866456  0.504468  1
  H  H112  1  0.834525  0.371756  0.503175  1
  H  H113  1  0.165159  0.871665  0.503158  1
  H  H114  1  0.175076  0.366547  0.504486  1
