# generated using pymatgen
data_Si33(HO17)4
_symmetry_space_group_name_H-M   'P 1'
_cell_length_a   11.47834918
_cell_length_b   14.36840839
_cell_length_c   46.47122598
_cell_angle_alpha   90.00000000
_cell_angle_beta   90.00000000
_cell_angle_gamma   90.00000000
_symmetry_Int_Tables_number   1
_chemical_formula_structural   Si33(HO17)4
_chemical_formula_sum   'Si66 H8 O136'
_cell_volume   7664.29523053
_cell_formula_units_Z   2
loop_
 _symmetry_equiv_pos_site_id
 _symmetry_equiv_pos_as_xyz
  1  'x, y, z'
loop_
 _atom_site_type_symbol
 _atom_site_label
 _atom_site_symmetry_multiplicity
 _atom_site_fract_x
 _atom_site_fract_y
 _atom_site_fract_z
 _atom_site_occupancy
  O  O1  1  0.071786  0.887534  0.126960  1
  O  O2  1  0.427954  0.887535  0.126962  1
  O  O3  1  0.014439  0.385921  0.262089  1
  O  O4  1  0.749874  0.048569  0.235272  1
  O  O5  1  0.749870  0.048570  0.288907  1
  O  O6  1  0.408457  0.158828  0.289587  1
  O  O7  1  0.408457  0.158827  0.234591  1
  O  O8  1  0.091284  0.158827  0.289586  1
  O  O9  1  0.091286  0.158827  0.234591  1
  O  O10  1  0.447495  0.003580  0.262089  1
  O  O11  1  0.052249  0.003582  0.262088  1
  O  O12  1  0.249870  0.078535  0.262089  1
  O  O13  1  0.863282  0.369011  0.300953  1
  O  O14  1  0.863280  0.369009  0.223226  1
  O  O15  1  0.636451  0.369012  0.300953  1
  O  O16  1  0.636455  0.369014  0.223225  1
  O  O17  1  0.749872  0.212594  0.213001  1
  O  O18  1  0.749873  0.287299  0.262088  1
  O  O19  1  0.454663  0.173192  0.181756  1
  O  O20  1  0.045078  0.173190  0.181755  1
  O  O21  1  0.571792  0.112526  0.136582  1
  O  O22  1  0.927958  0.112526  0.136582  1
  O  O23  1  0.453665  0.002908  0.168000  1
  O  O24  1  0.046074  0.002911  0.168000  1
  O  O25  1  0.639721  0.080397  0.188280  1
  O  O26  1  0.860024  0.080399  0.188279  1
  O  O27  1  0.427393  0.321198  0.213807  1
  O  O28  1  0.072353  0.321198  0.213806  1
  O  O29  1  0.249874  0.218706  0.201397  1
  O  O30  1  0.485303  0.385928  0.262089  1
  O  O31  1  0.462823  0.499658  0.221468  1
  O  O32  1  0.036921  0.499669  0.221464  1
  O  O33  1  0.036923  0.499674  0.302714  1
  O  O34  1  0.462826  0.499667  0.302712  1
  O  O35  1  0.636178  0.922265  0.262089  1
  O  O36  1  0.863562  0.922265  0.262088  1
  O  O37  1  0.101810  0.603726  0.262089  1
  O  O38  1  0.457504  0.850921  0.234835  1
  O  O39  1  0.457507  0.850925  0.289342  1
  O  O40  1  0.042235  0.850925  0.234836  1
  O  O41  1  0.042242  0.850921  0.289344  1
  O  O42  1  0.401007  0.836440  0.181299  1
  O  O43  1  0.098735  0.836437  0.181300  1
  O  O44  1  0.249878  0.937151  0.156482  1
  O  O45  1  0.408538  0.685907  0.214541  1
  O  O46  1  0.091224  0.685893  0.214545  1
  O  O47  1  0.249876  0.806581  0.219366  1
  O  O48  1  0.249882  0.806577  0.304812  1
  O  O49  1  0.249871  0.565030  0.299664  1
  O  O50  1  0.249864  0.565024  0.224514  1
  O  O51  1  0.397937  0.603719  0.262091  1
  O  O52  1  0.749875  0.212590  0.311178  1
  O  O53  1  0.454661  0.173187  0.342423  1
  O  O54  1  0.045077  0.173192  0.342423  1
  O  O55  1  0.571790  0.112523  0.387596  1
  O  O56  1  0.927958  0.112527  0.387596  1
  O  O57  1  0.453670  0.002910  0.356178  1
  O  O58  1  0.046078  0.002908  0.356179  1
  O  O59  1  0.639721  0.080399  0.335899  1
  O  O60  1  0.860020  0.080398  0.335898  1
  O  O61  1  0.427396  0.321199  0.310372  1
  O  O62  1  0.072352  0.321195  0.310373  1
  O  O63  1  0.249868  0.218703  0.322780  1
  O  O64  1  0.598740  0.163622  0.441937  1
  O  O65  1  0.901008  0.163625  0.441935  1
  O  O66  1  0.749867  0.062910  0.417117  1
  O  O67  1  0.591215  0.314159  0.475179  1
  O  O68  1  0.908501  0.314157  0.475182  1
  O  O69  1  0.249873  0.787468  0.473637  1
  O  O70  1  0.545083  0.826870  0.442390  1
  O  O71  1  0.954666  0.826868  0.442392  1
  O  O72  1  0.427960  0.887532  0.397218  1
  O  O73  1  0.071790  0.887538  0.397217  1
  O  O74  1  0.546079  0.997150  0.428635  1
  O  O75  1  0.953671  0.997151  0.428636  1
  O  O76  1  0.360024  0.919661  0.448914  1
  O  O77  1  0.139724  0.919664  0.448916  1
  O  O78  1  0.572356  0.678864  0.474442  1
  O  O79  1  0.927392  0.678867  0.474441  1
  O  O80  1  0.749873  0.781356  0.462033  1
  O  O81  1  0.401008  0.836439  0.342879  1
  O  O82  1  0.098739  0.836438  0.342877  1
  O  O83  1  0.249873  0.937150  0.367697  1
  O  O84  1  0.408513  0.685898  0.309633  1
  O  O85  1  0.091209  0.685895  0.309633  1
  O  O86  1  0.363567  0.077796  0.522725  1
  O  O87  1  0.136183  0.077796  0.522724  1
  O  O88  1  0.542241  0.149139  0.549979  1
  O  O89  1  0.542237  0.149141  0.495470  1
  O  O90  1  0.957507  0.149141  0.549978  1
  O  O91  1  0.957506  0.149138  0.495471  1
  O  O92  1  0.598742  0.163625  0.603512  1
  O  O93  1  0.901012  0.163620  0.603514  1
  O  O94  1  0.749874  0.062910  0.628332  1
  O  O95  1  0.591214  0.314163  0.570270  1
  O  O96  1  0.908523  0.314160  0.570268  1
  O  O97  1  0.749883  0.193479  0.565447  1
  O  O98  1  0.749880  0.193494  0.480000  1
  O  O99  1  0.749877  0.435031  0.485149  1
  O  O100  1  0.749875  0.435031  0.560299  1
  O  O101  1  0.601816  0.396336  0.522725  1
  O  O102  1  0.897937  0.396335  0.522724  1
  O  O103  1  0.071786  0.887534  0.648231  1
  O  O104  1  0.249872  0.951491  0.549542  1
  O  O105  1  0.249873  0.951491  0.495907  1
  O  O106  1  0.591290  0.841232  0.495226  1
  O  O107  1  0.591289  0.841231  0.550222  1
  O  O108  1  0.908463  0.841234  0.495227  1
  O  O109  1  0.908461  0.841233  0.550222  1
  O  O110  1  0.552251  0.996481  0.522725  1
  O  O111  1  0.947496  0.996478  0.522724  1
  O  O112  1  0.749876  0.921525  0.522724  1
  O  O113  1  0.136465  0.631049  0.483861  1
  O  O114  1  0.136463  0.631047  0.561588  1
  O  O115  1  0.363288  0.631050  0.483861  1
  O  O116  1  0.363286  0.631048  0.561588  1
  O  O117  1  0.249875  0.787468  0.571812  1
  O  O118  1  0.249875  0.712761  0.522724  1
  O  O119  1  0.545081  0.826870  0.603059  1
  O  O120  1  0.954667  0.826869  0.603058  1
  O  O121  1  0.427954  0.887535  0.648233  1
  O  O122  1  0.546079  0.997151  0.616814  1
  O  O123  1  0.953670  0.997150  0.616813  1
  O  O124  1  0.360024  0.919662  0.596533  1
  O  O125  1  0.139723  0.919662  0.596534  1
  O  O126  1  0.572357  0.678863  0.571008  1
  O  O127  1  0.927392  0.678866  0.571008  1
  O  O128  1  0.749876  0.781354  0.583416  1
  O  O129  1  0.514443  0.614139  0.522724  1
  O  O130  1  0.985308  0.614139  0.522725  1
  O  O131  1  0.536928  0.500390  0.563350  1
  O  O132  1  0.962828  0.500390  0.563349  1
  O  O133  1  0.962827  0.500391  0.482100  1
  O  O134  1  0.536928  0.500392  0.482101  1
  O  O135  1  0.571792  0.112526  0.657853  1
  O  O136  1  0.927958  0.112526  0.657853  1
  Si  Si137  1  0.530625  0.093016  0.168302  1
  Si  Si138  1  0.969115  0.093019  0.168301  1
  Si  Si139  1  0.384358  0.219808  0.207072  1
  Si  Si140  1  0.115387  0.219803  0.207073  1
  Si  Si141  1  0.505377  0.397001  0.295384  1
  Si  Si142  1  0.505382  0.396996  0.228792  1
  Si  Si143  1  0.994366  0.397005  0.295386  1
  Si  Si144  1  0.994357  0.396998  0.228793  1
  Si  Si145  1  0.749868  0.309238  0.295193  1
  Si  Si146  1  0.749870  0.309241  0.228986  1
  Si  Si147  1  0.749873  0.105101  0.206658  1
  Si  Si148  1  0.383505  0.098840  0.262089  1
  Si  Si149  1  0.116237  0.098842  0.262088  1
  Si  Si150  1  0.384122  0.914874  0.157914  1
  Si  Si151  1  0.115628  0.914879  0.157914  1
  Si  Si152  1  0.383907  0.794412  0.212403  1
  Si  Si153  1  0.115822  0.794406  0.212401  1
  Si  Si154  1  0.383867  0.587549  0.295356  1
  Si  Si155  1  0.383872  0.587544  0.228821  1
  Si  Si156  1  0.115877  0.587550  0.295356  1
  Si  Si157  1  0.115859  0.587553  0.228823  1
  Si  Si158  1  0.500983  0.904152  0.262086  1
  Si  Si159  1  0.998764  0.904153  0.262091  1
  Si  Si160  1  0.749868  0.983331  0.262089  1
  Si  Si161  1  0.530631  0.093014  0.355877  1
  Si  Si162  1  0.969116  0.093015  0.355876  1
  Si  Si163  1  0.384352  0.219807  0.317106  1
  Si  Si164  1  0.115387  0.219802  0.317106  1
  Si  Si165  1  0.615621  0.085190  0.418551  1
  Si  Si166  1  0.884119  0.085183  0.418549  1
  Si  Si167  1  0.615842  0.205658  0.473038  1
  Si  Si168  1  0.883921  0.205646  0.473036  1
  Si  Si169  1  0.749870  0.105103  0.317521  1
  Si  Si170  1  0.469116  0.907045  0.428937  1
  Si  Si171  1  0.030631  0.907043  0.428937  1
  Si  Si172  1  0.615391  0.780258  0.467708  1
  Si  Si173  1  0.884355  0.780259  0.467708  1
  Si  Si174  1  0.384119  0.914877  0.366264  1
  Si  Si175  1  0.115626  0.914875  0.366263  1
  Si  Si176  1  0.383916  0.794402  0.311776  1
  Si  Si177  1  0.115831  0.794401  0.311776  1
  Si  Si178  1  0.249877  0.894956  0.467293  1
  Si  Si179  1  0.615625  0.085186  0.626898  1
  Si  Si180  1  0.884120  0.085183  0.626900  1
  Si  Si181  1  0.615830  0.205658  0.572412  1
  Si  Si182  1  0.883915  0.205655  0.572412  1
  Si  Si183  1  0.615876  0.412508  0.489458  1
  Si  Si184  1  0.615875  0.412511  0.555992  1
  Si  Si185  1  0.883878  0.412505  0.489458  1
  Si  Si186  1  0.883877  0.412515  0.555991  1
  Si  Si187  1  0.498768  0.095913  0.522724  1
  Si  Si188  1  -0.000000  0.095907  0.522724  1
  Si  Si189  1  0.249872  0.016729  0.522725  1
  Si  Si190  1  0.469114  0.907045  0.616513  1
  Si  Si191  1  0.030631  0.907044  0.616511  1
  Si  Si192  1  0.615392  0.780260  0.577742  1
  Si  Si193  1  0.884358  0.780257  0.577742  1
  Si  Si194  1  0.494366  0.603057  0.489428  1
  Si  Si195  1  0.494366  0.603058  0.556021  1
  Si  Si196  1  0.005386  0.603062  0.489428  1
  Si  Si197  1  0.005383  0.603060  0.556022  1
  Si  Si198  1  0.249878  0.690826  0.489621  1
  Si  Si199  1  0.249873  0.690827  0.555827  1
  Si  Si200  1  0.249875  0.894958  0.578156  1
  Si  Si201  1  0.616239  0.901223  0.522725  1
  Si  Si202  1  0.883509  0.901218  0.522725  1
  H  H203  1  0.071786  0.887534  0.107593  1
  H  H204  1  0.427954  0.887535  0.107595  1
  H  H205  1  0.571792  0.112526  0.117215  1
  H  H206  1  0.927958  0.112526  0.117215  1
  H  H207  1  0.071786  0.887534  0.667598  1
  H  H208  1  0.427954  0.887535  0.667600  1
  H  H209  1  0.571792  0.112526  0.677220  1
  H  H210  1  0.927958  0.112526  0.677220  1
