# generated using pymatgen
data_Si16H2O33
_symmetry_space_group_name_H-M   'P 1'
_cell_length_a   13.79891269
_cell_length_b   6.95425229
_cell_length_c   44.42903429
_cell_angle_alpha   99.01600000
_cell_angle_beta   90.00000000
_cell_angle_gamma   90.00000000
_symmetry_Int_Tables_number   1
_chemical_formula_structural   Si16H2O33
_chemical_formula_sum   'Si32 H4 O66'
_cell_volume   4210.78321987
_cell_formula_units_Z   2
loop_
 _symmetry_equiv_pos_site_id
 _symmetry_equiv_pos_as_xyz
  1  'x, y, z'
loop_
 _atom_site_type_symbol
 _atom_site_label
 _atom_site_symmetry_multiplicity
 _atom_site_fract_x
 _atom_site_fract_y
 _atom_site_fract_z
 _atom_site_occupancy
  O  O1  1  0.137138  0.000000  0.134248  1
  O  O2  1  0.862595  0.000000  0.134204  1
  O  O3  1  0.000000  0.026714  0.600592  1
  O  O4  1  0.499869  0.026709  0.348764  1
  O  O5  1  0.000000  0.973448  0.171521  1
  O  O6  1  0.499863  0.973463  0.423350  1
  O  O7  1  0.138226  0.071245  0.528130  1
  O  O8  1  0.638155  0.071212  0.276275  1
  O  O9  1  0.138151  0.928896  0.244032  1
  O  O10  1  0.638222  0.928891  0.495831  1
  O  O11  1  0.861502  0.928939  0.243979  1
  O  O12  1  0.361583  0.928921  0.495842  1
  O  O13  1  0.861595  0.071285  0.528076  1
  O  O14  1  0.361513  0.071239  0.276284  1
  O  O15  1  0.137138  -0.000000  0.637902  1
  O  O16  1  0.637138  -0.000000  0.386055  1
  O  O17  1  0.862595  0.000000  0.637859  1
  O  O18  1  0.362595  0.000000  0.386060  1
  O  O19  1  0.000000  0.878260  0.498233  1
  O  O20  1  0.499834  0.878203  0.246415  1
  O  O21  1  0.000000  0.121938  0.273871  1
  O  O22  1  0.499904  0.121909  0.525706  1
  O  O23  1  0.173586  0.418698  0.555676  1
  O  O24  1  0.673532  0.418691  0.303824  1
  O  O25  1  0.173495  0.581409  0.216482  1
  O  O26  1  0.673547  0.581426  0.468284  1
  O  O27  1  0.826150  0.581483  0.216431  1
  O  O28  1  0.326202  0.581446  0.468297  1
  O  O29  1  0.826243  0.418768  0.555622  1
  O  O30  1  0.326189  0.418708  0.303835  1
  O  O31  1  0.690223  0.159378  0.543503  1
  O  O32  1  0.190128  0.159416  0.291701  1
  O  O33  1  0.690115  0.840774  0.228588  1
  O  O34  1  0.190209  0.840845  0.480441  1
  O  O35  1  0.309520  0.840756  0.228611  1
  O  O36  1  0.809602  0.840752  0.480406  1
  O  O37  1  0.309617  0.159361  0.543528  1
  O  O38  1  0.809536  0.159330  0.291668  1
  O  O39  1  0.170534  0.121539  0.584496  1
  O  O40  1  0.670449  0.121539  0.332642  1
  O  O41  1  0.170352  0.878532  0.187661  1
  O  O42  1  0.670435  0.878554  0.439462  1
  O  O43  1  0.829182  0.878670  0.187614  1
  O  O44  1  0.329303  0.878591  0.439472  1
  O  O45  1  0.829403  0.121679  0.584447  1
  O  O46  1  0.329281  0.121570  0.332651  1
  O  O47  1  0.873567  0.710792  0.527308  1
  O  O48  1  0.373483  0.710743  0.275512  1
  O  O49  1  0.873430  0.289436  0.244763  1
  O  O50  1  0.373514  0.289416  0.496622  1
  O  O51  1  0.126175  0.289403  0.244797  1
  O  O52  1  0.626247  0.289389  0.496608  1
  O  O53  1  0.126302  0.710761  0.527343  1
  O  O54  1  0.626227  0.710719  0.275500  1
  O  O55  1  0.126869  0.768906  0.585102  1
  O  O56  1  0.626821  0.768940  0.333258  1
  O  O57  1  0.126766  0.231131  0.187044  1
  O  O58  1  0.626816  0.231192  0.438855  1
  O  O59  1  0.872870  0.231263  0.187004  1
  O  O60  1  0.372908  0.231206  0.438863  1
  O  O61  1  0.872962  0.769037  0.585061  1
  O  O62  1  0.372920  0.768955  0.333266  1
  O  O63  1  0.000000  0.553934  0.556431  1
  O  O64  1  0.499866  0.553895  0.304611  1
  O  O65  1  0.000000  0.446258  0.215677  1
  O  O66  1  0.499869  0.446245  0.467509  1
  Si  Si67  1  0.200152  0.197256  0.553973  1
  Si  Si68  1  0.700077  0.197229  0.302118  1
  Si  Si69  1  0.200039  0.802869  0.218182  1
  Si  Si70  1  0.700114  0.802870  0.469981  1
  Si  Si71  1  0.799577  0.802927  0.218136  1
  Si  Si72  1  0.299668  0.802911  0.469997  1
  Si  Si73  1  0.799707  0.197314  0.553926  1
  Si  Si74  1  0.299612  0.197265  0.302131  1
  Si  Si75  1  0.887986  0.982679  0.602863  1
  Si  Si76  1  0.387931  0.982624  0.351060  1
  Si  Si77  1  0.887873  0.017593  0.169208  1
  Si  Si78  1  0.387925  0.017561  0.421061  1
  Si  Si79  1  0.111749  0.017483  0.169243  1
  Si  Si80  1  0.611802  0.017538  0.421055  1
  Si  Si81  1  0.111862  0.982573  0.602897  1
  Si  Si82  1  0.611808  0.982603  0.351055  1
  Si  Si83  1  0.888375  0.874577  0.506749  1
  Si  Si84  1  0.388292  0.874538  0.254955  1
  Si  Si85  1  0.888275  0.125618  0.265316  1
  Si  Si86  1  0.388357  0.125606  0.517176  1
  Si  Si87  1  0.111363  0.125614  0.265356  1
  Si  Si88  1  0.611442  0.125581  0.517164  1
  Si  Si89  1  0.111462  0.874579  0.506790  1
  Si  Si90  1  0.611382  0.874513  0.254943  1
  Si  Si91  1  0.110964  0.607548  0.556168  1
  Si  Si92  1  0.610909  0.607545  0.304329  1
  Si  Si93  1  0.110856  0.392562  0.215967  1
  Si  Si94  1  0.610912  0.392591  0.467782  1
  Si  Si95  1  0.888771  0.392634  0.215937  1
  Si  Si96  1  0.388826  0.392595  0.467792  1
  Si  Si97  1  0.888881  0.607621  0.556137  1
  Si  Si98  1  0.388822  0.607547  0.304338  1
  H  H99  1  0.137138  0.000000  0.113991  1
  H  H100  1  0.862595  -0.000000  0.113947  1
  H  H101  1  0.137138  -0.000000  0.658159  1
  H  H102  1  0.862595  0.000000  0.658116  1
