# generated using pymatgen
data_Si38H6O79
_symmetry_space_group_name_H-M   'P 1'
_cell_length_a   7.51561045
_cell_length_b   23.17128744
_cell_length_c   58.60900433
_cell_angle_alpha   52.20637989
_cell_angle_beta   90.00000000
_cell_angle_gamma   90.00000000
_symmetry_Int_Tables_number   1
_chemical_formula_structural   Si38H6O79
_chemical_formula_sum   'Si76 H12 O158'
_cell_volume   8065.44949099
_cell_formula_units_Z   2
loop_
 _symmetry_equiv_pos_site_id
 _symmetry_equiv_pos_as_xyz
  1  'x, y, z'
loop_
 _atom_site_type_symbol
 _atom_site_label
 _atom_site_symmetry_multiplicity
 _atom_site_fract_x
 _atom_site_fract_y
 _atom_site_fract_z
 _atom_site_occupancy
  O  O1  1  0.744609  0.998381  0.221866  1
  O  O2  1  0.744607  0.501736  0.221053  1
  O  O3  1  0.255064  0.001793  0.221040  1
  O  O4  1  0.255062  0.498323  0.221881  1
  O  O5  1  0.742203  0.107365  0.222615  1
  O  O6  1  0.731005  0.609925  0.222021  1
  O  O7  1  0.742234  0.107367  0.267218  1
  O  O8  1  0.730978  0.609922  0.266518  1
  O  O9  1  0.268669  0.109925  0.266545  1
  O  O10  1  0.257473  0.607365  0.267191  1
  O  O11  1  0.268698  0.109921  0.222050  1
  O  O12  1  0.257440  0.607367  0.222587  1
  O  O13  1  0.838916  0.220954  0.217392  1
  O  O14  1  0.822686  0.723942  0.216649  1
  O  O15  1  0.176988  0.223942  0.216669  1
  O  O16  1  0.160759  0.720953  0.217374  1
  O  O17  1  0.991949  0.250107  0.149758  1
  O  O18  1  0.007726  0.750009  0.149765  1
  O  O19  1  0.007729  0.750107  0.270882  1
  O  O20  1  0.002892  0.317438  0.171229  1
  O  O21  1  0.996781  0.817406  0.171209  1
  O  O22  1  0.002895  0.317406  0.216820  1
  O  O23  1  0.996784  0.817438  0.216784  1
  O  O24  1  0.996784  0.682678  0.128294  1
  O  O25  1  0.002895  0.182709  0.128314  1
  O  O26  1  0.834516  0.128451  0.176209  1
  O  O27  1  0.824599  0.633569  0.175330  1
  O  O28  1  0.824601  0.866547  0.240024  1
  O  O29  1  0.834515  0.371665  0.238423  1
  O  O30  1  0.824601  0.866456  0.124181  1
  O  O31  1  0.834525  0.371756  0.123325  1
  O  O32  1  0.165159  0.871665  0.123314  1
  O  O33  1  0.175076  0.366547  0.124193  1
  O  O34  1  0.165155  0.871757  0.238367  1
  O  O35  1  0.175073  0.366456  0.240080  1
  O  O36  1  0.175075  0.133659  0.175342  1
  O  O37  1  0.165151  0.628359  0.176198  1
  O  O38  1  0.507924  0.175981  0.228295  1
  O  O39  1  0.491750  0.675981  0.228263  1
  O  O40  1  0.504297  0.096575  0.194913  1
  O  O41  1  0.495374  0.596514  0.194906  1
  O  O42  1  0.495376  0.903602  0.241645  1
  O  O43  1  0.504295  0.403541  0.241682  1
  O  O44  1  0.744609  0.998381  0.464147  1
  O  O45  1  0.744607  0.501736  0.463334  1
  O  O46  1  0.744611  0.998323  0.320763  1
  O  O47  1  0.744613  0.501793  0.319923  1
  O  O48  1  0.255066  0.001735  0.319937  1
  O  O49  1  0.255069  0.498380  0.320750  1
  O  O50  1  0.255064  0.001793  0.463320  1
  O  O51  1  0.255062  0.498323  0.464161  1
  O  O52  1  0.742203  0.107365  0.464895  1
  O  O53  1  0.731005  0.609925  0.464301  1
  O  O54  1  0.731006  0.890191  0.275258  1
  O  O55  1  0.742202  0.392751  0.274612  1
  O  O56  1  0.742234  0.107367  0.509498  1
  O  O57  1  0.730978  0.609922  0.508798  1
  O  O58  1  0.730978  0.890194  0.319754  1
  O  O59  1  0.742235  0.392749  0.319216  1
  O  O60  1  0.257473  0.892751  0.319188  1
  O  O61  1  0.268671  0.390191  0.319782  1
  O  O62  1  0.268669  0.109925  0.508825  1
  O  O63  1  0.257473  0.607365  0.509472  1
  O  O64  1  0.257442  0.892749  0.274585  1
  O  O65  1  0.268697  0.390194  0.275285  1
  O  O66  1  0.268698  0.109921  0.464330  1
  O  O67  1  0.257440  0.607367  0.464867  1
  O  O68  1  0.838916  0.220954  0.459673  1
  O  O69  1  0.822686  0.723942  0.458929  1
  O  O70  1  0.822687  0.776174  0.325134  1
  O  O71  1  0.838917  0.279162  0.324430  1
  O  O72  1  0.160761  0.779163  0.324411  1
  O  O73  1  0.176989  0.276174  0.325154  1
  O  O74  1  0.176988  0.223942  0.458949  1
  O  O75  1  0.160759  0.720953  0.459654  1
  O  O76  1  0.991949  0.250107  0.392038  1
  O  O77  1  0.007726  0.750009  0.392046  1
  O  O78  1  0.007729  0.750107  0.513162  1
  O  O79  1  0.991947  0.250009  0.270922  1
  O  O80  1  0.002892  0.317438  0.413509  1
  O  O81  1  0.996781  0.817406  0.413489  1
  O  O82  1  0.996781  0.682709  0.324983  1
  O  O83  1  0.002892  0.182678  0.325019  1
  O  O84  1  0.002895  0.317406  0.459100  1
  O  O85  1  0.996784  0.817438  0.459064  1
  O  O86  1  0.996784  0.682678  0.370574  1
  O  O87  1  0.002895  0.182709  0.370595  1
  O  O88  1  0.834516  0.128451  0.418489  1
  O  O89  1  0.824599  0.633569  0.417610  1
  O  O90  1  0.824601  0.866547  0.482305  1
  O  O91  1  0.834515  0.371665  0.480703  1
  O  O92  1  0.834522  0.128359  0.303436  1
  O  O93  1  0.824602  0.633660  0.301723  1
  O  O94  1  0.824601  0.866456  0.366461  1
  O  O95  1  0.834525  0.371756  0.365605  1
  O  O96  1  0.165159  0.871665  0.365595  1
  O  O97  1  0.175076  0.366547  0.366473  1
  O  O98  1  0.175074  0.133569  0.301779  1
  O  O99  1  0.165161  0.628450  0.303381  1
  O  O100  1  0.165155  0.871757  0.480648  1
  O  O101  1  0.175073  0.366456  0.482361  1
  O  O102  1  0.175075  0.133659  0.417623  1
  O  O103  1  0.165151  0.628359  0.418478  1
  O  O104  1  0.507924  0.175981  0.470575  1
  O  O105  1  0.491750  0.675981  0.470543  1
  O  O106  1  0.491751  0.824135  0.313508  1
  O  O107  1  0.507925  0.324135  0.313540  1
  O  O108  1  0.504297  0.096575  0.437194  1
  O  O109  1  0.495374  0.596514  0.437187  1
  O  O110  1  0.495376  0.903602  0.483925  1
  O  O111  1  0.504295  0.403541  0.483962  1
  O  O112  1  0.504299  0.096514  0.300158  1
  O  O113  1  0.495380  0.596575  0.300121  1
  O  O114  1  0.495378  0.903541  0.346890  1
  O  O115  1  0.504302  0.403602  0.346897  1
  O  O116  1  0.744611  0.998323  0.563044  1
  O  O117  1  0.744613  0.501793  0.562203  1
  O  O118  1  0.255066  0.001735  0.562217  1
  O  O119  1  0.255069  0.498380  0.563030  1
  O  O120  1  0.731006  0.890191  0.517538  1
  O  O121  1  0.742202  0.392751  0.516892  1
  O  O122  1  0.730978  0.890194  0.562034  1
  O  O123  1  0.742235  0.392749  0.561496  1
  O  O124  1  0.257473  0.892751  0.561468  1
  O  O125  1  0.268671  0.390191  0.562063  1
  O  O126  1  0.257442  0.892749  0.516865  1
  O  O127  1  0.268697  0.390194  0.517566  1
  O  O128  1  0.822687  0.776174  0.567415  1
  O  O129  1  0.838917  0.279162  0.566710  1
  O  O130  1  0.160761  0.779163  0.566691  1
  O  O131  1  0.176989  0.276174  0.567434  1
  O  O132  1  0.991949  0.250107  0.634318  1
  O  O133  1  0.007726  0.750009  0.634326  1
  O  O134  1  0.991947  0.250009  0.513202  1
  O  O135  1  0.002892  0.317438  0.655790  1
  O  O136  1  0.996781  0.817406  0.655769  1
  O  O137  1  0.996781  0.682709  0.567264  1
  O  O138  1  0.002892  0.182678  0.567299  1
  O  O139  1  0.996784  0.682678  0.612854  1
  O  O140  1  0.002895  0.182709  0.612875  1
  O  O141  1  0.834516  0.128451  0.660769  1
  O  O142  1  0.824599  0.633569  0.659890  1
  O  O143  1  0.834522  0.128359  0.545716  1
  O  O144  1  0.824602  0.633660  0.544003  1
  O  O145  1  0.824601  0.866456  0.608741  1
  O  O146  1  0.834525  0.371756  0.607886  1
  O  O147  1  0.165159  0.871665  0.607875  1
  O  O148  1  0.175076  0.366547  0.608754  1
  O  O149  1  0.175074  0.133569  0.544059  1
  O  O150  1  0.165161  0.628450  0.545661  1
  O  O151  1  0.175075  0.133659  0.659903  1
  O  O152  1  0.165151  0.628359  0.660759  1
  O  O153  1  0.491751  0.824135  0.555789  1
  O  O154  1  0.507925  0.324135  0.555820  1
  O  O155  1  0.504299  0.096514  0.542438  1
  O  O156  1  0.495380  0.596575  0.542402  1
  O  O157  1  0.495378  0.903541  0.589170  1
  O  O158  1  0.504302  0.403602  0.589177  1
  Si  Si159  1  0.708338  0.082839  0.203131  1
  Si  Si160  1  0.700406  0.585568  0.202431  1
  Si  Si161  1  0.700409  0.914548  0.243866  1
  Si  Si162  1  0.708336  0.417277  0.243244  1
  Si  Si163  1  0.291333  0.917328  0.243210  1
  Si  Si164  1  0.299266  0.414496  0.243901  1
  Si  Si165  1  0.299267  0.085620  0.202441  1
  Si  Si166  1  0.291331  0.582787  0.203123  1
  Si  Si167  1  0.001528  0.172764  0.157395  1
  Si  Si168  1  0.998145  0.672686  0.157384  1
  Si  Si169  1  0.998147  0.827429  0.241033  1
  Si  Si170  1  0.001527  0.327351  0.241082  1
  Si  Si171  1  0.998147  0.827352  0.142127  1
  Si  Si172  1  0.001530  0.327430  0.142138  1
  Si  Si173  1  0.711251  0.153570  0.233723  1
  Si  Si174  1  0.696538  0.655925  0.233124  1
  Si  Si175  1  0.303137  0.155924  0.233153  1
  Si  Si176  1  0.288423  0.653570  0.233694  1
  Si  Si177  1  0.005167  0.272318  0.204949  1
  Si  Si178  1  0.994508  0.772318  0.204927  1
  Si  Si179  1  0.708338  0.082839  0.445412  1
  Si  Si180  1  0.700406  0.585568  0.444712  1
  Si  Si181  1  0.700409  0.914548  0.486146  1
  Si  Si182  1  0.708336  0.417277  0.485524  1
  Si  Si183  1  0.708342  0.082787  0.298593  1
  Si  Si184  1  0.700410  0.585620  0.297902  1
  Si  Si185  1  0.700408  0.914496  0.339362  1
  Si  Si186  1  0.708344  0.417329  0.338680  1
  Si  Si187  1  0.291337  0.917277  0.338672  1
  Si  Si188  1  0.299270  0.414548  0.339372  1
  Si  Si189  1  0.299268  0.085568  0.297937  1
  Si  Si190  1  0.291339  0.582839  0.298559  1
  Si  Si191  1  0.291333  0.917328  0.485490  1
  Si  Si192  1  0.299266  0.414496  0.486181  1
  Si  Si193  1  0.299267  0.085620  0.444721  1
  Si  Si194  1  0.291331  0.582787  0.445403  1
  Si  Si195  1  0.001528  0.172764  0.399676  1
  Si  Si196  1  0.998145  0.672686  0.399664  1
  Si  Si197  1  0.998147  0.827429  0.483314  1
  Si  Si198  1  0.001527  0.327351  0.483363  1
  Si  Si199  1  0.001528  0.172686  0.300770  1
  Si  Si200  1  0.998149  0.672764  0.300721  1
  Si  Si201  1  0.998147  0.827352  0.384408  1
  Si  Si202  1  0.001530  0.327430  0.384419  1
  Si  Si203  1  0.711251  0.153570  0.476003  1
  Si  Si204  1  0.696538  0.655925  0.475404  1
  Si  Si205  1  0.696539  0.844191  0.308651  1
  Si  Si206  1  0.711252  0.346546  0.308108  1
  Si  Si207  1  0.288423  0.846546  0.308080  1
  Si  Si208  1  0.303137  0.344191  0.308679  1
  Si  Si209  1  0.303137  0.155924  0.475433  1
  Si  Si210  1  0.288423  0.653570  0.475975  1
  Si  Si211  1  0.005167  0.272318  0.447230  1
  Si  Si212  1  0.994508  0.772318  0.447208  1
  Si  Si213  1  0.994508  0.727797  0.336854  1
  Si  Si214  1  0.005167  0.227798  0.336876  1
  Si  Si215  1  0.708342  0.082787  0.540874  1
  Si  Si216  1  0.700410  0.585620  0.540183  1
  Si  Si217  1  0.700408  0.914496  0.581643  1
  Si  Si218  1  0.708344  0.417329  0.580961  1
  Si  Si219  1  0.291337  0.917277  0.580952  1
  Si  Si220  1  0.299270  0.414548  0.581652  1
  Si  Si221  1  0.299268  0.085568  0.540217  1
  Si  Si222  1  0.291339  0.582839  0.540840  1
  Si  Si223  1  0.001528  0.172764  0.641956  1
  Si  Si224  1  0.998145  0.672686  0.641945  1
  Si  Si225  1  0.001528  0.172686  0.543050  1
  Si  Si226  1  0.998149  0.672764  0.543001  1
  Si  Si227  1  0.998147  0.827352  0.626688  1
  Si  Si228  1  0.001530  0.327430  0.626699  1
  Si  Si229  1  0.696539  0.844191  0.550931  1
  Si  Si230  1  0.711252  0.346546  0.550389  1
  Si  Si231  1  0.288423  0.846546  0.550361  1
  Si  Si232  1  0.303137  0.344191  0.550960  1
  Si  Si233  1  0.994508  0.727797  0.579134  1
  Si  Si234  1  0.005167  0.227798  0.579156  1
  H  H235  1  0.996784  0.682678  0.112938  1
  H  H236  1  0.002895  0.182709  0.112958  1
  H  H237  1  0.824601  0.866456  0.108825  1
  H  H238  1  0.834525  0.371756  0.107969  1
  H  H239  1  0.165159  0.871665  0.107958  1
  H  H240  1  0.175076  0.366547  0.108837  1
  H  H241  1  0.002892  0.317438  0.671146  1
  H  H242  1  0.996781  0.817406  0.671125  1
  H  H243  1  0.834516  0.128451  0.676125  1
  H  H244  1  0.824599  0.633569  0.675246  1
  H  H245  1  0.175075  0.133659  0.675259  1
  H  H246  1  0.165151  0.628359  0.676115  1
