# generated using pymatgen
data_Si4H2O9
_symmetry_space_group_name_H-M   'P 1'
_cell_length_a   9.77083545
_cell_length_b   27.97530112
_cell_length_c   28.95563071
_cell_angle_alpha   90.00000000
_cell_angle_beta   90.00000000
_cell_angle_gamma   90.00000000
_symmetry_Int_Tables_number   1
_chemical_formula_structural   Si4H2O9
_chemical_formula_sum   'Si32 H16 O72'
_cell_volume   7914.79185897
_cell_formula_units_Z   8
loop_
 _symmetry_equiv_pos_site_id
 _symmetry_equiv_pos_as_xyz
  1  'x, y, z'
loop_
 _atom_site_type_symbol
 _atom_site_label
 _atom_site_symmetry_multiplicity
 _atom_site_fract_x
 _atom_site_fract_y
 _atom_site_fract_z
 _atom_site_occupancy
  O  O1  1  0.323731  0.585640  0.291554  1
  O  O2  1  0.676195  0.585633  0.291547  1
  O  O3  1  0.323732  0.085639  0.363083  1
  O  O4  1  0.676191  0.085632  0.363089  1
  O  O5  1  0.676169  0.414313  0.363092  1
  O  O6  1  0.323710  0.414319  0.363097  1
  O  O7  1  0.676169  0.914312  0.291559  1
  O  O8  1  0.323714  0.914318  0.291556  1
  O  O9  1  0.808877  0.624800  0.450870  1
  O  O10  1  0.308879  0.624803  0.209538  1
  O  O11  1  0.191027  0.624803  0.450878  1
  O  O12  1  0.691027  0.624794  0.209530  1
  O  O13  1  0.808878  0.124800  0.203767  1
  O  O14  1  0.308877  0.124797  0.445100  1
  O  O15  1  0.191028  0.124806  0.203760  1
  O  O16  1  0.691026  0.124791  0.445107  1
  O  O17  1  0.191018  0.375164  0.203772  1
  O  O18  1  0.691020  0.375154  0.445107  1
  O  O19  1  0.808870  0.375159  0.203767  1
  O  O20  1  0.308870  0.375162  0.445112  1
  O  O21  1  0.191018  0.875169  0.450881  1
  O  O22  1  0.691020  0.875155  0.209544  1
  O  O23  1  0.808867  0.875162  0.450884  1
  O  O24  1  0.308869  0.875159  0.209541  1
  O  O25  1  0.499970  0.645738  0.265402  1
  O  O26  1  0.499966  0.145736  0.389236  1
  O  O27  1  0.499935  0.354214  0.389243  1
  O  O28  1  0.499939  0.854212  0.265409  1
  O  O29  1  0.250904  0.672580  0.285215  1
  O  O30  1  0.749049  0.672570  0.285205  1
  O  O31  1  0.250897  0.172576  0.369425  1
  O  O32  1  0.749047  0.172568  0.369433  1
  O  O33  1  0.749007  0.327374  0.369431  1
  O  O34  1  0.250856  0.327383  0.369438  1
  O  O35  1  0.749017  0.827376  0.285220  1
  O  O36  1  0.250859  0.827382  0.285217  1
  O  O37  1  0.823372  0.663956  0.369125  1
  O  O38  1  0.176551  0.663963  0.369133  1
  O  O39  1  0.823371  0.163957  0.285513  1
  O  O40  1  0.176548  0.163963  0.285505  1
  O  O41  1  0.176533  0.335998  0.285516  1
  O  O42  1  0.823354  0.335991  0.285511  1
  O  O43  1  0.176533  0.836001  0.369140  1
  O  O44  1  0.823355  0.835992  0.369142  1
  O  O45  1  0.813812  0.749973  0.331795  1
  O  O46  1  0.186096  0.749980  0.331800  1
  O  O47  1  0.813809  0.249972  0.322850  1
  O  O48  1  0.186095  0.249981  0.322849  1
  O  O49  1  -0.000000  0.690172  0.311693  1
  O  O50  1  -0.000000  0.190170  0.342947  1
  O  O51  1  0.000000  0.309782  0.342950  1
  O  O52  1  0.000000  0.809785  0.311706  1
  O  O53  1  0.499966  0.557378  0.348885  1
  O  O54  1  0.499967  0.057376  0.305751  1
  O  O55  1  0.499937  0.442577  0.305760  1
  O  O56  1  0.499938  0.942579  0.348890  1
  O  O57  1  0.749924  0.576959  0.375309  1
  O  O58  1  0.250019  0.576968  0.375317  1
  O  O59  1  0.749929  0.076958  0.279329  1
  O  O60  1  0.250019  0.076968  0.279321  1
  O  O61  1  0.249976  0.422996  0.279337  1
  O  O62  1  0.749886  0.422986  0.279331  1
  O  O63  1  0.249975  0.922999  0.375314  1
  O  O64  1  0.749887  0.922988  0.375319  1
  O  O65  1  0.691134  0.499973  0.327321  1
  O  O66  1  0.308768  0.499981  0.327326  1
  O  O67  1  0.691136  0.000000  0.327322  1
  O  O68  1  0.308769  0.000000  0.327315  1
  O  O69  1  0.000000  0.603868  0.394811  1
  O  O70  1  0.000000  0.103872  0.259827  1
  O  O71  1  -0.000000  0.396084  0.259836  1
  O  O72  1  -0.000000  0.896085  0.394816  1
  Si  Si73  1  0.342682  0.632827  0.262206  1
  Si  Si74  1  0.657251  0.632820  0.262200  1
  Si  Si75  1  0.342680  0.132824  0.392433  1
  Si  Si76  1  0.657248  0.132818  0.392438  1
  Si  Si77  1  0.657222  0.367126  0.392440  1
  Si  Si78  1  0.342653  0.367133  0.392444  1
  Si  Si79  1  0.657225  0.867126  0.262212  1
  Si  Si80  1  0.342657  0.867131  0.262209  1
  Si  Si81  1  0.842727  0.694975  0.323911  1
  Si  Si82  1  0.157205  0.694981  0.323918  1
  Si  Si83  1  0.842726  0.194974  0.330728  1
  Si  Si84  1  0.157203  0.194980  0.330723  1
  Si  Si85  1  0.157179  0.304979  0.330730  1
  Si  Si86  1  0.842701  0.304972  0.330728  1
  Si  Si87  1  0.157183  0.804979  0.323925  1
  Si  Si88  1  0.842705  0.804974  0.323925  1
  Si  Si89  1  0.657337  0.554240  0.336498  1
  Si  Si90  1  0.342591  0.554246  0.336503  1
  Si  Si91  1  0.657337  0.054239  0.318139  1
  Si  Si92  1  0.342592  0.054245  0.318133  1
  Si  Si93  1  0.342566  0.445714  0.318147  1
  Si  Si94  1  0.657312  0.445708  0.318144  1
  Si  Si95  1  0.342567  0.945715  0.336503  1
  Si  Si96  1  0.657312  0.945709  0.336507  1
  Si  Si97  1  0.157414  0.616540  0.398241  1
  Si  Si98  1  0.842513  0.616535  0.398236  1
  Si  Si99  1  0.157416  0.116542  0.256397  1
  Si  Si100  1  0.842515  0.116536  0.256403  1
  Si  Si101  1  0.842487  0.383414  0.256405  1
  Si  Si102  1  0.157388  0.383421  0.256408  1
  Si  Si103  1  0.842487  0.883416  0.398247  1
  Si  Si104  1  0.157389  0.883424  0.398244  1
  H  H105  1  0.808877  0.624800  0.481953  1
  H  H106  1  0.308879  0.624803  0.178456  1
  H  H107  1  0.191027  0.624803  0.481960  1
  H  H108  1  0.691027  0.624794  0.178448  1
  H  H109  1  0.808878  0.124800  0.172685  1
  H  H110  1  0.308877  0.124797  0.476182  1
  H  H111  1  0.191028  0.124806  0.172678  1
  H  H112  1  0.691026  0.124791  0.476189  1
  H  H113  1  0.191018  0.375164  0.172690  1
  H  H114  1  0.691020  0.375154  0.476189  1
  H  H115  1  0.808870  0.375159  0.172685  1
  H  H116  1  0.308870  0.375162  0.476194  1
  H  H117  1  0.191018  0.875169  0.481963  1
  H  H118  1  0.691020  0.875155  0.178462  1
  H  H119  1  0.808867  0.875162  0.481966  1
  H  H120  1  0.308869  0.875159  0.178459  1
