# generated using pymatgen
data_Si11H2O23
_symmetry_space_group_name_H-M   'P 1'
_cell_length_a   12.61833605
_cell_length_b   33.27032509
_cell_length_c   49.89153301
_cell_angle_alpha   112.29219165
_cell_angle_beta   120.00000000
_cell_angle_gamma   79.06676341
_symmetry_Int_Tables_number   1
_chemical_formula_structural   Si11H2O23
_chemical_formula_sum   'Si132 H24 O276'
_cell_volume   16783.4434409
_cell_formula_units_Z   12
loop_
 _symmetry_equiv_pos_site_id
 _symmetry_equiv_pos_as_xyz
  1  'x, y, z'
loop_
 _atom_site_type_symbol
 _atom_site_label
 _atom_site_symmetry_multiplicity
 _atom_site_fract_x
 _atom_site_fract_y
 _atom_site_fract_z
 _atom_site_occupancy
  O  O1  1  0.317050  0.250434  0.190925  1
  O  O2  1  0.697607  0.250268  0.190856  1
  O  O3  1  0.666642  0.166595  0.180111  1
  O  O4  1  0.388832  0.166740  0.180167  1
  O  O5  1  0.542237  0.226864  0.202638  1
  O  O6  1  0.892093  0.295067  0.225816  1
  O  O7  1  0.215338  0.295051  0.225788  1
  O  O8  1  0.560028  0.112639  0.182869  1
  O  O9  1  0.689352  0.333251  0.214046  1
  O  O10  1  0.976996  0.333140  0.286806  1
  O  O11  1  0.124872  0.297771  0.262491  1
  O  O12  1  0.208248  0.035537  0.238532  1
  O  O13  1  0.985496  0.250202  0.263669  1
  O  O14  1  0.316674  0.250280  0.263685  1
  O  O15  1  0.347351  0.082943  0.237024  1
  O  O16  1  0.016324  0.082872  0.237210  1
  O  O17  1  0.388591  0.166650  0.250378  1
  O  O18  1  0.944391  0.166545  0.250406  1
  O  O19  1  0.915287  0.226858  0.297026  1
  O  O20  1  0.541951  0.226873  0.297060  1
  O  O21  1  0.417570  0.106523  0.203749  1
  O  O22  1  0.791124  0.106393  0.203743  1
  O  O23  1  0.773292  0.220664  0.237035  1
  O  O24  1  0.453278  0.220780  0.237091  1
  O  O25  1  0.559566  0.112560  0.263735  1
  O  O26  1  0.879704  0.112595  0.263781  1
  O  O27  1  0.333232  0.333236  0.286777  1
  O  O28  1  0.681003  0.416209  0.237212  1
  O  O29  1  0.349787  0.416449  0.237261  1
  O  O30  1  0.721865  0.499930  0.250734  1
  O  O31  1  0.541446  0.368769  0.238363  1
  O  O32  1  0.893106  0.445866  0.263830  1
  O  O33  1  0.213471  0.445951  0.263966  1
  O  O34  1  0.332939  0.333455  0.214065  1
  O  O35  1  0.277906  0.500164  0.250842  1
  O  O36  1  0.916814  0.369094  0.333416  1
  O  O37  1  0.541932  0.368998  0.333308  1
  O  O38  1  0.030664  0.583423  0.360490  1
  O  O39  1  0.318838  0.583506  0.360608  1
  O  O40  1  0.349669  0.416187  0.310045  1
  O  O41  1  0.968969  0.416084  0.309918  1
  O  O42  1  0.774324  0.371342  0.275048  1
  O  O43  1  0.450969  0.371576  0.275060  1
  O  O44  1  0.277784  0.499861  0.321051  1
  O  O45  1  0.000000  0.499766  0.320924  1
  O  O46  1  0.249095  0.560186  0.297699  1
  O  O47  1  0.875442  0.560059  0.297551  1
  O  O48  1  0.124251  0.439664  0.298233  1
  O  O49  1  0.106662  0.553996  0.318538  1
  O  O50  1  0.364356  0.917159  0.360446  1
  O  O51  1  0.652368  0.917059  0.360434  1
  O  O52  1  0.000000  0.000000  0.214354  1
  O  O53  1  0.355909  0.000000  0.214223  1
  O  O54  1  0.416729  0.964424  0.167974  1
  O  O55  1  0.791714  0.964538  0.168000  1
  O  O56  1  0.249668  0.702219  0.333730  1
  O  O57  1  0.874710  0.702249  0.333779  1
  O  O58  1  0.983175  0.916879  0.191276  1
  O  O59  1  0.363902  0.916872  0.191189  1
  O  O60  1  0.302165  0.749518  0.141304  1
  O  O61  1  0.014299  0.749491  0.141382  1
  O  O62  1  0.558620  0.961568  0.226106  1
  O  O63  1  0.882017  0.961777  0.226192  1
  O  O64  1  0.107472  0.704829  0.357337  1
  O  O65  1  0.333016  0.833216  0.180545  1
  O  O66  1  0.055311  0.833231  0.180598  1
  O  O67  1  0.208471  0.893442  0.202966  1
  O  O68  1  0.226449  0.779199  0.183309  1
  O  O69  1  -0.000000  -0.000000  0.287107  1
  O  O70  1  0.749858  0.297830  0.167619  1
  O  O71  1  0.124949  0.297742  0.167578  1
  O  O72  1  0.582848  0.035677  0.333285  1
  O  O73  1  0.207996  0.035570  0.333437  1
  O  O74  1  0.697208  0.250458  0.359993  1
  O  O75  1  0.985227  0.250515  0.359946  1
  O  O76  1  0.635548  0.082921  0.140838  1
  O  O77  1  0.016155  0.083137  0.310052  1
  O  O78  1  0.635587  0.083102  0.309995  1
  O  O79  1  0.347813  0.083062  0.140880  1
  O  O80  1  0.440985  0.038101  0.356907  1
  O  O81  1  0.440882  0.038451  0.275113  1
  O  O82  1  0.117723  0.038271  0.275246  1
  O  O83  1  0.944131  0.166792  0.320705  1
  O  O84  1  0.666379  0.166763  0.320672  1
  O  O85  1  0.790729  0.106584  0.298182  1
  O  O86  1  0.773031  0.220870  0.318013  1
  O  O87  1  0.643415  0.000000  0.286989  1
  O  O88  1  0.082951  0.631021  0.168119  1
  O  O89  1  0.458377  0.631213  0.263154  1
  O  O90  1  0.457937  0.631159  0.168207  1
  O  O91  1  0.318733  0.583886  0.264392  1
  O  O92  1  0.650024  0.583792  0.191456  1
  O  O93  1  0.650140  0.583644  0.264300  1
  O  O94  1  0.030787  0.583905  0.191594  1
  O  O95  1  0.969266  0.416638  0.141091  1
  O  O96  1  0.681003  0.416500  0.140970  1
  O  O97  1  0.225508  0.628585  0.226438  1
  O  O98  1  0.548703  0.628425  0.226416  1
  O  O99  1  0.774685  0.371924  0.357026  1
  O  O100  1  0.000000  0.500259  0.180656  1
  O  O101  1  0.722049  0.500137  0.180514  1
  O  O102  1  0.875466  0.560369  0.203291  1
  O  O103  1  0.750617  0.439854  0.203876  1
  O  O104  1  0.124453  0.439990  0.204020  1
  O  O105  1  0.106610  0.554216  0.237733  1
  O  O106  1  0.786351  0.554098  0.237584  1
  O  O107  1  0.893198  0.446004  0.183046  1
  O  O108  1  0.666667  0.666658  0.287354  1
  O  O109  1  0.791536  0.964382  0.262859  1
  O  O110  1  0.874734  0.702242  0.238835  1
  O  O111  1  0.651912  0.917001  0.264130  1
  O  O112  1  0.983813  0.917191  0.264227  1
  O  O113  1  0.014270  0.749857  0.237696  1
  O  O114  1  0.682802  0.749676  0.310422  1
  O  O115  1  0.682884  0.749688  0.237596  1
  O  O116  1  0.302265  0.749838  0.310543  1
  O  O117  1  0.107550  0.705064  0.275571  1
  O  O118  1  0.784344  0.704970  0.275559  1
  O  O119  1  0.611176  0.833359  0.321144  1
  O  O120  1  0.055535  0.833496  0.250964  1
  O  O121  1  0.610771  0.833316  0.250814  1
  O  O122  1  0.333347  0.833491  0.321207  1
  O  O123  1  0.582119  0.893513  0.297482  1
  O  O124  1  0.209126  0.893643  0.297536  1
  O  O125  1  0.084390  0.773180  0.204315  1
  O  O126  1  0.457644  0.773232  0.298716  1
  O  O127  1  0.457531  0.773087  0.204202  1
  O  O128  1  0.440168  0.887450  0.318472  1
  O  O129  1  0.439652  0.887423  0.237451  1
  O  O130  1  0.119999  0.887439  0.237523  1
  O  O131  1  0.226574  0.779337  0.264317  1
  O  O132  1  0.546364  0.779258  0.264213  1
  O  O133  1  0.310329  0.666879  0.287385  1
  O  O134  1  0.666317  0.666748  0.214603  1
  O  O135  1  0.022869  0.666895  0.214606  1
  O  O136  1  0.317050  0.250434  0.443882  1
  O  O137  1  0.697607  0.250268  0.443813  1
  O  O138  1  0.666642  0.166595  0.433069  1
  O  O139  1  0.388832  0.166740  0.433125  1
  O  O140  1  0.356214  0.000000  0.377236  1
  O  O141  1  0.542237  0.226864  0.455595  1
  O  O142  1  0.892093  0.295067  0.478773  1
  O  O143  1  0.215338  0.295051  0.478745  1
  O  O144  1  0.560028  0.112639  0.435827  1
  O  O145  1  0.689352  0.333251  0.467003  1
  O  O146  1  0.643955  0.000000  0.377133  1
  O  O147  1  0.976996  0.333140  0.539763  1
  O  O148  1  0.124872  0.297771  0.515448  1
  O  O149  1  0.208248  0.035537  0.491489  1
  O  O150  1  0.985496  0.250202  0.516626  1
  O  O151  1  0.316674  0.250280  0.516642  1
  O  O152  1  0.347351  0.082943  0.489981  1
  O  O153  1  0.016324  0.082872  0.490168  1
  O  O154  1  0.388591  0.166650  0.503336  1
  O  O155  1  0.944391  0.166545  0.503364  1
  O  O156  1  0.915287  0.226858  0.549984  1
  O  O157  1  0.541951  0.226873  0.550018  1
  O  O158  1  0.417570  0.106523  0.456707  1
  O  O159  1  0.791124  0.106393  0.456701  1
  O  O160  1  0.773292  0.220664  0.489992  1
  O  O161  1  0.453278  0.220780  0.490048  1
  O  O162  1  0.559566  0.112560  0.516692  1
  O  O163  1  0.879704  0.112595  0.516739  1
  O  O164  1  0.333232  0.333236  0.539735  1
  O  O165  1  0.681003  0.416209  0.490170  1
  O  O166  1  0.349787  0.416449  0.490218  1
  O  O167  1  0.721865  0.499930  0.503691  1
  O  O168  1  0.541446  0.368769  0.491320  1
  O  O169  1  0.893106  0.445866  0.516787  1
  O  O170  1  0.213471  0.445951  0.516923  1
  O  O171  1  0.332939  0.333455  0.467022  1
  O  O172  1  0.277906  0.500164  0.503799  1
  O  O173  1  0.022394  0.666440  0.377332  1
  O  O174  1  0.310037  0.666490  0.377345  1
  O  O175  1  0.916814  0.369094  0.586374  1
  O  O176  1  0.541932  0.368998  0.586266  1
  O  O177  1  0.030664  0.583423  0.613448  1
  O  O178  1  0.318838  0.583506  0.613566  1
  O  O179  1  0.349669  0.416187  0.563003  1
  O  O180  1  0.968969  0.416084  0.562876  1
  O  O181  1  0.225149  0.628239  0.397477  1
  O  O182  1  0.774324  0.371342  0.528006  1
  O  O183  1  0.450969  0.371576  0.528017  1
  O  O184  1  0.277784  0.499861  0.574008  1
  O  O185  1  0.000000  0.499766  0.573881  1
  O  O186  1  0.249095  0.560186  0.550656  1
  O  O187  1  0.875442  0.560059  0.550509  1
  O  O188  1  0.124251  0.439664  0.551190  1
  O  O189  1  0.106662  0.553996  0.571496  1
  O  O190  1  0.364356  0.917159  0.613403  1
  O  O191  1  0.652368  0.917059  0.613391  1
  O  O192  1  0.558973  0.961909  0.397347  1
  O  O193  1  0.000000  0.000000  0.467312  1
  O  O194  1  0.355909  0.000000  0.467181  1
  O  O195  1  0.416729  0.964424  0.420931  1
  O  O196  1  0.791714  0.964538  0.420957  1
  O  O197  1  0.249668  0.702219  0.586688  1
  O  O198  1  0.874710  0.702249  0.586736  1
  O  O199  1  0.983175  0.916879  0.444234  1
  O  O200  1  0.363902  0.916872  0.444147  1
  O  O201  1  0.302165  0.749518  0.394262  1
  O  O202  1  0.014299  0.749491  0.394340  1
  O  O203  1  0.558620  0.961568  0.479064  1
  O  O204  1  0.882017  0.961777  0.479150  1
  O  O205  1  0.333016  0.833216  0.433503  1
  O  O206  1  0.055311  0.833231  0.433556  1
  O  O207  1  0.208471  0.893442  0.455923  1
  O  O208  1  0.226449  0.779199  0.436267  1
  O  O209  1  -0.000000  -0.000000  0.540064  1
  O  O210  1  0.749858  0.297830  0.420577  1
  O  O211  1  0.124949  0.297742  0.420535  1
  O  O212  1  0.582848  0.035677  0.586242  1
  O  O213  1  0.207996  0.035570  0.586395  1
  O  O214  1  0.697208  0.250458  0.612951  1
  O  O215  1  0.985227  0.250515  0.612903  1
  O  O216  1  0.635548  0.082921  0.393795  1
  O  O217  1  0.016155  0.083137  0.563010  1
  O  O218  1  0.635587  0.083102  0.562952  1
  O  O219  1  0.347813  0.083062  0.393837  1
  O  O220  1  0.892123  0.295082  0.396969  1
  O  O221  1  0.440882  0.038451  0.528071  1
  O  O222  1  0.117723  0.038271  0.528203  1
  O  O223  1  0.944131  0.166792  0.573662  1
  O  O224  1  0.666379  0.166763  0.573629  1
  O  O225  1  0.790729  0.106584  0.551139  1
  O  O226  1  0.773031  0.220870  0.570970  1
  O  O227  1  0.643415  0.000000  0.539946  1
  O  O228  1  0.977246  0.333587  0.377064  1
  O  O229  1  0.082951  0.631021  0.421077  1
  O  O230  1  0.458377  0.631213  0.516112  1
  O  O231  1  0.457937  0.631159  0.421165  1
  O  O232  1  0.318733  0.583886  0.517349  1
  O  O233  1  0.650024  0.583792  0.444413  1
  O  O234  1  0.650140  0.583644  0.517258  1
  O  O235  1  0.030787  0.583905  0.444552  1
  O  O236  1  0.969266  0.416638  0.394049  1
  O  O237  1  0.681003  0.416500  0.393927  1
  O  O238  1  0.225508  0.628585  0.479395  1
  O  O239  1  0.548703  0.628425  0.479373  1
  O  O240  1  -0.000000  0.500259  0.433613  1
  O  O241  1  0.722049  0.500137  0.433471  1
  O  O242  1  0.875466  0.560369  0.456249  1
  O  O243  1  0.750617  0.439854  0.456833  1
  O  O244  1  0.124453  0.439990  0.456977  1
  O  O245  1  0.106610  0.554216  0.490690  1
  O  O246  1  0.786351  0.554098  0.490541  1
  O  O247  1  0.893198  0.446004  0.436003  1
  O  O248  1  0.689643  0.333476  0.376976  1
  O  O249  1  0.666667  0.666658  0.540311  1
  O  O250  1  0.791536  0.964382  0.515817  1
  O  O251  1  0.874734  0.702242  0.491792  1
  O  O252  1  0.651912  0.917001  0.517087  1
  O  O253  1  0.983813  0.917191  0.517185  1
  O  O254  1  0.014270  0.749857  0.490654  1
  O  O255  1  0.682802  0.749676  0.563379  1
  O  O256  1  0.682884  0.749688  0.490553  1
  O  O257  1  0.302265  0.749838  0.563500  1
  O  O258  1  0.107550  0.705064  0.528528  1
  O  O259  1  0.784344  0.704970  0.528516  1
  O  O260  1  0.611176  0.833359  0.574101  1
  O  O261  1  0.055535  0.833496  0.503921  1
  O  O262  1  0.610771  0.833316  0.503772  1
  O  O263  1  0.333347  0.833491  0.574164  1
  O  O264  1  0.582119  0.893513  0.550439  1
  O  O265  1  0.209126  0.893643  0.550494  1
  O  O266  1  0.084390  0.773180  0.457273  1
  O  O267  1  0.457644  0.773232  0.551674  1
  O  O268  1  0.457531  0.773087  0.457159  1
  O  O269  1  0.440168  0.887450  0.571429  1
  O  O270  1  0.439652  0.887423  0.490409  1
  O  O271  1  0.119999  0.887439  0.490480  1
  O  O272  1  0.226574  0.779337  0.517274  1
  O  O273  1  0.546364  0.779258  0.517171  1
  O  O274  1  0.310329  0.666879  0.540342  1
  O  O275  1  0.666317  0.666748  0.467560  1
  O  O276  1  0.022869  0.666895  0.467563  1
  Si  Si277  1  0.755225  0.293998  0.198490  1
  Si  Si278  1  0.666287  0.116866  0.176071  1
  Si  Si279  1  0.422682  0.116998  0.176101  1
  Si  Si280  1  0.667021  0.216370  0.201219  1
  Si  Si281  1  0.422351  0.216493  0.201278  1
  Si  Si282  1  0.245403  0.294042  0.198505  1
  Si  Si283  1  0.333904  0.039356  0.240730  1
  Si  Si284  1  0.422314  0.116881  0.237924  1
  Si  Si285  1  0.245320  0.293970  0.260141  1
  Si  Si286  1  0.422124  0.216387  0.262838  1
  Si  Si287  1  0.910574  0.216314  0.262828  1
  Si  Si288  1  0.087792  0.039246  0.240869  1
  Si  Si289  1  0.910887  0.116810  0.237984  1
  Si  Si290  1  0.998978  0.293937  0.260155  1
  Si  Si291  1  0.244006  0.549880  0.263485  1
  Si  Si292  1  0.755431  0.549703  0.263368  1
  Si  Si293  1  0.667432  0.372484  0.240705  1
  Si  Si294  1  0.420943  0.372699  0.240717  1
  Si  Si295  1  0.244457  0.450376  0.238206  1
  Si  Si296  1  0.755688  0.450204  0.238095  1
  Si  Si297  1  0.911231  0.372453  0.302369  1
  Si  Si298  1  0.421169  0.372571  0.302383  1
  Si  Si299  1  0.244342  0.450146  0.299749  1
  Si  Si300  1  0.000000  0.549586  0.325220  1
  Si  Si301  1  0.244017  0.549648  0.325325  1
  Si  Si302  1  -0.000000  0.450078  0.299629  1
  Si  Si303  1  0.244418  0.706145  0.302899  1
  Si  Si304  1  0.754324  0.706023  0.302863  1
  Si  Si305  1  0.244314  0.705869  0.365146  1
  Si  Si306  1  0.000000  0.705870  0.365195  1
  Si  Si307  1  0.333362  0.883013  0.201605  1
  Si  Si308  1  0.332649  0.783493  0.176516  1
  Si  Si309  1  0.089165  0.783501  0.176568  1
  Si  Si310  1  0.088749  0.883011  0.201660  1
  Si  Si311  1  0.912094  0.960637  0.198878  1
  Si  Si312  1  0.421777  0.960523  0.198782  1
  Si  Si313  1  0.910707  0.117017  0.299622  1
  Si  Si314  1  0.577823  0.039225  0.364731  1
  Si  Si315  1  0.087555  0.039429  0.302551  1
  Si  Si316  1  0.577690  0.039480  0.302438  1
  Si  Si317  1  0.334120  0.039293  0.364807  1
  Si  Si318  1  0.910322  0.216533  0.324747  1
  Si  Si319  1  0.666790  0.216506  0.324772  1
  Si  Si320  1  0.665918  0.116992  0.299569  1
  Si  Si321  1  0.911570  0.372983  0.364891  1
  Si  Si322  1  0.667655  0.372875  0.364799  1
  Si  Si323  1  0.755422  0.549863  0.201790  1
  Si  Si324  1  0.000000  0.549951  0.201917  1
  Si  Si325  1  0.000000  0.450445  0.176363  1
  Si  Si326  1  0.755822  0.450355  0.176254  1
  Si  Si327  1  0.332353  0.627537  0.260810  1
  Si  Si328  1  0.578536  0.627424  0.199094  1
  Si  Si329  1  0.578806  0.627345  0.260777  1
  Si  Si330  1  0.088607  0.627509  0.199121  1
  Si  Si331  1  0.577478  0.783607  0.300051  1
  Si  Si332  1  0.577387  0.783577  0.238418  1
  Si  Si333  1  0.665526  0.960617  0.260487  1
  Si  Si334  1  0.912057  0.960763  0.260568  1
  Si  Si335  1  0.000000  0.706134  0.241210  1
  Si  Si336  1  0.754281  0.706027  0.241191  1
  Si  Si337  1  0.089280  0.783716  0.238532  1
  Si  Si338  1  0.577467  0.883105  0.325212  1
  Si  Si339  1  0.089084  0.883224  0.263367  1
  Si  Si340  1  0.576958  0.883080  0.263245  1
  Si  Si341  1  0.333869  0.883197  0.325234  1
  Si  Si342  1  0.332886  0.783696  0.300141  1
  Si  Si343  1  0.755225  0.293998  0.451448  1
  Si  Si344  1  0.666287  0.116866  0.429028  1
  Si  Si345  1  0.422682  0.116998  0.429059  1
  Si  Si346  1  0.667021  0.216370  0.454177  1
  Si  Si347  1  0.422351  0.216493  0.454235  1
  Si  Si348  1  0.245403  0.294042  0.451462  1
  Si  Si349  1  0.333904  0.039356  0.493688  1
  Si  Si350  1  0.422314  0.116881  0.490881  1
  Si  Si351  1  0.245320  0.293970  0.513098  1
  Si  Si352  1  0.422124  0.216387  0.515795  1
  Si  Si353  1  0.910574  0.216314  0.515785  1
  Si  Si354  1  0.087792  0.039246  0.493827  1
  Si  Si355  1  0.910887  0.116810  0.490941  1
  Si  Si356  1  0.998978  0.293937  0.513112  1
  Si  Si357  1  0.244006  0.549880  0.516442  1
  Si  Si358  1  0.755431  0.549703  0.516325  1
  Si  Si359  1  0.667432  0.372484  0.493663  1
  Si  Si360  1  0.420943  0.372699  0.493675  1
  Si  Si361  1  0.244457  0.450376  0.491164  1
  Si  Si362  1  0.755688  0.450204  0.491052  1
  Si  Si363  1  0.332149  0.627221  0.389671  1
  Si  Si364  1  0.911231  0.372453  0.555326  1
  Si  Si365  1  0.421169  0.372571  0.555341  1
  Si  Si366  1  0.244342  0.450146  0.552707  1
  Si  Si367  1  -0.000000  0.549586  0.578178  1
  Si  Si368  1  0.244017  0.549648  0.578282  1
  Si  Si369  1  -0.000000  0.450078  0.552586  1
  Si  Si370  1  0.088256  0.627126  0.389602  1
  Si  Si371  1  0.244418  0.706145  0.555856  1
  Si  Si372  1  0.754324  0.706023  0.555820  1
  Si  Si373  1  0.422147  0.960829  0.389535  1
  Si  Si374  1  0.665914  0.960778  0.389490  1
  Si  Si375  1  0.333362  0.883013  0.454563  1
  Si  Si376  1  0.332649  0.783493  0.429474  1
  Si  Si377  1  0.089165  0.783501  0.429525  1
  Si  Si378  1  0.088749  0.883011  0.454618  1
  Si  Si379  1  0.912094  0.960637  0.451836  1
  Si  Si380  1  0.421777  0.960523  0.451740  1
  Si  Si381  1  0.910707  0.117017  0.552579  1
  Si  Si382  1  0.755244  0.294074  0.389139  1
  Si  Si383  1  -0.000000  0.294095  0.389131  1
  Si  Si384  1  0.087555  0.039429  0.555508  1
  Si  Si385  1  0.577690  0.039480  0.555395  1
  Si  Si386  1  0.910322  0.216533  0.577704  1
  Si  Si387  1  0.666790  0.216506  0.577729  1
  Si  Si388  1  0.665918  0.116992  0.552526  1
  Si  Si389  1  0.755422  0.549863  0.454747  1
  Si  Si390  1  -0.000000  0.549951  0.454874  1
  Si  Si391  1  0.000000  0.450445  0.429321  1
  Si  Si392  1  0.755822  0.450355  0.429212  1
  Si  Si393  1  0.332353  0.627537  0.513768  1
  Si  Si394  1  0.578536  0.627424  0.452052  1
  Si  Si395  1  0.578806  0.627345  0.513735  1
  Si  Si396  1  0.088607  0.627509  0.452078  1
  Si  Si397  1  0.577478  0.783607  0.553009  1
  Si  Si398  1  0.577387  0.783577  0.491375  1
  Si  Si399  1  0.665526  0.960617  0.513445  1
  Si  Si400  1  0.912057  0.960763  0.513525  1
  Si  Si401  1  0.000000  0.706134  0.494168  1
  Si  Si402  1  0.754281  0.706027  0.494148  1
  Si  Si403  1  0.089280  0.783716  0.491490  1
  Si  Si404  1  0.577467  0.883105  0.578169  1
  Si  Si405  1  0.089084  0.883224  0.516324  1
  Si  Si406  1  0.576958  0.883080  0.516202  1
  Si  Si407  1  0.333869  0.883197  0.578191  1
  Si  Si408  1  0.332886  0.783696  0.553099  1
  H  H409  1  0.416729  0.964424  0.149935  1
  H  H410  1  0.791714  0.964538  0.149961  1
  H  H411  1  0.302165  0.749518  0.123265  1
  H  H412  1  0.014299  0.749491  0.123343  1
  H  H413  1  0.749858  0.297830  0.149580  1
  H  H414  1  0.124949  0.297742  0.149539  1
  H  H415  1  0.635548  0.082921  0.122798  1
  H  H416  1  0.347813  0.083062  0.122841  1
  H  H417  1  0.082951  0.631021  0.150080  1
  H  H418  1  0.457937  0.631159  0.150168  1
  H  H419  1  0.969266  0.416638  0.123052  1
  H  H420  1  0.681003  0.416500  0.122930  1
  H  H421  1  0.916814  0.369094  0.604413  1
  H  H422  1  0.541932  0.368998  0.604305  1
  H  H423  1  0.030664  0.583423  0.631487  1
  H  H424  1  0.318838  0.583506  0.631605  1
  H  H425  1  0.364356  0.917159  0.631442  1
  H  H426  1  0.652368  0.917059  0.631431  1
  H  H427  1  0.249668  0.702219  0.604727  1
  H  H428  1  0.874710  0.702249  0.604775  1
  H  H429  1  0.582848  0.035677  0.604281  1
  H  H430  1  0.207996  0.035570  0.604434  1
  H  H431  1  0.697208  0.250458  0.630990  1
  H  H432  1  0.985227  0.250515  0.630942  1
