# generated using pymatgen
data_Si40H6O83
_symmetry_space_group_name_H-M   'P 1'
_cell_length_a   13.56605876
_cell_length_b   46.01197261
_cell_length_c   58.36599033
_cell_angle_alpha   107.14383045
_cell_angle_beta   120.00000000
_cell_angle_gamma   81.52454549
_symmetry_Int_Tables_number   1
_chemical_formula_structural   Si40H6O83
_chemical_formula_sum   'Si240 H36 O498'
_cell_volume   30149.2520897
_cell_formula_units_Z   6
loop_
 _symmetry_equiv_pos_site_id
 _symmetry_equiv_pos_as_xyz
  1  'x, y, z'
loop_
 _atom_site_type_symbol
 _atom_site_label
 _atom_site_symmetry_multiplicity
 _atom_site_fract_x
 _atom_site_fract_y
 _atom_site_fract_z
 _atom_site_occupancy
  O  O1  1  0.746528  -0.000000  0.222486  1
  O  O2  1  -0.000000  0.000000  0.222532  1
  O  O3  1  0.883218  0.042567  0.236986  1
  O  O4  1  0.079518  0.111130  0.229682  1
  O  O5  1  0.333918  0.111167  0.170965  1
  O  O6  1  0.586331  0.111299  0.229672  1
  O  O7  1  0.079803  0.111093  0.171094  1
  O  O8  1  0.100603  0.068641  0.192890  1
  O  O9  1  0.450051  0.068747  0.274129  1
  O  O10  1  0.450246  0.068765  0.192801  1
  O  O11  1  0.233238  0.072312  0.244136  1
  O  O12  1  0.534086  0.072338  0.244056  1
  O  O13  1  0.233324  0.072206  0.174127  1
  O  O14  1  0.028432  0.055534  0.223442  1
  O  O15  1  0.305133  0.055543  0.139388  1
  O  O16  1  0.666856  0.055714  0.223459  1
  O  O17  1  0.028367  0.055548  0.139444  1
  O  O18  1  0.232463  0.150238  0.262338  1
  O  O19  1  0.533732  0.150288  0.262218  1
  O  O20  1  0.232734  0.150128  0.192240  1
  O  O21  1  0.799577  0.039004  0.267169  1
  O  O22  1  0.099805  0.153662  0.212659  1
  O  O23  1  0.449773  0.153768  0.212554  1
  O  O24  1  0.100445  0.038936  0.267183  1
  O  O25  1  0.027418  0.166661  0.249213  1
  O  O26  1  0.027500  0.166595  0.165352  1
  O  O27  1  0.746839  0.222250  0.274321  1
  O  O28  1  0.998652  0.222167  0.159744  1
  O  O29  1  0.998952  0.222201  0.274210  1
  O  O30  1  0.252978  0.222229  0.159658  1
  O  O31  1  0.232202  0.264651  0.137860  1
  O  O32  1  0.882945  0.264640  0.137964  1
  O  O33  1  0.099723  0.261132  0.156695  1
  O  O34  1  0.666496  0.277831  0.275346  1
  O  O35  1  0.027969  0.277761  0.191444  1
  O  O36  1  0.028111  0.277863  0.275393  1
  O  O37  1  0.304616  0.277874  0.191290  1
  O  O38  1  0.099662  0.183230  0.138433  1
  O  O39  1  0.666314  0.166817  0.249271  1
  O  O40  1  0.450144  0.290899  0.244609  1
  O  O41  1  0.232417  0.179635  0.117978  1
  O  O42  1  0.882895  0.179663  0.268991  1
  O  O43  1  0.882653  0.179593  0.118062  1
  O  O44  1  0.233060  0.294428  0.226084  1
  O  O45  1  0.099956  0.290871  0.244817  1
  O  O46  1  0.304745  0.166704  0.165271  1
  O  O47  1  0.638889  0.388654  0.139804  1
  O  O48  1  0.362133  0.388827  0.139868  1
  O  O49  1  0.361126  0.499935  0.165206  1
  O  O50  1  0.638945  0.499867  0.165217  1
  O  O51  1  0.000000  0.499958  0.249169  1
  O  O52  1  0.433717  0.372349  0.267576  1
  O  O53  1  0.413167  0.444583  0.229851  1
  O  O54  1  0.667604  0.444345  0.171146  1
  O  O55  1  0.919647  0.444459  0.229900  1
  O  O56  1  0.413208  0.444448  0.171213  1
  O  O57  1  0.433901  0.402045  0.193243  1
  O  O58  1  0.783500  0.402130  0.274562  1
  O  O59  1  0.783610  0.401960  0.193211  1
  O  O60  1  0.566482  0.405636  0.244473  1
  O  O61  1  0.867548  0.405611  0.244490  1
  O  O62  1  0.566875  0.405584  0.174541  1
  O  O63  1  0.361591  0.389058  0.223861  1
  O  O64  1  0.000000  0.388882  0.223860  1
  O  O65  1  0.566392  0.483574  0.262300  1
  O  O66  1  0.867394  0.483551  0.262359  1
  O  O67  1  0.566125  0.483496  0.192146  1
  O  O68  1  0.333255  0.333455  0.222888  1
  O  O69  1  0.433462  0.487080  0.212618  1
  O  O70  1  0.783165  0.486952  0.212624  1
  O  O71  1  0.216569  0.375898  0.237404  1
  O  O72  1  0.133051  0.372326  0.267636  1
  O  O73  1  0.080146  0.333343  0.222975  1
  O  O74  1  0.361423  0.611138  0.190882  1
  O  O75  1  0.638298  0.611116  0.190881  1
  O  O76  1  0.783375  0.624172  0.244198  1
  O  O77  1  0.361227  0.500083  0.249163  1
  O  O78  1  0.079949  0.555471  0.273946  1
  O  O79  1  0.332568  0.555490  0.159409  1
  O  O80  1  0.332273  0.555547  0.273971  1
  O  O81  1  0.587240  0.555460  0.159446  1
  O  O82  1  0.566257  0.597982  0.137500  1
  O  O83  1  0.216792  0.597988  0.137486  1
  O  O84  1  0.433621  0.594318  0.156198  1
  O  O85  1  0.000000  0.611060  0.274866  1
  O  O86  1  0.361331  0.611123  0.274885  1
  O  O87  1  0.434010  0.516432  0.138347  1
  O  O88  1  0.566447  0.512978  0.117890  1
  O  O89  1  0.216088  0.512953  0.268757  1
  O  O90  1  0.216808  0.512963  0.117874  1
  O  O91  1  0.432761  0.624176  0.244208  1
  O  O92  1  0.566265  0.627774  0.225603  1
  O  O93  1  0.694989  0.722266  0.223250  1
  O  O94  1  0.333347  0.722264  0.223257  1
  O  O95  1  0.333590  0.833316  0.249063  1
  O  O96  1  0.746486  0.777862  0.229498  1
  O  O97  1  0.253084  0.777838  0.229481  1
  O  O98  1  0.466201  0.705633  0.267006  1
  O  O99  1  0.766947  0.705628  0.266984  1
  O  O100  1  0.116954  0.820399  0.212431  1
  O  O101  1  0.000000  0.777857  0.170829  1
  O  O102  1  0.746478  0.777860  0.170864  1
  O  O103  1  0.767031  0.735391  0.192679  1
  O  O104  1  0.116677  0.735357  0.273960  1
  O  O105  1  0.116663  0.735378  0.192643  1
  O  O106  1  0.899811  0.738953  0.243922  1
  O  O107  1  0.200658  0.738923  0.243890  1
  O  O108  1  0.899787  0.738950  0.173944  1
  O  O109  1  0.971815  0.722240  0.139228  1
  O  O110  1  0.694991  0.722254  0.139260  1
  O  O111  1  0.899768  0.816881  0.262117  1
  O  O112  1  0.201103  0.816871  0.262092  1
  O  O113  1  0.899820  0.816869  0.192058  1
  O  O114  1  0.413262  0.666712  0.222375  1
  O  O115  1  0.549772  0.709228  0.236784  1
  O  O116  1  0.766916  0.820410  0.212468  1
  O  O117  1  0.666584  0.666705  0.222357  1
  O  O118  1  0.333293  0.944392  0.274957  1
  O  O119  1  0.694904  0.944493  0.275012  1
  O  O120  1  0.694760  0.833366  0.249058  1
  O  O121  1  0.972307  0.833392  0.165133  1
  O  O122  1  0.694833  0.833380  0.165155  1
  O  O123  1  0.550184  0.846285  0.268810  1
  O  O124  1  0.550129  0.846299  0.117823  1
  O  O125  1  0.899525  0.961094  0.225706  1
  O  O126  1  0.116808  0.957481  0.244304  1
  O  O127  1  0.900233  0.846310  0.117808  1
  O  O128  1  0.766087  0.957585  0.244317  1
  O  O129  1  0.413772  0.888812  0.273982  1
  O  O130  1  0.666038  0.888886  0.159384  1
  O  O131  1  0.665987  0.888867  0.273964  1
  O  O132  1  0.920449  0.888899  0.159388  1
  O  O133  1  0.899800  0.931337  0.137542  1
  O  O134  1  0.549984  0.931315  0.137530  1
  O  O135  1  0.766923  0.927793  0.156250  1
  O  O136  1  0.694714  0.944507  0.190946  1
  O  O137  1  0.971668  0.944491  0.190982  1
  O  O138  1  0.767271  0.849862  0.138201  1
  O  O139  1  0.746345  0.000000  0.281350  1
  O  O140  1  0.233769  0.042466  0.318436  1
  O  O141  1  0.746528  -0.000000  0.454865  1
  O  O142  1  -0.000000  -0.000000  0.454910  1
  O  O143  1  0.883218  0.042567  0.469365  1
  O  O144  1  0.079518  0.111130  0.462061  1
  O  O145  1  0.586001  0.111242  0.288737  1
  O  O146  1  0.333918  0.111167  0.403344  1
  O  O147  1  0.334053  0.111197  0.288847  1
  O  O148  1  0.586331  0.111299  0.462051  1
  O  O149  1  0.079803  0.111093  0.403472  1
  O  O150  1  0.100603  0.068641  0.425268  1
  O  O151  1  0.450051  0.068747  0.506508  1
  O  O152  1  0.450246  0.068765  0.425180  1
  O  O153  1  0.233238  0.072312  0.476515  1
  O  O154  1  0.534086  0.072338  0.476434  1
  O  O155  1  0.233324  0.072206  0.406506  1
  O  O156  1  0.028432  0.055534  0.455821  1
  O  O157  1  0.666771  0.055691  0.287788  1
  O  O158  1  0.305133  0.055543  0.371767  1
  O  O159  1  0.305361  0.055567  0.287800  1
  O  O160  1  0.666856  0.055714  0.455837  1
  O  O161  1  0.028367  0.055548  0.371822  1
  O  O162  1  0.232463  0.150238  0.494717  1
  O  O163  1  0.533732  0.150288  0.494596  1
  O  O164  1  0.232734  0.150128  0.424619  1
  O  O165  1  0.100294  0.038881  0.337058  1
  O  O166  1  0.799577  0.039004  0.499548  1
  O  O167  1  0.099805  0.153662  0.445037  1
  O  O168  1  0.449557  0.153787  0.293977  1
  O  O169  1  0.449773  0.153768  0.444933  1
  O  O170  1  0.883063  0.042537  0.318488  1
  O  O171  1  0.100445  0.038936  0.499562  1
  O  O172  1  0.027418  0.166661  0.481591  1
  O  O173  1  0.027500  0.166595  0.397731  1
  O  O174  1  0.305059  0.166667  0.313808  1
  O  O175  1  0.253166  0.222146  0.333425  1
  O  O176  1  0.746835  0.222135  0.333387  1
  O  O177  1  0.746839  0.222250  0.506699  1
  O  O178  1  0.998652  0.222167  0.392122  1
  O  O179  1  0.998952  0.222201  0.506589  1
  O  O180  1  0.252978  0.222229  0.392036  1
  O  O181  1  0.232202  0.264651  0.370238  1
  O  O182  1  0.883118  0.264680  0.288948  1
  O  O183  1  0.882945  0.264640  0.370343  1
  O  O184  1  0.099859  0.261028  0.318997  1
  O  O185  1  0.799309  0.261112  0.319059  1
  O  O186  1  0.099723  0.261132  0.389073  1
  O  O187  1  0.304821  0.277738  0.339783  1
  O  O188  1  0.666496  0.277831  0.507725  1
  O  O189  1  0.027969  0.277761  0.423823  1
  O  O190  1  0.028111  0.277863  0.507772  1
  O  O191  1  0.666303  0.277629  0.339601  1
  O  O192  1  0.304616  0.277874  0.423669  1
  O  O193  1  0.099990  0.183108  0.300675  1
  O  O194  1  0.798883  0.183128  0.300767  1
  O  O195  1  0.099662  0.183230  0.370812  1
  O  O196  1  0.666314  0.166817  0.481649  1
  O  O197  1  0.233104  0.294441  0.296108  1
  O  O198  1  0.333587  0.333300  0.340742  1
  O  O199  1  0.450144  0.290899  0.476988  1
  O  O200  1  0.232417  0.179635  0.350357  1
  O  O201  1  0.882895  0.179663  0.501370  1
  O  O202  1  0.882653  0.179593  0.350440  1
  O  O203  1  0.233060  0.294428  0.458463  1
  O  O204  1  0.533406  0.294349  0.295881  1
  O  O205  1  0.099956  0.290871  0.477196  1
  O  O206  1  0.450085  0.290720  0.326203  1
  O  O207  1  0.586612  0.333172  0.340557  1
  O  O208  1  0.666086  0.166692  0.313710  1
  O  O209  1  0.304745  0.166704  0.397649  1
  O  O210  1  0.638889  0.388654  0.372183  1
  O  O211  1  0.362133  0.388827  0.372247  1
  O  O212  1  0.361126  0.499935  0.397585  1
  O  O213  1  0.638945  0.499867  0.397595  1
  O  O214  1  -0.000000  0.499958  0.481548  1
  O  O215  1  0.080127  0.333436  0.281867  1
  O  O216  1  0.567382  0.375803  0.318858  1
  O  O217  1  0.433717  0.372349  0.499955  1
  O  O218  1  0.413167  0.444583  0.462230  1
  O  O219  1  0.919822  0.444612  0.289079  1
  O  O220  1  0.667604  0.444345  0.403524  1
  O  O221  1  0.667388  0.444618  0.289032  1
  O  O222  1  0.919647  0.444459  0.462279  1
  O  O223  1  0.413208  0.444448  0.403592  1
  O  O224  1  0.433901  0.402045  0.425622  1
  O  O225  1  0.783500  0.402130  0.506940  1
  O  O226  1  0.783610  0.401960  0.425590  1
  O  O227  1  0.566482  0.405636  0.476852  1
  O  O228  1  0.867548  0.405611  0.476869  1
  O  O229  1  0.566875  0.405584  0.406920  1
  O  O230  1  0.361591  0.389058  0.456239  1
  O  O231  1  -0.000000  0.389037  0.288263  1
  O  O232  1  0.638580  0.389014  0.288203  1
  O  O233  1  0.000000  0.388882  0.456238  1
  O  O234  1  0.566392  0.483574  0.494679  1
  O  O235  1  0.867394  0.483551  0.494738  1
  O  O236  1  0.566125  0.483496  0.424525  1
  O  O237  1  0.216736  0.375883  0.318942  1
  O  O238  1  0.333255  0.333455  0.455267  1
  O  O239  1  0.433462  0.487080  0.444996  1
  O  O240  1  0.783514  0.487149  0.294150  1
  O  O241  1  0.783165  0.486952  0.445003  1
  O  O242  1  0.433883  0.372191  0.337465  1
  O  O243  1  0.216569  0.375898  0.469783  1
  O  O244  1  0.133051  0.372326  0.500014  1
  O  O245  1  0.586643  0.333382  0.281743  1
  O  O246  1  0.080146  0.333343  0.455354  1
  O  O247  1  0.361423  0.611138  0.423260  1
  O  O248  1  0.638298  0.611116  0.423260  1
  O  O249  1  0.867007  0.627720  0.295502  1
  O  O250  1  0.783375  0.624172  0.476577  1
  O  O251  1  0.361227  0.500083  0.481542  1
  O  O252  1  0.783478  0.624142  0.325733  1
  O  O253  1  0.586445  0.555579  0.333118  1
  O  O254  1  0.079949  0.555471  0.506325  1
  O  O255  1  0.332568  0.555490  0.391788  1
  O  O256  1  0.332273  0.555547  0.506350  1
  O  O257  1  0.080490  0.555553  0.333158  1
  O  O258  1  0.587240  0.555460  0.391825  1
  O  O259  1  0.566257  0.597982  0.369879  1
  O  O260  1  0.216308  0.597985  0.288503  1
  O  O261  1  0.216792  0.597988  0.369864  1
  O  O262  1  0.433267  0.594516  0.318623  1
  O  O263  1  0.132517  0.594420  0.318602  1
  O  O264  1  0.433621  0.594318  0.388577  1
  O  O265  1  0.638183  0.611134  0.339269  1
  O  O266  1  -0.000000  0.611060  0.507245  1
  O  O267  1  0.361331  0.611123  0.507264  1
  O  O268  1  -0.000000  0.611122  0.339268  1
  O  O269  1  0.433177  0.516552  0.300591  1
  O  O270  1  0.132288  0.516475  0.300574  1
  O  O271  1  0.434010  0.516432  0.370725  1
  O  O272  1  -0.000000  0.500115  0.313782  1
  O  O273  1  0.566301  0.627717  0.295512  1
  O  O274  1  0.566447  0.512978  0.350269  1
  O  O275  1  0.216088  0.512953  0.501136  1
  O  O276  1  0.216808  0.512963  0.350253  1
  O  O277  1  0.432761  0.624176  0.476586  1
  O  O278  1  0.566265  0.627774  0.457981  1
  O  O279  1  0.638366  0.500128  0.313714  1
  O  O280  1  0.919933  0.666650  0.281238  1
  O  O281  1  0.919924  0.666659  0.340123  1
  O  O282  1  0.694989  0.722266  0.455628  1
  O  O283  1  0.333347  0.722264  0.455636  1
  O  O284  1  0.333590  0.833316  0.481442  1
  O  O285  1  0.333565  0.833295  0.313566  1
  O  O286  1  0.413331  0.666677  0.281257  1
  O  O287  1  0.746486  0.777862  0.461876  1
  O  O288  1  0.253084  0.777838  0.461859  1
  O  O289  1  0.466201  0.705633  0.499384  1
  O  O290  1  0.766947  0.705628  0.499363  1
  O  O291  1  0.116954  0.820399  0.444810  1
  O  O292  1  0.900447  0.709169  0.318280  1
  O  O293  1  0.116967  0.820377  0.293829  1
  O  O294  1  0.253094  0.777812  0.288602  1
  O  O295  1  0.000000  0.777857  0.403208  1
  O  O296  1  0.000000  0.777825  0.288640  1
  O  O297  1  0.746478  0.777860  0.403243  1
  O  O298  1  0.767031  0.735391  0.425057  1
  O  O299  1  0.116677  0.735357  0.506339  1
  O  O300  1  0.116663  0.735378  0.425021  1
  O  O301  1  0.899811  0.738953  0.476300  1
  O  O302  1  0.200658  0.738923  0.476269  1
  O  O303  1  0.899787  0.738950  0.406322  1
  O  O304  1  0.333346  0.722224  0.287602  1
  O  O305  1  0.971815  0.722240  0.371607  1
  O  O306  1  0.971867  0.722211  0.287605  1
  O  O307  1  0.694991  0.722254  0.371639  1
  O  O308  1  0.899768  0.816881  0.494495  1
  O  O309  1  0.201103  0.816871  0.494471  1
  O  O310  1  0.899820  0.816869  0.424437  1
  O  O311  1  0.766916  0.705605  0.336892  1
  O  O312  1  0.413262  0.666712  0.454754  1
  O  O313  1  0.549787  0.709190  0.318307  1
  O  O314  1  0.549772  0.709228  0.469163  1
  O  O315  1  0.766916  0.820410  0.444847  1
  O  O316  1  0.666584  0.666705  0.454735  1
  O  O317  1  0.666630  0.666673  0.340136  1
  O  O318  1  0.333293  0.944392  0.507336  1
  O  O319  1  0.694904  0.944493  0.507391  1
  O  O320  1  0.253478  0.000000  0.281365  1
  O  O321  1  0.694760  0.833366  0.481436  1
  O  O322  1  0.972365  0.833333  0.313579  1
  O  O323  1  0.972307  0.833392  0.397512  1
  O  O324  1  0.694833  0.833380  0.397533  1
  O  O325  1  0.550184  0.846285  0.501189  1
  O  O326  1  0.550129  0.846299  0.350202  1
  O  O327  1  0.899525  0.961094  0.458085  1
  O  O328  1  0.116808  0.957481  0.476682  1
  O  O329  1  0.253579  -0.000000  0.340257  1
  O  O330  1  0.900233  0.846310  0.350187  1
  O  O331  1  0.766087  0.957585  0.476695  1
  O  O332  1  0.116890  0.957484  0.325808  1
  O  O333  1  0.200498  0.961042  0.295578  1
  O  O334  1  0.899658  0.961162  0.295616  1
  O  O335  1  0.920333  0.888827  0.333115  1
  O  O336  1  0.413772  0.888812  0.506361  1
  O  O337  1  0.666038  0.888886  0.391763  1
  O  O338  1  0.665987  0.888867  0.506343  1
  O  O339  1  0.413690  0.888804  0.333107  1
  O  O340  1  0.920449  0.888899  0.391767  1
  O  O341  1  0.899800  0.931337  0.369920  1
  O  O342  1  0.550015  0.931310  0.288616  1
  O  O343  1  0.549984  0.931315  0.369908  1
  O  O344  1  0.766902  0.927743  0.318670  1
  O  O345  1  0.465891  0.927726  0.318662  1
  O  O346  1  0.766923  0.927793  0.388629  1
  O  O347  1  0.971799  0.944382  0.339312  1
  O  O348  1  0.694714  0.944507  0.423325  1
  O  O349  1  0.333239  0.944365  0.339308  1
  O  O350  1  0.971668  0.944491  0.423361  1
  O  O351  1  0.767286  0.849809  0.300510  1
  O  O352  1  0.465954  0.849790  0.300538  1
  O  O353  1  0.767271  0.849862  0.370579  1
  O  O354  1  0.000000  -0.000000  0.340282  1
  O  O355  1  0.746345  0.000000  0.513729  1
  O  O356  1  0.233769  0.042466  0.550815  1
  O  O357  1  0.586001  0.111242  0.521116  1
  O  O358  1  0.333918  0.111167  0.635723  1
  O  O359  1  0.334053  0.111197  0.521225  1
  O  O360  1  0.079803  0.111093  0.635851  1
  O  O361  1  0.100603  0.068641  0.657647  1
  O  O362  1  0.450246  0.068765  0.657559  1
  O  O363  1  0.233324  0.072206  0.638885  1
  O  O364  1  0.666771  0.055691  0.520167  1
  O  O365  1  0.305133  0.055543  0.604145  1
  O  O366  1  0.305361  0.055567  0.520179  1
  O  O367  1  0.028367  0.055548  0.604201  1
  O  O368  1  0.232734  0.150128  0.656997  1
  O  O369  1  0.100294  0.038881  0.569437  1
  O  O370  1  0.099805  0.153662  0.677416  1
  O  O371  1  0.449557  0.153787  0.526355  1
  O  O372  1  0.449773  0.153768  0.677312  1
  O  O373  1  0.883063  0.042537  0.550867  1
  O  O374  1  0.027500  0.166595  0.630109  1
  O  O375  1  0.305059  0.166667  0.546187  1
  O  O376  1  0.253166  0.222146  0.565804  1
  O  O377  1  0.746835  0.222135  0.565766  1
  O  O378  1  0.998652  0.222167  0.624501  1
  O  O379  1  0.252978  0.222229  0.624415  1
  O  O380  1  0.232202  0.264651  0.602617  1
  O  O381  1  0.883118  0.264680  0.521327  1
  O  O382  1  0.882945  0.264640  0.602722  1
  O  O383  1  0.099859  0.261028  0.551376  1
  O  O384  1  0.799309  0.261112  0.551438  1
  O  O385  1  0.099723  0.261132  0.621452  1
  O  O386  1  0.304821  0.277738  0.572162  1
  O  O387  1  0.027969  0.277761  0.656202  1
  O  O388  1  0.666303  0.277629  0.571980  1
  O  O389  1  0.304616  0.277874  0.656047  1
  O  O390  1  0.099990  0.183108  0.533054  1
  O  O391  1  0.798883  0.183128  0.533146  1
  O  O392  1  0.099662  0.183230  0.603190  1
  O  O393  1  0.233104  0.294441  0.528487  1
  O  O394  1  0.333587  0.333300  0.573121  1
  O  O395  1  0.232417  0.179635  0.582735  1
  O  O396  1  0.882653  0.179593  0.582819  1
  O  O397  1  0.533406  0.294349  0.528260  1
  O  O398  1  0.450085  0.290720  0.558582  1
  O  O399  1  0.586612  0.333172  0.572936  1
  O  O400  1  0.666086  0.166692  0.546088  1
  O  O401  1  0.304745  0.166704  0.630028  1
  O  O402  1  0.638889  0.388654  0.604562  1
  O  O403  1  0.362133  0.388827  0.604626  1
  O  O404  1  0.361126  0.499935  0.629963  1
  O  O405  1  0.638945  0.499867  0.629974  1
  O  O406  1  0.080127  0.333436  0.514245  1
  O  O407  1  0.567382  0.375803  0.551237  1
  O  O408  1  0.919822  0.444612  0.521458  1
  O  O409  1  0.667604  0.444345  0.635903  1
  O  O410  1  0.667388  0.444618  0.521411  1
  O  O411  1  0.413208  0.444448  0.635971  1
  O  O412  1  0.433901  0.402045  0.658001  1
  O  O413  1  0.783610  0.401960  0.657968  1
  O  O414  1  0.566875  0.405584  0.639299  1
  O  O415  1  -0.000000  0.389037  0.520642  1
  O  O416  1  0.638580  0.389014  0.520581  1
  O  O417  1  0.566125  0.483496  0.656904  1
  O  O418  1  0.216736  0.375883  0.551320  1
  O  O419  1  0.433462  0.487080  0.677375  1
  O  O420  1  0.783514  0.487149  0.526529  1
  O  O421  1  0.783165  0.486952  0.677381  1
  O  O422  1  0.433883  0.372191  0.569844  1
  O  O423  1  0.586643  0.333382  0.514122  1
  O  O424  1  0.361423  0.611138  0.655639  1
  O  O425  1  0.638298  0.611116  0.655638  1
  O  O426  1  0.867007  0.627720  0.527881  1
  O  O427  1  0.783478  0.624142  0.558111  1
  O  O428  1  0.586445  0.555579  0.565497  1
  O  O429  1  0.332568  0.555490  0.624166  1
  O  O430  1  0.080490  0.555553  0.565537  1
  O  O431  1  0.587240  0.555460  0.624203  1
  O  O432  1  0.566257  0.597982  0.602258  1
  O  O433  1  0.216308  0.597985  0.520881  1
  O  O434  1  0.216792  0.597988  0.602243  1
  O  O435  1  0.433267  0.594516  0.551002  1
  O  O436  1  0.132517  0.594420  0.550981  1
  O  O437  1  0.433621  0.594318  0.620955  1
  O  O438  1  0.638183  0.611134  0.571648  1
  O  O439  1  -0.000000  0.611122  0.571646  1
  O  O440  1  0.433177  0.516552  0.532970  1
  O  O441  1  0.132288  0.516475  0.532952  1
  O  O442  1  0.434010  0.516432  0.603104  1
  O  O443  1  0.000000  0.500115  0.546160  1
  O  O444  1  0.566301  0.627717  0.527891  1
  O  O445  1  0.566447  0.512978  0.582648  1
  O  O446  1  0.216808  0.512963  0.582632  1
  O  O447  1  0.638366  0.500128  0.546093  1
  O  O448  1  0.919933  0.666650  0.513617  1
  O  O449  1  0.919924  0.666659  0.572502  1
  O  O450  1  0.333565  0.833295  0.545944  1
  O  O451  1  0.413331  0.666677  0.513635  1
  O  O452  1  0.116954  0.820399  0.677189  1
  O  O453  1  0.900447  0.709169  0.550659  1
  O  O454  1  0.116967  0.820377  0.526207  1
  O  O455  1  0.253094  0.777812  0.520981  1
  O  O456  1  -0.000000  0.777857  0.635587  1
  O  O457  1  -0.000000  0.777825  0.521018  1
  O  O458  1  0.746478  0.777860  0.635622  1
  O  O459  1  0.767031  0.735391  0.657436  1
  O  O460  1  0.116663  0.735378  0.657400  1
  O  O461  1  0.899787  0.738950  0.638701  1
  O  O462  1  0.333346  0.722224  0.519981  1
  O  O463  1  0.971815  0.722240  0.603985  1
  O  O464  1  0.971867  0.722211  0.519984  1
  O  O465  1  0.694991  0.722254  0.604018  1
  O  O466  1  0.899820  0.816869  0.656815  1
  O  O467  1  0.766916  0.705605  0.569271  1
  O  O468  1  0.549787  0.709190  0.550686  1
  O  O469  1  0.766916  0.820410  0.677225  1
  O  O470  1  0.666630  0.666673  0.572515  1
  O  O471  1  0.253478  0.000000  0.513743  1
  O  O472  1  0.972365  0.833333  0.545958  1
  O  O473  1  0.972307  0.833392  0.629890  1
  O  O474  1  0.694833  0.833380  0.629912  1
  O  O475  1  0.550129  0.846299  0.582580  1
  O  O476  1  0.253579  -0.000000  0.572636  1
  O  O477  1  0.900233  0.846310  0.582565  1
  O  O478  1  0.116890  0.957484  0.558187  1
  O  O479  1  0.200498  0.961042  0.527957  1
  O  O480  1  0.899658  0.961162  0.527995  1
  O  O481  1  0.920333  0.888827  0.565493  1
  O  O482  1  0.666038  0.888886  0.624142  1
  O  O483  1  0.413690  0.888804  0.565486  1
  O  O484  1  0.920449  0.888899  0.624145  1
  O  O485  1  0.899800  0.931337  0.602299  1
  O  O486  1  0.550015  0.931310  0.520995  1
  O  O487  1  0.549984  0.931315  0.602287  1
  O  O488  1  0.766902  0.927743  0.551048  1
  O  O489  1  0.465891  0.927726  0.551041  1
  O  O490  1  0.766923  0.927793  0.621008  1
  O  O491  1  0.971799  0.944382  0.571691  1
  O  O492  1  0.694714  0.944507  0.655704  1
  O  O493  1  0.333239  0.944365  0.571687  1
  O  O494  1  0.971668  0.944491  0.655740  1
  O  O495  1  0.767286  0.849809  0.532888  1
  O  O496  1  0.465954  0.849790  0.532917  1
  O  O497  1  0.767271  0.849862  0.602958  1
  O  O498  1  -0.000000  0.000000  0.572660  1
  Si  Si499  1  0.106578  0.076152  0.221740  1
  Si  Si500  1  0.560465  0.076237  0.274389  1
  Si  Si501  1  0.333364  0.076159  0.168852  1
  Si  Si502  1  0.333421  0.076214  0.274472  1
  Si  Si503  1  0.560611  0.076283  0.221700  1
  Si  Si504  1  0.106717  0.076095  0.168921  1
  Si  Si505  1  0.106094  0.146146  0.238036  1
  Si  Si506  1  0.332956  0.146145  0.185189  1
  Si  Si507  1  0.560032  0.146279  0.237984  1
  Si  Si508  1  0.106324  0.146092  0.185276  1
  Si  Si509  1  0.772963  0.035077  0.236817  1
  Si  Si510  1  -0.000000  0.035009  0.236853  1
  Si  Si511  1  -0.000000  0.257189  0.161946  1
  Si  Si512  1  0.226244  0.257240  0.161862  1
  Si  Si513  1  0.772782  0.187239  0.272329  1
  Si  Si514  1  -0.000000  0.187192  0.145465  1
  Si  Si515  1  -0.000000  0.187184  0.272233  1
  Si  Si516  1  0.226058  0.187247  0.145387  1
  Si  Si517  1  0.106595  0.298434  0.273745  1
  Si  Si518  1  0.332977  0.298434  0.220797  1
  Si  Si519  1  0.560167  0.298381  0.273591  1
  Si  Si520  1  0.106544  0.298334  0.220903  1
  Si  Si521  1  0.439885  0.409564  0.222086  1
  Si  Si522  1  0.894018  0.409593  0.274845  1
  Si  Si523  1  0.666935  0.409388  0.169221  1
  Si  Si524  1  0.666686  0.409585  0.274815  1
  Si  Si525  1  0.893994  0.409469  0.222093  1
  Si  Si526  1  0.440225  0.409483  0.169291  1
  Si  Si527  1  0.439949  0.479558  0.238018  1
  Si  Si528  1  0.666608  0.479381  0.185182  1
  Si  Si529  1  0.893352  0.479459  0.238061  1
  Si  Si530  1  0.439754  0.479477  0.185201  1
  Si  Si531  1  0.106523  0.368339  0.237281  1
  Si  Si532  1  0.333584  0.368443  0.237237  1
  Si  Si533  1  0.333411  0.590472  0.161446  1
  Si  Si534  1  0.560268  0.590444  0.161455  1
  Si  Si535  1  0.105943  0.520480  0.272087  1
  Si  Si536  1  0.333493  0.520476  0.145291  1
  Si  Si537  1  0.332975  0.520562  0.272101  1
  Si  Si538  1  0.560440  0.520450  0.145330  1
  Si  Si539  1  0.439690  0.631669  0.273163  1
  Si  Si540  1  0.666349  0.631707  0.220348  1
  Si  Si541  1  0.893529  0.631655  0.273149  1
  Si  Si542  1  0.439653  0.631707  0.220355  1
  Si  Si543  1  0.773191  0.742864  0.221541  1
  Si  Si544  1  0.773321  0.812859  0.237844  1
  Si  Si545  1  0.227191  0.812837  0.237824  1
  Si  Si546  1  0.227138  0.742842  0.221519  1
  Si  Si547  1  0.227163  0.742819  0.274236  1
  Si  Si548  1  0.000000  0.742854  0.168692  1
  Si  Si549  1  0.000000  0.742833  0.274263  1
  Si  Si550  1  0.773173  0.742856  0.168717  1
  Si  Si551  1  0.000000  0.812847  0.185047  1
  Si  Si552  1  0.773370  0.812850  0.185072  1
  Si  Si553  1  0.439655  0.701711  0.236660  1
  Si  Si554  1  0.666834  0.701711  0.236643  1
  Si  Si555  1  0.227082  0.964983  0.273238  1
  Si  Si556  1  0.773055  0.965094  0.273280  1
  Si  Si557  1  0.666743  0.923886  0.161492  1
  Si  Si558  1  0.893596  0.923895  0.161508  1
  Si  Si559  1  0.439905  0.853819  0.272083  1
  Si  Si560  1  0.666911  0.853892  0.145206  1
  Si  Si561  1  0.666900  0.853868  0.272064  1
  Si  Si562  1  0.893727  0.853901  0.145199  1
  Si  Si563  1  0.000000  0.965010  0.220476  1
  Si  Si564  1  0.772893  0.965073  0.220439  1
  Si  Si565  1  0.227076  0.034984  0.289509  1
  Si  Si566  1  0.772972  0.035087  0.289519  1
  Si  Si567  1  0.106578  0.076152  0.454118  1
  Si  Si568  1  0.560465  0.076237  0.506768  1
  Si  Si569  1  0.333364  0.076159  0.401231  1
  Si  Si570  1  0.333421  0.076214  0.506850  1
  Si  Si571  1  0.560611  0.076283  0.454079  1
  Si  Si572  1  0.106717  0.076095  0.401300  1
  Si  Si573  1  0.106094  0.146146  0.470415  1
  Si  Si574  1  0.559733  0.146228  0.290663  1
  Si  Si575  1  0.332956  0.146145  0.417568  1
  Si  Si576  1  0.332934  0.146210  0.290779  1
  Si  Si577  1  0.560032  0.146279  0.470363  1
  Si  Si578  1  0.106324  0.146092  0.417654  1
  Si  Si579  1  0.772963  0.035077  0.469196  1
  Si  Si580  1  -0.000000  0.035004  0.340419  1
  Si  Si581  1  -0.000000  0.035009  0.469231  1
  Si  Si582  1  0.226865  0.034954  0.342294  1
  Si  Si583  1  0.226406  0.257134  0.341413  1
  Si  Si584  1  0.772742  0.257140  0.341404  1
  Si  Si585  1  0.226328  0.187139  0.324994  1
  Si  Si586  1  0.772602  0.187139  0.325006  1
  Si  Si587  1  0.772685  0.257239  0.288704  1
  Si  Si588  1  0.000000  0.257189  0.394325  1
  Si  Si589  1  0.000000  0.257178  0.288649  1
  Si  Si590  1  0.226244  0.257240  0.394241  1
  Si  Si591  1  0.772782  0.187239  0.504708  1
  Si  Si592  1  -0.000000  0.187192  0.377843  1
  Si  Si593  1  0.000000  0.187184  0.504612  1
  Si  Si594  1  0.226058  0.187247  0.377766  1
  Si  Si595  1  0.106595  0.298434  0.506123  1
  Si  Si596  1  0.560013  0.298193  0.326223  1
  Si  Si597  1  0.332977  0.298434  0.453175  1
  Si  Si598  1  0.333212  0.298298  0.326435  1
  Si  Si599  1  0.560167  0.298381  0.505970  1
  Si  Si600  1  0.106544  0.298334  0.453282  1
  Si  Si601  1  0.439885  0.409564  0.454465  1
  Si  Si602  1  0.894018  0.409593  0.507224  1
  Si  Si603  1  0.666935  0.409388  0.401600  1
  Si  Si604  1  0.666686  0.409585  0.507194  1
  Si  Si605  1  0.893994  0.409469  0.454471  1
  Si  Si606  1  0.440225  0.409483  0.401669  1
  Si  Si607  1  0.439949  0.479558  0.470397  1
  Si  Si608  1  0.893736  0.479589  0.290861  1
  Si  Si609  1  0.666608  0.479381  0.417560  1
  Si  Si610  1  0.666572  0.479579  0.290796  1
  Si  Si611  1  0.893352  0.479459  0.470440  1
  Si  Si612  1  0.439754  0.479477  0.417579  1
  Si  Si613  1  0.560368  0.368390  0.289900  1
  Si  Si614  1  0.106523  0.368339  0.469659  1
  Si  Si615  1  0.333835  0.368296  0.342748  1
  Si  Si616  1  0.333584  0.368443  0.469616  1
  Si  Si617  1  0.106503  0.368438  0.289996  1
  Si  Si618  1  0.560445  0.368193  0.342674  1
  Si  Si619  1  0.559894  0.590590  0.341005  1
  Si  Si620  1  0.105903  0.590477  0.288242  1
  Si  Si621  1  0.333411  0.590472  0.393824  1
  Si  Si622  1  0.333149  0.590561  0.288264  1
  Si  Si623  1  0.106202  0.590546  0.341012  1
  Si  Si624  1  0.560268  0.590444  0.393834  1
  Si  Si625  1  0.559629  0.520596  0.324874  1
  Si  Si626  1  0.105943  0.520480  0.504466  1
  Si  Si627  1  0.333493  0.520476  0.377670  1
  Si  Si628  1  0.332975  0.520562  0.504480  1
  Si  Si629  1  0.106482  0.520551  0.324892  1
  Si  Si630  1  0.560440  0.520450  0.377709  1
  Si  Si631  1  0.439690  0.631669  0.505541  1
  Si  Si632  1  0.893593  0.631655  0.325852  1
  Si  Si633  1  0.666349  0.631707  0.452726  1
  Si  Si634  1  0.666386  0.631665  0.325861  1
  Si  Si635  1  0.893529  0.631655  0.505528  1
  Si  Si636  1  0.439653  0.631707  0.452734  1
  Si  Si637  1  0.773191  0.742864  0.453919  1
  Si  Si638  1  0.773321  0.812859  0.470223  1
  Si  Si639  1  0.227191  0.812837  0.470202  1
  Si  Si640  1  0.227138  0.742842  0.453898  1
  Si  Si641  1  0.227163  0.742819  0.506614  1
  Si  Si642  1  -0.000000  0.742854  0.401071  1
  Si  Si643  1  0.000000  0.742833  0.506642  1
  Si  Si644  1  0.773173  0.742856  0.401096  1
  Si  Si645  1  0.227202  0.812816  0.290543  1
  Si  Si646  1  0.000000  0.812847  0.417425  1
  Si  Si647  1  0.000000  0.812828  0.288657  1
  Si  Si648  1  0.773370  0.812850  0.417451  1
  Si  Si649  1  0.893547  0.701660  0.289329  1
  Si  Si650  1  0.439655  0.701711  0.469039  1
  Si  Si651  1  0.666861  0.701674  0.342158  1
  Si  Si652  1  0.666834  0.701711  0.469021  1
  Si  Si653  1  0.439659  0.701676  0.289348  1
  Si  Si654  1  0.893529  0.701662  0.342138  1
  Si  Si655  1  0.227082  0.964983  0.505617  1
  Si  Si656  1  0.773055  0.965094  0.505658  1
  Si  Si657  1  0.893550  0.923823  0.341044  1
  Si  Si658  1  0.439532  0.923814  0.288328  1
  Si  Si659  1  0.666743  0.923886  0.393871  1
  Si  Si660  1  0.666747  0.923855  0.288328  1
  Si  Si661  1  0.439489  0.923806  0.341040  1
  Si  Si662  1  0.893596  0.923895  0.393887  1
  Si  Si663  1  0.893728  0.853826  0.324786  1
  Si  Si664  1  0.439905  0.853819  0.504462  1
  Si  Si665  1  0.666911  0.853892  0.377584  1
  Si  Si666  1  0.666900  0.853868  0.504443  1
  Si  Si667  1  0.439837  0.853821  0.324803  1
  Si  Si668  1  0.893727  0.853901  0.377577  1
  Si  Si669  1  0.227022  0.964960  0.325926  1
  Si  Si670  1  0.000000  0.965010  0.452855  1
  Si  Si671  1  0.000000  0.964997  0.327845  1
  Si  Si672  1  0.772893  0.965073  0.452817  1
  Si  Si673  1  0.227076  0.034984  0.521888  1
  Si  Si674  1  0.772972  0.035087  0.521898  1
  Si  Si675  1  0.333364  0.076159  0.633610  1
  Si  Si676  1  0.106717  0.076095  0.633678  1
  Si  Si677  1  0.559733  0.146228  0.523041  1
  Si  Si678  1  0.332956  0.146145  0.649947  1
  Si  Si679  1  0.332934  0.146210  0.523158  1
  Si  Si680  1  0.106324  0.146092  0.650033  1
  Si  Si681  1  -0.000000  0.035004  0.572797  1
  Si  Si682  1  0.226865  0.034954  0.574673  1
  Si  Si683  1  0.226406  0.257134  0.573792  1
  Si  Si684  1  0.772742  0.257140  0.573782  1
  Si  Si685  1  0.226328  0.187139  0.557372  1
  Si  Si686  1  0.772602  0.187139  0.557385  1
  Si  Si687  1  0.772685  0.257239  0.521082  1
  Si  Si688  1  0.000000  0.257189  0.626704  1
  Si  Si689  1  -0.000000  0.257178  0.521028  1
  Si  Si690  1  0.226244  0.257240  0.626619  1
  Si  Si691  1  0.000000  0.187192  0.610222  1
  Si  Si692  1  0.226058  0.187247  0.610145  1
  Si  Si693  1  0.560013  0.298193  0.558602  1
  Si  Si694  1  0.333212  0.298298  0.558814  1
  Si  Si695  1  0.666935  0.409388  0.633979  1
  Si  Si696  1  0.440225  0.409483  0.634048  1
  Si  Si697  1  0.893736  0.479589  0.523240  1
  Si  Si698  1  0.666608  0.479381  0.649939  1
  Si  Si699  1  0.666572  0.479579  0.523175  1
  Si  Si700  1  0.439754  0.479477  0.649958  1
  Si  Si701  1  0.560368  0.368390  0.522279  1
  Si  Si702  1  0.333835  0.368296  0.575127  1
  Si  Si703  1  0.106503  0.368438  0.522375  1
  Si  Si704  1  0.560445  0.368193  0.575052  1
  Si  Si705  1  0.559894  0.590590  0.573384  1
  Si  Si706  1  0.105903  0.590477  0.520620  1
  Si  Si707  1  0.333411  0.590472  0.626203  1
  Si  Si708  1  0.333149  0.590561  0.520642  1
  Si  Si709  1  0.106202  0.590546  0.573391  1
  Si  Si710  1  0.560268  0.590444  0.626212  1
  Si  Si711  1  0.559629  0.520596  0.557252  1
  Si  Si712  1  0.333493  0.520476  0.610049  1
  Si  Si713  1  0.106482  0.520551  0.557270  1
  Si  Si714  1  0.560440  0.520450  0.610088  1
  Si  Si715  1  0.893593  0.631655  0.558231  1
  Si  Si716  1  0.666386  0.631665  0.558239  1
  Si  Si717  1  0.000000  0.742854  0.633450  1
  Si  Si718  1  0.773173  0.742856  0.633474  1
  Si  Si719  1  0.227202  0.812816  0.522922  1
  Si  Si720  1  0.000000  0.812847  0.649804  1
  Si  Si721  1  0.000000  0.812828  0.521036  1
  Si  Si722  1  0.773370  0.812850  0.649829  1
  Si  Si723  1  0.893547  0.701660  0.521707  1
  Si  Si724  1  0.666861  0.701674  0.574537  1
  Si  Si725  1  0.439659  0.701676  0.521727  1
  Si  Si726  1  0.893529  0.701662  0.574516  1
  Si  Si727  1  0.893550  0.923823  0.573423  1
  Si  Si728  1  0.439532  0.923814  0.520707  1
  Si  Si729  1  0.666743  0.923886  0.626250  1
  Si  Si730  1  0.666747  0.923855  0.520706  1
  Si  Si731  1  0.439489  0.923806  0.573419  1
  Si  Si732  1  0.893596  0.923895  0.626266  1
  Si  Si733  1  0.893728  0.853826  0.557164  1
  Si  Si734  1  0.666911  0.853892  0.609963  1
  Si  Si735  1  0.439837  0.853821  0.557181  1
  Si  Si736  1  0.893727  0.853901  0.609956  1
  Si  Si737  1  0.227022  0.964960  0.558305  1
  Si  Si738  1  0.000000  0.964997  0.560224  1
  H  H739  1  0.305133  0.055543  0.123968  1
  H  H740  1  0.028367  0.055548  0.124024  1
  H  H741  1  0.232202  0.264651  0.122440  1
  H  H742  1  0.882945  0.264640  0.122545  1
  H  H743  1  0.232417  0.179635  0.102558  1
  H  H744  1  0.882653  0.179593  0.102642  1
  H  H745  1  0.638889  0.388654  0.124384  1
  H  H746  1  0.362133  0.388827  0.124448  1
  H  H747  1  0.566257  0.597982  0.122080  1
  H  H748  1  0.216792  0.597988  0.122066  1
  H  H749  1  0.566447  0.512978  0.102470  1
  H  H750  1  0.216808  0.512963  0.102454  1
  H  H751  1  0.971815  0.722240  0.123808  1
  H  H752  1  0.694991  0.722254  0.123840  1
  H  H753  1  0.550129  0.846299  0.102403  1
  H  H754  1  0.900233  0.846310  0.102388  1
  H  H755  1  0.899800  0.931337  0.122122  1
  H  H756  1  0.549984  0.931315  0.122110  1
  H  H757  1  0.100603  0.068641  0.673067  1
  H  H758  1  0.450246  0.068765  0.672979  1
  H  H759  1  0.099805  0.153662  0.692836  1
  H  H760  1  0.449773  0.153768  0.692731  1
  H  H761  1  0.027969  0.277761  0.671621  1
  H  H762  1  0.304616  0.277874  0.671467  1
  H  H763  1  0.433901  0.402045  0.673421  1
  H  H764  1  0.783610  0.401960  0.673388  1
  H  H765  1  0.433462  0.487080  0.692795  1
  H  H766  1  0.783165  0.486952  0.692801  1
  H  H767  1  0.361423  0.611138  0.671059  1
  H  H768  1  0.638298  0.611116  0.671058  1
  H  H769  1  0.116954  0.820399  0.692609  1
  H  H770  1  0.767031  0.735391  0.672856  1
  H  H771  1  0.116663  0.735378  0.672820  1
  H  H772  1  0.766916  0.820410  0.692645  1
  H  H773  1  0.694714  0.944507  0.671124  1
  H  H774  1  0.971668  0.944491  0.671160  1
