# generated using pymatgen
data_Si17H6O37
_symmetry_space_group_name_H-M   'P 1'
_cell_length_a   7.51561045
_cell_length_b   23.17128744
_cell_length_c   43.82310058
_cell_angle_alpha   52.20637989
_cell_angle_beta   90.00000000
_cell_angle_gamma   90.00000000
_symmetry_Int_Tables_number   1
_chemical_formula_structural   Si17H6O37
_chemical_formula_sum   'Si34 H12 O74'
_cell_volume   6030.69457131
_cell_formula_units_Z   2
loop_
 _symmetry_equiv_pos_site_id
 _symmetry_equiv_pos_as_xyz
  1  'x, y, z'
loop_
 _atom_site_type_symbol
 _atom_site_label
 _atom_site_symmetry_multiplicity
 _atom_site_fract_x
 _atom_site_fract_y
 _atom_site_fract_z
 _atom_site_occupancy
  O  O1  1  0.744609  0.998381  0.290037  1
  O  O2  1  0.744607  0.501736  0.288949  1
  O  O3  1  0.255064  0.001793  0.288931  1
  O  O4  1  0.255062  0.498323  0.290056  1
  O  O5  1  0.742203  0.107365  0.291038  1
  O  O6  1  0.731005  0.609925  0.290243  1
  O  O7  1  0.742234  0.107367  0.350690  1
  O  O8  1  0.730978  0.609922  0.349753  1
  O  O9  1  0.268669  0.109925  0.349790  1
  O  O10  1  0.257473  0.607365  0.350655  1
  O  O11  1  0.268698  0.109921  0.290282  1
  O  O12  1  0.257440  0.607367  0.291001  1
  O  O13  1  0.838916  0.220954  0.284053  1
  O  O14  1  0.822686  0.723942  0.283059  1
  O  O15  1  0.176988  0.223942  0.283085  1
  O  O16  1  0.160759  0.720953  0.284028  1
  O  O17  1  0.991949  0.250107  0.193599  1
  O  O18  1  0.007729  0.750107  0.355590  1
  O  O19  1  0.002892  0.317438  0.222314  1
  O  O20  1  0.996781  0.817406  0.222287  1
  O  O21  1  0.002895  0.317406  0.283288  1
  O  O22  1  0.996784  0.817438  0.283240  1
  O  O23  1  0.002895  0.182709  0.164920  1
  O  O24  1  0.834516  0.128451  0.228974  1
  O  O25  1  0.824599  0.633569  0.227799  1
  O  O26  1  0.824601  0.866547  0.314321  1
  O  O27  1  0.834515  0.371665  0.312179  1
  O  O28  1  0.165155  0.871757  0.312105  1
  O  O29  1  0.175073  0.366456  0.314396  1
  O  O30  1  0.175075  0.133659  0.227815  1
  O  O31  1  0.165151  0.628359  0.228960  1
  O  O32  1  0.507924  0.175981  0.298634  1
  O  O33  1  0.491750  0.675981  0.298591  1
  O  O34  1  0.504297  0.096575  0.253990  1
  O  O35  1  0.495374  0.596514  0.253981  1
  O  O36  1  0.495376  0.903602  0.316489  1
  O  O37  1  0.504295  0.403541  0.316538  1
  O  O38  1  0.744611  0.998323  0.422301  1
  O  O39  1  0.744613  0.501793  0.421177  1
  O  O40  1  0.255066  0.001735  0.421196  1
  O  O41  1  0.255069  0.498380  0.422283  1
  O  O42  1  0.731006  0.890191  0.361443  1
  O  O43  1  0.742202  0.392751  0.360578  1
  O  O44  1  0.730978  0.890194  0.420951  1
  O  O45  1  0.742235  0.392749  0.420232  1
  O  O46  1  0.257473  0.892751  0.420195  1
  O  O47  1  0.268671  0.390191  0.420990  1
  O  O48  1  0.257442  0.892749  0.360542  1
  O  O49  1  0.268697  0.390194  0.361479  1
  O  O50  1  0.822687  0.776174  0.428148  1
  O  O51  1  0.838917  0.279162  0.427205  1
  O  O52  1  0.160761  0.779163  0.427179  1
  O  O53  1  0.176989  0.276174  0.428174  1
  O  O54  1  0.007726  0.750009  0.517634  1
  O  O55  1  0.991947  0.250009  0.355643  1
  O  O56  1  0.996781  0.817406  0.546313  1
  O  O57  1  0.996781  0.682709  0.427945  1
  O  O58  1  0.002892  0.182678  0.427993  1
  O  O59  1  0.996784  0.682678  0.488919  1
  O  O60  1  0.002895  0.182709  0.488946  1
  O  O61  1  0.834522  0.128359  0.399128  1
  O  O62  1  0.824602  0.633660  0.396837  1
  O  O63  1  0.824601  0.866456  0.483418  1
  O  O64  1  0.834525  0.371756  0.482273  1
  O  O65  1  0.165159  0.871665  0.482259  1
  O  O66  1  0.175076  0.366547  0.483434  1
  O  O67  1  0.175074  0.133569  0.396912  1
  O  O68  1  0.165161  0.628450  0.399054  1
  O  O69  1  0.491751  0.824135  0.412599  1
  O  O70  1  0.507925  0.324135  0.412641  1
  O  O71  1  0.504299  0.096514  0.394744  1
  O  O72  1  0.495380  0.596575  0.394695  1
  O  O73  1  0.495378  0.903541  0.457243  1
  O  O74  1  0.504302  0.403602  0.457252  1
  Si  Si75  1  0.708338  0.082839  0.264981  1
  Si  Si76  1  0.700406  0.585568  0.264044  1
  Si  Si77  1  0.700409  0.914548  0.319459  1
  Si  Si78  1  0.708336  0.417277  0.318627  1
  Si  Si79  1  0.291333  0.917328  0.318582  1
  Si  Si80  1  0.299266  0.414496  0.319506  1
  Si  Si81  1  0.299267  0.085620  0.264057  1
  Si  Si82  1  0.291331  0.582787  0.264969  1
  Si  Si83  1  0.001528  0.172764  0.203813  1
  Si  Si84  1  0.998147  0.827429  0.315671  1
  Si  Si85  1  0.001527  0.327351  0.315736  1
  Si  Si86  1  0.711251  0.153570  0.305894  1
  Si  Si87  1  0.696538  0.655925  0.305092  1
  Si  Si88  1  0.303137  0.155924  0.305131  1
  Si  Si89  1  0.288423  0.653570  0.305856  1
  Si  Si90  1  0.005167  0.272318  0.267412  1
  Si  Si91  1  0.994508  0.772318  0.267383  1
  Si  Si92  1  0.708342  0.082787  0.392651  1
  Si  Si93  1  0.700410  0.585620  0.391727  1
  Si  Si94  1  0.700408  0.914496  0.447176  1
  Si  Si95  1  0.708344  0.417329  0.446264  1
  Si  Si96  1  0.291337  0.917277  0.446252  1
  Si  Si97  1  0.299270  0.414548  0.447188  1
  Si  Si98  1  0.299268  0.085568  0.391773  1
  Si  Si99  1  0.291339  0.582839  0.392606  1
  Si  Si100  1  0.001528  0.172686  0.395563  1
  Si  Si101  1  0.998149  0.672764  0.395497  1
  Si  Si102  1  0.998147  0.827352  0.507419  1
  Si  Si103  1  0.696539  0.844191  0.406102  1
  Si  Si104  1  0.711252  0.346546  0.405377  1
  Si  Si105  1  0.288423  0.846546  0.405339  1
  Si  Si106  1  0.303137  0.344191  0.406140  1
  Si  Si107  1  0.994508  0.727797  0.443821  1
  Si  Si108  1  0.005167  0.227798  0.443850  1
  H  H109  1  0.991949  0.250107  0.173062  1
  H  H110  1  0.002892  0.317438  0.201777  1
  H  H111  1  0.996781  0.817406  0.201750  1
  H  H112  1  0.002895  0.182709  0.144383  1
  H  H113  1  0.824599  0.633569  0.207262  1
  H  H114  1  0.165151  0.628359  0.208423  1
  H  H115  1  0.007726  0.750009  0.538171  1
  H  H116  1  0.996781  0.817406  0.566850  1
  H  H117  1  0.996784  0.682678  0.509456  1
  H  H118  1  0.002895  0.182709  0.509483  1
  H  H119  1  0.834525  0.371756  0.502811  1
  H  H120  1  0.175076  0.366547  0.503971  1
