# generated using pymatgen
data_Si8H2O17
_symmetry_space_group_name_H-M   'P 1'
_cell_length_a   5.08835178
_cell_length_b   34.54776060
_cell_length_c   32.51952111
_cell_angle_alpha   90.00000000
_cell_angle_beta   90.00000000
_cell_angle_gamma   90.00000000
_symmetry_Int_Tables_number   1
_chemical_formula_structural   Si8H2O17
_chemical_formula_sum   'Si32 H8 O68'
_cell_volume   5716.64431051
_cell_formula_units_Z   4
loop_
 _symmetry_equiv_pos_site_id
 _symmetry_equiv_pos_as_xyz
  1  'x, y, z'
loop_
 _atom_site_type_symbol
 _atom_site_label
 _atom_site_symmetry_multiplicity
 _atom_site_fract_x
 _atom_site_fract_y
 _atom_site_fract_z
 _atom_site_occupancy
  O  O1  1  0.998707  0.959015  0.313589  1
  O  O2  1  0.500933  0.458999  0.313640  1
  O  O3  1  -0.000000  0.040938  0.378849  1
  O  O4  1  0.499892  0.540965  0.378868  1
  O  O5  1  0.248705  0.912406  0.359240  1
  O  O6  1  0.750351  0.412541  0.359790  1
  O  O7  1  0.749218  0.912534  0.359717  1
  O  O8  1  0.250845  0.412405  0.359324  1
  O  O9  1  0.749767  0.087560  0.333303  1
  O  O10  1  0.250454  0.587480  0.332823  1
  O  O11  1  0.249279  0.087410  0.332641  1
  O  O12  1  0.749945  0.587505  0.333066  1
  O  O13  1  0.000000  0.970218  0.391065  1
  O  O14  1  0.499340  0.470242  0.391105  1
  O  O15  1  0.997934  0.029735  0.301374  1
  O  O16  1  0.500631  0.529720  0.301401  1
  O  O17  1  0.252733  0.794468  0.323379  1
  O  O18  1  0.748624  0.294708  0.324101  1
  O  O19  1  0.753062  0.794792  0.324286  1
  O  O20  1  0.248908  0.294565  0.323730  1
  O  O21  1  0.750805  0.205260  0.368617  1
  O  O22  1  0.250527  0.705295  0.368548  1
  O  O23  1  0.250503  0.205374  0.368752  1
  O  O24  1  0.750261  0.705354  0.368703  1
  O  O25  1  0.499581  0.766635  0.383756  1
  O  O26  1  0.000000  0.266624  0.383842  1
  O  O27  1  0.500213  0.233330  0.308762  1
  O  O28  1  0.000000  0.733324  0.308687  1
  O  O29  1  0.498941  0.845587  0.362151  1
  O  O30  1  0.000000  0.345589  0.362225  1
  O  O31  1  0.499528  0.154373  0.330334  1
  O  O32  1  0.000000  0.654373  0.330320  1
  O  O33  1  0.000000  0.576153  0.459224  1
  O  O34  1  0.498877  0.076134  0.459204  1
  O  O35  1  0.000000  0.423790  0.233316  1
  O  O36  1  0.498926  0.923800  0.233266  1
  O  O37  1  0.249180  0.640147  0.454622  1
  O  O38  1  0.761279  0.138727  0.453102  1
  O  O39  1  0.744232  0.639399  0.453804  1
  O  O40  1  0.256449  0.140831  0.455258  1
  O  O41  1  0.755202  0.359356  0.237556  1
  O  O42  1  0.235141  0.861254  0.239210  1
  O  O43  1  0.260035  0.360950  0.239104  1
  O  O44  1  0.739838  0.859038  0.237332  1
  O  O45  1  0.002681  0.612914  0.393594  1
  O  O46  1  0.493039  0.113004  0.393604  1
  O  O47  1  0.995832  0.386977  0.298929  1
  O  O48  1  0.503618  0.886942  0.298858  1
  O  O49  1  0.499728  0.701628  0.435093  1
  O  O50  1  0.000000  0.201607  0.435166  1
  O  O51  1  0.500762  0.298330  0.257439  1
  O  O52  1  0.997776  0.798339  0.257353  1
  O  O53  1  0.250611  0.015631  0.440987  1
  O  O54  1  0.751189  0.515679  0.440912  1
  O  O55  1  0.748806  0.015706  0.440889  1
  O  O56  1  0.249396  0.515714  0.441014  1
  O  O57  1  0.748155  0.984253  0.251457  1
  O  O58  1  0.249544  0.484220  0.251580  1
  O  O59  1  0.249970  0.984291  0.251551  1
  O  O60  1  0.751339  0.484295  0.251510  1
  O  O61  1  0.496349  0.325462  0.181509  1
  O  O62  1  0.000000  0.825524  0.181437  1
  O  O63  1  0.502389  0.674479  0.511025  1
  O  O64  1  0.992675  0.174339  0.511063  1
  O  O65  1  0.000000  0.477977  0.181476  1
  O  O66  1  0.498946  0.977972  0.181429  1
  O  O67  1  -0.000000  0.521926  0.511034  1
  O  O68  1  0.499922  0.021936  0.511012  1
  Si  Si69  1  0.000000  0.938605  0.356551  1
  Si  Si70  1  0.500256  0.438607  0.356613  1
  Si  Si71  1  -0.000000  0.061350  0.335889  1
  Si  Si72  1  0.500274  0.561355  0.335893  1
  Si  Si73  1  0.500725  0.800899  0.350906  1
  Si  Si74  1  0.000000  0.300898  0.350997  1
  Si  Si75  1  0.500281  0.199056  0.341604  1
  Si  Si76  1  0.000000  0.699061  0.341542  1
  Si  Si77  1  0.000000  0.617806  0.440965  1
  Si  Si78  1  0.502361  0.117793  0.440976  1
  Si  Si79  1  0.002752  0.382136  0.251558  1
  Si  Si80  1  0.494095  0.882143  0.251489  1
  Si  Si81  1  0.500016  0.720963  0.391004  1
  Si  Si82  1  -0.000000  0.220948  0.391074  1
  Si  Si83  1  0.499669  0.279004  0.301532  1
  Si  Si84  1  0.000000  0.778999  0.301442  1
  Si  Si85  1  -0.000000  0.010095  0.413964  1
  Si  Si86  1  0.500033  0.510125  0.413989  1
  Si  Si87  1  0.998808  0.989857  0.278474  1
  Si  Si88  1  0.500550  0.489836  0.278518  1
  Si  Si89  1  0.000000  0.610723  0.345746  1
  Si  Si90  1  0.498693  0.110718  0.345765  1
  Si  Si91  1  -0.000000  0.389235  0.346772  1
  Si  Si92  1  0.499568  0.889235  0.346700  1
  Si  Si93  1  0.499121  0.664716  0.463863  1
  Si  Si94  1  0.002166  0.164657  0.463899  1
  Si  Si95  1  0.502651  0.335240  0.228663  1
  Si  Si96  1  0.994002  0.835266  0.228594  1
  Si  Si97  1  -0.000000  0.531187  0.463624  1
  Si  Si98  1  0.499770  0.031167  0.463597  1
  Si  Si99  1  0.000000  0.468753  0.228893  1
  Si  Si100  1  0.498861  0.968764  0.228851  1
  H  H101  1  0.496349  0.325462  0.153834  1
  H  H102  1  -0.000000  0.825524  0.153762  1
  H  H103  1  0.502389  0.674479  0.538701  1
  H  H104  1  0.992675  0.174339  0.538739  1
  H  H105  1  -0.000000  0.477977  0.153800  1
  H  H106  1  0.498946  0.977972  0.153754  1
  H  H107  1  0.000000  0.521926  0.538710  1
  H  H108  1  0.499922  0.021936  0.538688  1
