# generated using pymatgen
data_Si16H2O33
_symmetry_space_group_name_H-M   'P 1'
_cell_length_a   17.04919116
_cell_length_b   17.04860003
_cell_length_c   41.97411513
_cell_angle_alpha   90.00000000
_cell_angle_beta   90.00000000
_cell_angle_gamma   120.00000000
_symmetry_Int_Tables_number   1
_chemical_formula_structural   Si16H2O33
_chemical_formula_sum   'Si96 H12 O198'
_cell_volume   10565.8559006
_cell_formula_units_Z   6
loop_
 _symmetry_equiv_pos_site_id
 _symmetry_equiv_pos_as_xyz
  1  'x, y, z'
loop_
 _atom_site_type_symbol
 _atom_site_label
 _atom_site_symmetry_multiplicity
 _atom_site_fract_x
 _atom_site_fract_y
 _atom_site_fract_z
 _atom_site_occupancy
  O  O1  1  0.084211  0.395051  0.177116  1
  O  O2  1  0.310023  0.395109  0.177094  1
  O  O3  1  0.252695  0.253135  0.140591  1
  O  O4  1  0.235367  0.235992  0.200732  1
  O  O5  1  0.174396  0.087353  0.230698  1
  O  O6  1  0.252204  0.747144  0.189033  1
  O  O7  1  0.252302  0.505499  0.189039  1
  O  O8  1  0.310076  0.915276  0.177088  1
  O  O9  1  0.084103  0.689461  0.177128  1
  O  O10  1  0.143482  0.571926  0.185768  1
  O  O11  1  0.252826  -0.000000  0.140563  1
  O  O12  1  0.235585  0.000000  0.200702  1
  O  O13  1  0.086983  0.912517  0.230704  1
  O  O14  1  0.504988  0.252700  0.189037  1
  O  O15  1  0.394560  0.310372  0.177133  1
  O  O16  1  0.394736  0.084570  0.177091  1
  O  O17  1  0.571472  0.427917  0.185772  1
  O  O18  1  0.571617  0.144069  0.185766  1
  O  O19  1  0.494086  0.747160  0.189048  1
  O  O20  1  0.604491  0.689472  0.177134  1
  O  O21  1  0.604372  0.915295  0.177138  1
  O  O22  1  0.427568  0.571957  0.185768  1
  O  O23  1  0.427465  0.855787  0.185762  1
  O  O24  1  0.746864  0.252713  0.189053  1
  O  O25  1  0.746721  0.494355  0.189043  1
  O  O26  1  0.689030  0.084580  0.177141  1
  O  O27  1  0.914955  0.310403  0.177136  1
  O  O28  1  0.855545  0.427916  0.185772  1
  O  O29  1  0.000000  0.253095  0.140617  1
  O  O30  1  0.000000  0.235912  0.200761  1
  O  O31  1  0.914830  0.604762  0.177099  1
  O  O32  1  0.689068  0.604792  0.177118  1
  O  O33  1  0.746417  0.746751  0.140616  1
  O  O34  1  0.763640  0.763934  0.200760  1
  O  O35  1  0.746277  -0.000000  0.140622  1
  O  O36  1  -0.000000  0.746723  0.140591  1
  O  O37  1  0.763512  0.000000  0.200765  1
  O  O38  1  0.000000  0.763884  0.200732  1
  O  O39  1  0.084187  0.395057  0.284437  1
  O  O40  1  0.309959  0.395012  0.284408  1
  O  O41  1  0.084211  0.395051  0.477340  1
  O  O42  1  0.310023  0.395109  0.477318  1
  O  O43  1  0.134068  0.470111  0.230771  1
  O  O44  1  0.252654  0.253133  0.320942  1
  O  O45  1  0.252695  0.253135  0.440815  1
  O  O46  1  0.235531  0.235821  0.260800  1
  O  O47  1  0.235367  0.235992  0.500955  1
  O  O48  1  0.085855  0.172685  0.338108  1
  O  O49  1  0.172328  0.086347  0.338088  1
  O  O50  1  0.172436  0.086346  0.423659  1
  O  O51  1  0.085895  0.172630  0.423669  1
  O  O52  1  0.202203  0.202624  0.380879  1
  O  O53  1  0.086889  0.174671  0.230829  1
  O  O54  1  0.174396  0.087353  0.530922  1
  O  O55  1  0.252239  0.747177  0.272502  1
  O  O56  1  0.252284  0.505430  0.272496  1
  O  O57  1  0.252204  0.747144  0.489257  1
  O  O58  1  0.252302  0.505499  0.489263  1
  O  O59  1  0.309963  0.915288  0.284405  1
  O  O60  1  0.084134  0.689414  0.284443  1
  O  O61  1  0.310076  0.915276  0.477312  1
  O  O62  1  0.084103  0.689461  0.477352  1
  O  O63  1  0.134023  0.664279  0.230778  1
  O  O64  1  0.143550  0.571935  0.275780  1
  O  O65  1  0.143482  0.571926  0.485992  1
  O  O66  1  0.252679  0.000000  0.320917  1
  O  O67  1  0.252826  -0.000000  0.440787  1
  O  O68  1  0.235474  -0.000000  0.260773  1
  O  O69  1  0.235585  0.000000  0.500926  1
  O  O70  1  0.085911  0.913519  0.338089  1
  O  O71  1  0.086025  0.913513  0.423660  1
  O  O72  1  0.202257  -0.000000  0.380858  1
  O  O73  1  0.086983  0.912517  0.530928  1
  O  O74  1  0.504989  0.252668  0.272507  1
  O  O75  1  0.504988  0.252700  0.489261  1
  O  O76  1  0.394639  0.310425  0.284445  1
  O  O77  1  0.394616  0.084555  0.284411  1
  O  O78  1  0.394560  0.310372  0.477357  1
  O  O79  1  0.394736  0.084570  0.477315  1
  O  O80  1  0.469666  0.335560  0.230782  1
  O  O81  1  0.663907  0.134543  0.230788  1
  O  O82  1  0.335165  0.470121  0.230761  1
  O  O83  1  0.469726  0.134492  0.230763  1
  O  O84  1  0.571531  0.427909  0.275784  1
  O  O85  1  0.571534  0.143992  0.275785  1
  O  O86  1  0.571472  0.427917  0.485996  1
  O  O87  1  0.571617  0.144069  0.485990  1
  O  O88  1  0.494011  0.747147  0.272521  1
  O  O89  1  0.494086  0.747160  0.489272  1
  O  O90  1  0.604402  0.689433  0.284451  1
  O  O91  1  0.604336  0.915284  0.284436  1
  O  O92  1  0.604491  0.689472  0.477358  1
  O  O93  1  0.604372  0.915295  0.477362  1
  O  O94  1  0.529387  0.664287  0.230788  1
  O  O95  1  0.335144  0.865354  0.230759  1
  O  O96  1  0.529285  0.865325  0.230784  1
  O  O97  1  0.663867  0.529738  0.230774  1
  O  O98  1  0.427517  0.571909  0.275781  1
  O  O99  1  0.427458  0.855867  0.275781  1
  O  O100  1  0.427568  0.571957  0.485992  1
  O  O101  1  0.427465  0.855787  0.485986  1
  O  O102  1  0.746805  0.252720  0.272525  1
  O  O103  1  0.746772  0.494430  0.272501  1
  O  O104  1  0.746864  0.252713  0.489277  1
  O  O105  1  0.746721  0.494355  0.489267  1
  O  O106  1  0.689001  0.084582  0.284438  1
  O  O107  1  0.914913  0.310450  0.284456  1
  O  O108  1  0.689030  0.084580  0.477365  1
  O  O109  1  0.914955  0.310403  0.477360  1
  O  O110  1  0.865039  0.335588  0.230792  1
  O  O111  1  0.855534  0.427960  0.275785  1
  O  O112  1  0.855545  0.427916  0.485996  1
  O  O113  1  0.000000  0.235888  0.260832  1
  O  O114  1  0.000000  0.253146  0.320971  1
  O  O115  1  0.913009  0.086339  0.338113  1
  O  O116  1  0.913057  0.086322  0.423686  1
  O  O117  1  -0.000000  0.202594  0.380902  1
  O  O118  1  0.912067  0.087345  0.230791  1
  O  O119  1  0.000000  0.253095  0.440840  1
  O  O120  1  0.000000  0.235912  0.500985  1
  O  O121  1  0.914868  0.604856  0.284411  1
  O  O122  1  0.689035  0.604791  0.284440  1
  O  O123  1  0.914830  0.604762  0.477322  1
  O  O124  1  0.689068  0.604792  0.477342  1
  O  O125  1  0.864962  0.529744  0.230764  1
  O  O126  1  0.746315  0.746712  0.320971  1
  O  O127  1  0.746216  0.000000  0.320968  1
  O  O128  1  0.746417  0.746751  0.440840  1
  O  O129  1  0.763555  0.763956  0.260831  1
  O  O130  1  0.763640  0.763934  0.500984  1
  O  O131  1  0.826606  0.913518  0.338113  1
  O  O132  1  0.913099  0.827165  0.338107  1
  O  O133  1  0.913201  0.827235  0.423668  1
  O  O134  1  0.826652  0.913524  0.423687  1
  O  O135  1  0.796834  0.797260  0.380902  1
  O  O136  1  0.000000  0.764041  0.260801  1
  O  O137  1  0.824649  0.912500  0.230792  1
  O  O138  1  0.912158  0.825186  0.230825  1
  O  O139  1  0.746277  -0.000000  0.440846  1
  O  O140  1  0.000000  0.797237  0.380879  1
  O  O141  1  -0.000000  0.746723  0.440815  1
  O  O142  1  0.763513  0.000000  0.260833  1
  O  O143  1  0.763512  0.000000  0.500989  1
  O  O144  1  0.796732  -0.000000  0.380904  1
  O  O145  1  0.000000  0.746734  0.320942  1
  O  O146  1  -0.000000  0.763884  0.500955  1
  O  O147  1  0.084187  0.395057  0.584661  1
  O  O148  1  0.309959  0.395012  0.584632  1
  O  O149  1  0.134068  0.470111  0.530995  1
  O  O150  1  0.252654  0.253133  0.621166  1
  O  O151  1  0.235531  0.235821  0.561024  1
  O  O152  1  0.086889  0.174671  0.531053  1
  O  O153  1  0.252239  0.747177  0.572726  1
  O  O154  1  0.252284  0.505430  0.572720  1
  O  O155  1  0.309963  0.915288  0.584629  1
  O  O156  1  0.084134  0.689414  0.584667  1
  O  O157  1  0.134023  0.664279  0.531002  1
  O  O158  1  0.143550  0.571935  0.576004  1
  O  O159  1  0.252679  -0.000000  0.621141  1
  O  O160  1  0.235474  0.000000  0.560997  1
  O  O161  1  0.504989  0.252668  0.572731  1
  O  O162  1  0.394639  0.310425  0.584669  1
  O  O163  1  0.394616  0.084555  0.584634  1
  O  O164  1  0.469666  0.335560  0.531006  1
  O  O165  1  0.663907  0.134543  0.531011  1
  O  O166  1  0.335165  0.470121  0.530984  1
  O  O167  1  0.469726  0.134492  0.530987  1
  O  O168  1  0.571531  0.427909  0.576008  1
  O  O169  1  0.571534  0.143992  0.576009  1
  O  O170  1  0.494011  0.747147  0.572745  1
  O  O171  1  0.604402  0.689433  0.584675  1
  O  O172  1  0.604336  0.915284  0.584660  1
  O  O173  1  0.529387  0.664287  0.531012  1
  O  O174  1  0.335144  0.865354  0.530983  1
  O  O175  1  0.529285  0.865325  0.531008  1
  O  O176  1  0.663867  0.529738  0.530998  1
  O  O177  1  0.427517  0.571909  0.576005  1
  O  O178  1  0.427458  0.855867  0.576005  1
  O  O179  1  0.746805  0.252720  0.572749  1
  O  O180  1  0.746772  0.494430  0.572725  1
  O  O181  1  0.689001  0.084582  0.584662  1
  O  O182  1  0.914913  0.310450  0.584679  1
  O  O183  1  0.865039  0.335588  0.531016  1
  O  O184  1  0.855534  0.427960  0.576008  1
  O  O185  1  0.000000  0.235888  0.561056  1
  O  O186  1  0.000000  0.253146  0.621195  1
  O  O187  1  0.912067  0.087345  0.531015  1
  O  O188  1  0.914868  0.604856  0.584634  1
  O  O189  1  0.689035  0.604791  0.584664  1
  O  O190  1  0.864962  0.529744  0.530988  1
  O  O191  1  0.746315  0.746712  0.621195  1
  O  O192  1  0.746216  0.000000  0.621192  1
  O  O193  1  0.763555  0.763956  0.561055  1
  O  O194  1  -0.000000  0.764041  0.561025  1
  O  O195  1  0.824649  0.912500  0.531015  1
  O  O196  1  0.912158  0.825186  0.531049  1
  O  O197  1  0.763513  -0.000000  0.561056  1
  O  O198  1  0.000000  0.746734  0.621166  1
  Si  Si199  1  0.297407  0.297886  0.173348  1
  Si  Si200  1  0.332759  0.486283  0.193957  1
  Si  Si201  1  0.152624  0.486256  0.193966  1
  Si  Si202  1  0.297553  -0.000000  0.173320  1
  Si  Si203  1  0.152541  0.666700  0.193971  1
  Si  Si204  1  0.182101  -0.000000  0.230720  1
  Si  Si205  1  0.332717  0.846780  0.193955  1
  Si  Si206  1  0.485869  0.153064  0.193959  1
  Si  Si207  1  0.485762  0.333142  0.193975  1
  Si  Si208  1  0.666354  0.153081  0.193982  1
  Si  Si209  1  0.513295  0.666708  0.193980  1
  Si  Si210  1  0.513198  0.846790  0.193978  1
  Si  Si211  1  0.666278  0.513589  0.193969  1
  Si  Si212  1  0.846522  0.333164  0.193984  1
  Si  Si213  1  -0.000000  0.297845  0.173369  1
  Si  Si214  1  0.846398  0.513586  0.193961  1
  Si  Si215  1  0.701559  -0.000000  0.173380  1
  Si  Si216  1  0.701670  0.702008  0.173368  1
  Si  Si217  1  0.000000  0.701972  0.173348  1
  Si  Si218  1  0.182042  0.182451  0.230765  1
  Si  Si219  1  0.180647  0.181024  0.417478  1
  Si  Si220  1  0.297407  0.297886  0.473571  1
  Si  Si221  1  0.332759  0.486283  0.494181  1
  Si  Si222  1  0.152622  0.486232  0.267576  1
  Si  Si223  1  0.152624  0.486256  0.494190  1
  Si  Si224  1  0.180597  0.181044  0.344282  1
  Si  Si225  1  0.297430  0.297836  0.288188  1
  Si  Si226  1  0.332738  0.486222  0.267567  1
  Si  Si227  1  0.297553  -0.000000  0.473544  1
  Si  Si228  1  0.152586  0.666700  0.267582  1
  Si  Si229  1  0.152541  0.666700  0.494195  1
  Si  Si230  1  0.182101  -0.000000  0.530944  1
  Si  Si231  1  0.332717  0.846780  0.494179  1
  Si  Si232  1  0.180723  -0.000000  0.417461  1
  Si  Si233  1  0.297416  -0.000000  0.288164  1
  Si  Si234  1  0.180629  0.000000  0.344265  1
  Si  Si235  1  0.332707  0.846830  0.267567  1
  Si  Si236  1  0.485808  0.333144  0.267586  1
  Si  Si237  1  0.485869  0.153064  0.494183  1
  Si  Si238  1  0.485812  0.153016  0.267571  1
  Si  Si239  1  0.485762  0.333142  0.494199  1
  Si  Si240  1  0.666316  0.153073  0.267593  1
  Si  Si241  1  0.666354  0.153081  0.494206  1
  Si  Si242  1  0.513228  0.666694  0.267592  1
  Si  Si243  1  0.513165  0.846796  0.267589  1
  Si  Si244  1  0.513295  0.666708  0.494204  1
  Si  Si245  1  0.513198  0.846790  0.494202  1
  Si  Si246  1  0.666300  0.513616  0.267579  1
  Si  Si247  1  0.666278  0.513589  0.494193  1
  Si  Si248  1  0.846522  0.333164  0.494208  1
  Si  Si249  1  -0.000000  0.181019  0.344302  1
  Si  Si250  1  0.000000  0.180997  0.417498  1
  Si  Si251  1  0.846470  0.333177  0.267595  1
  Si  Si252  1  0.000000  0.182446  0.230802  1
  Si  Si253  1  -0.000000  0.297845  0.473593  1
  Si  Si254  1  -0.000000  0.297880  0.288214  1
  Si  Si255  1  0.817001  0.817400  0.230801  1
  Si  Si256  1  0.000000  0.817417  0.230766  1
  Si  Si257  1  0.818446  0.818853  0.417497  1
  Si  Si258  1  -0.000000  0.702022  0.288189  1
  Si  Si259  1  0.846436  0.513646  0.267571  1
  Si  Si260  1  0.846398  0.513586  0.494185  1
  Si  Si261  1  0.701587  0.701980  0.288214  1
  Si  Si262  1  0.701517  -0.000000  0.288205  1
  Si  Si263  1  0.701559  -0.000000  0.473604  1
  Si  Si264  1  0.701670  0.702008  0.473592  1
  Si  Si265  1  0.818377  0.818833  0.344302  1
  Si  Si266  1  0.000000  0.818839  0.417478  1
  Si  Si267  1  0.000000  0.818819  0.344282  1
  Si  Si268  1  0.816949  0.000000  0.230798  1
  Si  Si269  1  -0.000000  0.701972  0.473571  1
  Si  Si270  1  0.818334  -0.000000  0.417500  1
  Si  Si271  1  0.818299  0.000000  0.344304  1
  Si  Si272  1  0.182042  0.182451  0.530989  1
  Si  Si273  1  0.152622  0.486232  0.567800  1
  Si  Si274  1  0.297430  0.297836  0.588412  1
  Si  Si275  1  0.332738  0.486222  0.567791  1
  Si  Si276  1  0.152586  0.666700  0.567806  1
  Si  Si277  1  0.297416  0.000000  0.588388  1
  Si  Si278  1  0.332707  0.846830  0.567790  1
  Si  Si279  1  0.485808  0.333144  0.567810  1
  Si  Si280  1  0.485812  0.153016  0.567795  1
  Si  Si281  1  0.666316  0.153073  0.567817  1
  Si  Si282  1  0.513228  0.666694  0.567816  1
  Si  Si283  1  0.513165  0.846796  0.567813  1
  Si  Si284  1  0.666300  0.513616  0.567803  1
  Si  Si285  1  0.846470  0.333177  0.567819  1
  Si  Si286  1  0.000000  0.182446  0.531026  1
  Si  Si287  1  -0.000000  0.297880  0.588438  1
  Si  Si288  1  0.817001  0.817400  0.531024  1
  Si  Si289  1  0.000000  0.817417  0.530990  1
  Si  Si290  1  -0.000000  0.702022  0.588412  1
  Si  Si291  1  0.846436  0.513646  0.567795  1
  Si  Si292  1  0.701587  0.701980  0.588437  1
  Si  Si293  1  0.701517  0.000000  0.588429  1
  Si  Si294  1  0.816949  -0.000000  0.531022  1
  H  H295  1  0.252695  0.253135  0.119149  1
  H  H296  1  0.252826  0.000000  0.119121  1
  H  H297  1  0.000000  0.253095  0.119175  1
  H  H298  1  0.746417  0.746751  0.119174  1
  H  H299  1  0.746277  0.000000  0.119180  1
  H  H300  1  -0.000000  0.746723  0.119150  1
  H  H301  1  0.252654  0.253133  0.642607  1
  H  H302  1  0.252679  -0.000000  0.642583  1
  H  H303  1  0.000000  0.253146  0.642637  1
  H  H304  1  0.746315  0.746712  0.642636  1
  H  H305  1  0.746216  -0.000000  0.642634  1
  H  H306  1  0.000000  0.746734  0.642608  1
