# generated using pymatgen
data_Si12H2O25
_symmetry_space_group_name_H-M   'P 1'
_cell_length_a   9.77083545
_cell_length_b   27.97530112
_cell_length_c   42.93193599
_cell_angle_alpha   90.00000000
_cell_angle_beta   90.00000000
_cell_angle_gamma   90.00000000
_symmetry_Int_Tables_number   1
_chemical_formula_structural   Si12H2O25
_chemical_formula_sum   'Si96 H16 O200'
_cell_volume   11735.10399
_cell_formula_units_Z   8
loop_
 _symmetry_equiv_pos_site_id
 _symmetry_equiv_pos_as_xyz
  1  'x, y, z'
loop_
 _atom_site_type_symbol
 _atom_site_label
 _atom_site_symmetry_multiplicity
 _atom_site_fract_x
 _atom_site_fract_y
 _atom_site_fract_z
 _atom_site_occupancy
  O  O1  1  0.823711  0.585642  0.359407  1
  O  O2  1  0.323731  0.585640  0.196640  1
  O  O3  1  0.176170  0.585646  0.359413  1
  O  O4  1  0.676195  0.585633  0.196635  1
  O  O5  1  0.323732  0.085639  0.244883  1
  O  O6  1  0.676191  0.085632  0.244887  1
  O  O7  1  0.676169  0.414313  0.244889  1
  O  O8  1  0.323710  0.414319  0.244892  1
  O  O9  1  0.176177  0.914326  0.359416  1
  O  O10  1  0.676169  0.914312  0.196643  1
  O  O11  1  0.823717  0.914323  0.359418  1
  O  O12  1  0.323714  0.914318  0.196641  1
  O  O13  1  0.808877  0.624800  0.304092  1
  O  O14  1  0.308879  0.624803  0.141324  1
  O  O15  1  0.191027  0.624803  0.304097  1
  O  O16  1  0.691027  0.624794  0.141318  1
  O  O17  1  0.808878  0.124800  0.137432  1
  O  O18  1  0.308877  0.124797  0.300200  1
  O  O19  1  0.191028  0.124806  0.137427  1
  O  O20  1  0.691026  0.124791  0.300205  1
  O  O21  1  0.191018  0.375164  0.137435  1
  O  O22  1  0.691020  0.375154  0.300205  1
  O  O23  1  0.808870  0.375159  0.137432  1
  O  O24  1  0.308870  0.375162  0.300208  1
  O  O25  1  0.191018  0.875169  0.304099  1
  O  O26  1  0.691020  0.875155  0.141328  1
  O  O27  1  0.808867  0.875162  0.304101  1
  O  O28  1  0.308869  0.875159  0.141326  1
  O  O29  1  -0.000000  0.645746  0.341773  1
  O  O30  1  0.499970  0.645738  0.179002  1
  O  O31  1  0.499966  0.145736  0.262522  1
  O  O32  1  0.499935  0.354214  0.262527  1
  O  O33  1  0.000000  0.854224  0.341780  1
  O  O34  1  0.499939  0.854212  0.179007  1
  O  O35  1  0.750859  0.672579  0.355131  1
  O  O36  1  0.250904  0.672580  0.192365  1
  O  O37  1  0.249010  0.672584  0.355136  1
  O  O38  1  0.749049  0.672570  0.192357  1
  O  O39  1  0.250897  0.172576  0.249160  1
  O  O40  1  0.749047  0.172568  0.249166  1
  O  O41  1  0.749007  0.327374  0.249165  1
  O  O42  1  0.250856  0.327383  0.249169  1
  O  O43  1  0.249027  0.827390  0.355137  1
  O  O44  1  0.749017  0.827376  0.192368  1
  O  O45  1  0.750876  0.827386  0.355140  1
  O  O46  1  0.250859  0.827382  0.192366  1
  O  O47  1  0.823372  0.663956  0.248958  1
  O  O48  1  0.176551  0.663963  0.248963  1
  O  O49  1  0.323349  0.163968  0.355331  1
  O  O50  1  0.823371  0.163957  0.192565  1
  O  O51  1  0.676529  0.163961  0.355335  1
  O  O52  1  0.176548  0.163963  0.192560  1
  O  O53  1  0.676538  0.335997  0.355338  1
  O  O54  1  0.176533  0.335998  0.192568  1
  O  O55  1  0.323359  0.336004  0.355341  1
  O  O56  1  0.823354  0.335991  0.192564  1
  O  O57  1  0.176533  0.836001  0.248968  1
  O  O58  1  0.823355  0.835992  0.248970  1
  O  O59  1  0.813812  0.749973  0.223781  1
  O  O60  1  0.186096  0.749980  0.223784  1
  O  O61  1  0.313803  0.249986  0.380518  1
  O  O62  1  0.813809  0.249972  0.217748  1
  O  O63  1  0.686087  0.249980  0.380519  1
  O  O64  1  0.186095  0.249981  0.217747  1
  O  O65  1  0.499938  0.690178  0.372996  1
  O  O66  1  -0.000000  0.690172  0.210222  1
  O  O67  1  0.000000  0.190170  0.231302  1
  O  O68  1  0.000000  0.309782  0.231304  1
  O  O69  1  0.499947  0.809791  0.373000  1
  O  O70  1  0.000000  0.809785  0.210231  1
  O  O71  1  0.499966  0.557378  0.235307  1
  O  O72  1  -0.000000  0.057381  0.368992  1
  O  O73  1  0.499967  0.057376  0.206215  1
  O  O74  1  -0.000000  0.442582  0.368993  1
  O  O75  1  0.499937  0.442577  0.206221  1
  O  O76  1  0.499938  0.942579  0.235311  1
  O  O77  1  0.749924  0.576959  0.253129  1
  O  O78  1  0.250019  0.576968  0.253134  1
  O  O79  1  0.249887  0.076970  0.351165  1
  O  O80  1  0.749929  0.076958  0.188395  1
  O  O81  1  0.749974  0.076963  0.351171  1
  O  O82  1  0.250019  0.076968  0.188389  1
  O  O83  1  0.750009  0.422991  0.351166  1
  O  O84  1  0.249976  0.422996  0.188400  1
  O  O85  1  0.249915  0.423001  0.351172  1
  O  O86  1  0.749886  0.422986  0.188396  1
  O  O87  1  0.249975  0.922999  0.253132  1
  O  O88  1  0.749887  0.922988  0.253136  1
  O  O89  1  0.691134  0.499973  0.220763  1
  O  O90  1  0.308768  0.499981  0.220767  1
  O  O91  1  0.691136  0.000000  0.220764  1
  O  O92  1  0.308769  0.000000  0.220759  1
  O  O93  1  0.000000  0.603868  0.266282  1
  O  O94  1  0.499941  0.103874  0.338017  1
  O  O95  1  -0.000000  0.103872  0.175242  1
  O  O96  1  0.499957  0.396091  0.338018  1
  O  O97  1  0.000000  0.396084  0.175248  1
  O  O98  1  -0.000000  0.896085  0.266286  1
  O  O99  1  0.323731  0.585640  0.522185  1
  O  O100  1  0.676195  0.585633  0.522181  1
  O  O101  1  0.823714  0.085643  0.407662  1
  O  O102  1  0.323732  0.085639  0.570429  1
  O  O103  1  0.176168  0.085647  0.407658  1
  O  O104  1  0.676191  0.085632  0.570433  1
  O  O105  1  0.176182  0.414326  0.407665  1
  O  O106  1  0.676169  0.414313  0.570435  1
  O  O107  1  0.823719  0.414322  0.407661  1
  O  O108  1  0.323710  0.414319  0.570438  1
  O  O109  1  0.676169  0.914312  0.522189  1
  O  O110  1  0.323714  0.914318  0.522187  1
  O  O111  1  0.808877  0.624800  0.629637  1
  O  O112  1  0.308879  0.624803  0.466870  1
  O  O113  1  0.191027  0.624803  0.629642  1
  O  O114  1  0.691027  0.624794  0.466864  1
  O  O115  1  0.808878  0.124800  0.462977  1
  O  O116  1  0.308877  0.124797  0.625745  1
  O  O117  1  0.191028  0.124806  0.462972  1
  O  O118  1  0.691026  0.124791  0.625750  1
  O  O119  1  0.191018  0.375164  0.462981  1
  O  O120  1  0.691020  0.375154  0.625750  1
  O  O121  1  0.808870  0.375159  0.462977  1
  O  O122  1  0.308870  0.375162  0.625753  1
  O  O123  1  0.191018  0.875169  0.629644  1
  O  O124  1  0.691020  0.875155  0.466874  1
  O  O125  1  0.808867  0.875162  0.629646  1
  O  O126  1  0.308869  0.875159  0.466871  1
  O  O127  1  0.499970  0.645738  0.504547  1
  O  O128  1  -0.000000  0.145748  0.425295  1
  O  O129  1  0.499966  0.145736  0.588068  1
  O  O130  1  0.000000  0.354222  0.425298  1
  O  O131  1  0.499935  0.354214  0.588073  1
  O  O132  1  0.499939  0.854212  0.504552  1
  O  O133  1  0.250904  0.672580  0.517910  1
  O  O134  1  0.749049  0.672570  0.517903  1
  O  O135  1  0.750855  0.172578  0.411938  1
  O  O136  1  0.250897  0.172576  0.574706  1
  O  O137  1  0.249011  0.172584  0.411932  1
  O  O138  1  0.749047  0.172568  0.574711  1
  O  O139  1  0.249027  0.327388  0.411941  1
  O  O140  1  0.749007  0.327374  0.574710  1
  O  O141  1  0.750882  0.327383  0.411937  1
  O  O142  1  0.250856  0.327383  0.574714  1
  O  O143  1  0.749017  0.827376  0.517914  1
  O  O144  1  0.250859  0.827382  0.517911  1
  O  O145  1  0.323349  0.663969  0.411736  1
  O  O146  1  0.823372  0.663956  0.574503  1
  O  O147  1  0.676532  0.663962  0.411732  1
  O  O148  1  0.176551  0.663963  0.574509  1
  O  O149  1  0.823371  0.163957  0.518111  1
  O  O150  1  0.176548  0.163963  0.518106  1
  O  O151  1  0.176533  0.335998  0.518113  1
  O  O152  1  0.823354  0.335991  0.518110  1
  O  O153  1  0.676534  0.835997  0.411740  1
  O  O154  1  0.176533  0.836001  0.574514  1
  O  O155  1  0.323357  0.836003  0.411738  1
  O  O156  1  0.823355  0.835992  0.574515  1
  O  O157  1  0.313799  0.749986  0.386554  1
  O  O158  1  0.813812  0.749973  0.549326  1
  O  O159  1  0.686085  0.749981  0.386553  1
  O  O160  1  0.186096  0.749980  0.549330  1
  O  O161  1  0.813809  0.249972  0.543293  1
  O  O162  1  0.186095  0.249981  0.543293  1
  O  O163  1  0.000000  0.690172  0.535768  1
  O  O164  1  0.499937  0.190176  0.394071  1
  O  O165  1  -0.000000  0.190170  0.556847  1
  O  O166  1  0.499951  0.309788  0.394078  1
  O  O167  1  -0.000000  0.309782  0.556850  1
  O  O168  1  0.000000  0.809785  0.535777  1
  O  O169  1  -0.000000  0.557383  0.398079  1
  O  O170  1  0.499966  0.557378  0.560852  1
  O  O171  1  0.499967  0.057376  0.531761  1
  O  O172  1  0.499937  0.442577  0.531767  1
  O  O173  1  0.000000  0.942584  0.398087  1
  O  O174  1  0.499938  0.942579  0.560856  1
  O  O175  1  0.249882  0.576973  0.415906  1
  O  O176  1  0.749924  0.576959  0.578674  1
  O  O177  1  0.749973  0.576964  0.415899  1
  O  O178  1  0.250019  0.576968  0.578680  1
  O  O179  1  0.749929  0.076958  0.513941  1
  O  O180  1  0.250019  0.076968  0.513935  1
  O  O181  1  0.249976  0.422996  0.513945  1
  O  O182  1  0.749886  0.422986  0.513942  1
  O  O183  1  0.749999  0.922993  0.415912  1
  O  O184  1  0.249975  0.922999  0.578678  1
  O  O185  1  0.249908  0.923000  0.415909  1
  O  O186  1  0.749887  0.922988  0.578682  1
  O  O187  1  0.191128  0.499986  0.383538  1
  O  O188  1  0.691134  0.499973  0.546309  1
  O  O189  1  0.808762  0.499980  0.383532  1
  O  O190  1  0.308768  0.499981  0.546312  1
  O  O191  1  0.191127  0.000000  0.383539  1
  O  O192  1  0.691136  -0.000000  0.546309  1
  O  O193  1  0.808760  0.000000  0.383543  1
  O  O194  1  0.308769  0.000000  0.546305  1
  O  O195  1  0.499937  0.603874  0.429053  1
  O  O196  1  -0.000000  0.603868  0.591828  1
  O  O197  1  -0.000000  0.103872  0.500787  1
  O  O198  1  -0.000000  0.396084  0.500793  1
  O  O199  1  0.499946  0.896088  0.429061  1
  O  O200  1  0.000000  0.896085  0.591831  1
  Si  Si201  1  0.842656  0.632830  0.339614  1
  Si  Si202  1  0.342682  0.632827  0.176846  1
  Si  Si203  1  0.157225  0.632832  0.339618  1
  Si  Si204  1  0.657251  0.632820  0.176842  1
  Si  Si205  1  0.342680  0.132824  0.264678  1
  Si  Si206  1  0.657248  0.132818  0.264682  1
  Si  Si207  1  0.657222  0.367126  0.264683  1
  Si  Si208  1  0.342653  0.367133  0.264686  1
  Si  Si209  1  0.157232  0.867141  0.339621  1
  Si  Si210  1  0.657225  0.867126  0.176850  1
  Si  Si211  1  0.842663  0.867137  0.339623  1
  Si  Si212  1  0.342657  0.867131  0.176848  1
  Si  Si213  1  0.342700  0.694986  0.381240  1
  Si  Si214  1  0.842727  0.694975  0.218463  1
  Si  Si215  1  0.657179  0.694982  0.381237  1
  Si  Si216  1  0.157205  0.694981  0.218468  1
  Si  Si217  1  0.842726  0.194974  0.223061  1
  Si  Si218  1  0.157203  0.194980  0.223057  1
  Si  Si219  1  0.157179  0.304979  0.223063  1
  Si  Si220  1  0.842701  0.304972  0.223061  1
  Si  Si221  1  0.657185  0.804981  0.381243  1
  Si  Si222  1  0.157183  0.804979  0.218472  1
  Si  Si223  1  0.342707  0.804985  0.381242  1
  Si  Si224  1  0.842705  0.804974  0.218473  1
  Si  Si225  1  0.657337  0.554240  0.226953  1
  Si  Si226  1  0.342591  0.554246  0.226956  1
  Si  Si227  1  0.157311  0.054249  0.377343  1
  Si  Si228  1  0.657337  0.054239  0.214570  1
  Si  Si229  1  0.842565  0.054246  0.377347  1
  Si  Si230  1  0.342592  0.054245  0.214567  1
  Si  Si231  1  0.842581  0.445715  0.377344  1
  Si  Si232  1  0.342566  0.445714  0.214576  1
  Si  Si233  1  0.157327  0.445720  0.377348  1
  Si  Si234  1  0.657312  0.445708  0.214573  1
  Si  Si235  1  0.342567  0.945715  0.226956  1
  Si  Si236  1  0.657312  0.945709  0.226958  1
  Si  Si237  1  0.157414  0.616540  0.268596  1
  Si  Si238  1  0.842513  0.616535  0.268592  1
  Si  Si239  1  0.657389  0.116538  0.335705  1
  Si  Si240  1  0.157416  0.116542  0.172928  1
  Si  Si241  1  0.342488  0.116542  0.335702  1
  Si  Si242  1  0.842515  0.116536  0.172932  1
  Si  Si243  1  0.342503  0.383425  0.335708  1
  Si  Si244  1  0.842487  0.383414  0.172933  1
  Si  Si245  1  0.657403  0.383418  0.335705  1
  Si  Si246  1  0.157388  0.383421  0.172936  1
  Si  Si247  1  0.842487  0.883416  0.268599  1
  Si  Si248  1  0.157389  0.883424  0.268597  1
  Si  Si249  1  0.342682  0.632827  0.502392  1
  Si  Si250  1  0.657251  0.632820  0.502387  1
  Si  Si251  1  0.842656  0.132830  0.427455  1
  Si  Si252  1  0.342680  0.132824  0.590224  1
  Si  Si253  1  0.157225  0.132834  0.427451  1
  Si  Si254  1  0.657248  0.132818  0.590227  1
  Si  Si255  1  0.157235  0.367138  0.427458  1
  Si  Si256  1  0.657222  0.367126  0.590228  1
  Si  Si257  1  0.842666  0.367135  0.427455  1
  Si  Si258  1  0.342653  0.367133  0.590231  1
  Si  Si259  1  0.657225  0.867126  0.502395  1
  Si  Si260  1  0.342657  0.867131  0.502393  1
  Si  Si261  1  0.842727  0.694975  0.544009  1
  Si  Si262  1  0.157205  0.694981  0.544013  1
  Si  Si263  1  0.342700  0.194986  0.385828  1
  Si  Si264  1  0.842726  0.194974  0.548606  1
  Si  Si265  1  0.657178  0.194981  0.385831  1
  Si  Si266  1  0.157203  0.194980  0.548603  1
  Si  Si267  1  0.657189  0.304980  0.385834  1
  Si  Si268  1  0.157179  0.304979  0.548608  1
  Si  Si269  1  0.342711  0.304984  0.385835  1
  Si  Si270  1  0.842701  0.304972  0.548606  1
  Si  Si271  1  0.157183  0.804979  0.544018  1
  Si  Si272  1  0.842705  0.804974  0.544018  1
  Si  Si273  1  0.157309  0.554251  0.389728  1
  Si  Si274  1  0.657337  0.554240  0.552498  1
  Si  Si275  1  0.842564  0.554246  0.389723  1
  Si  Si276  1  0.342591  0.554246  0.552502  1
  Si  Si277  1  0.657337  0.054239  0.540116  1
  Si  Si278  1  0.342592  0.054245  0.540112  1
  Si  Si279  1  0.342566  0.445714  0.540121  1
  Si  Si280  1  0.657312  0.445708  0.540119  1
  Si  Si281  1  0.842576  0.945716  0.389735  1
  Si  Si282  1  0.342567  0.945715  0.552501  1
  Si  Si283  1  0.157321  0.945720  0.389733  1
  Si  Si284  1  0.657312  0.945709  0.552504  1
  Si  Si285  1  0.657388  0.616539  0.431364  1
  Si  Si286  1  0.157414  0.616540  0.594141  1
  Si  Si287  1  0.342488  0.616546  0.431368  1
  Si  Si288  1  0.842513  0.616535  0.594137  1
  Si  Si289  1  0.157416  0.116542  0.498474  1
  Si  Si290  1  0.842515  0.116536  0.498477  1
  Si  Si291  1  0.842487  0.383414  0.498479  1
  Si  Si292  1  0.157388  0.383421  0.498481  1
  Si  Si293  1  0.342498  0.883423  0.431371  1
  Si  Si294  1  0.842487  0.883416  0.594145  1
  Si  Si295  1  0.657399  0.883419  0.431373  1
  Si  Si296  1  0.157389  0.883424  0.594143  1
  H  H297  1  0.308879  0.624803  0.120361  1
  H  H298  1  0.691027  0.624794  0.120355  1
  H  H299  1  0.808878  0.124800  0.116468  1
  H  H300  1  0.191028  0.124806  0.116463  1
  H  H301  1  0.191018  0.375164  0.116472  1
  H  H302  1  0.808870  0.375159  0.116468  1
  H  H303  1  0.691020  0.875155  0.120364  1
  H  H304  1  0.308869  0.875159  0.120362  1
  H  H305  1  0.808877  0.624800  0.650601  1
  H  H306  1  0.191027  0.624803  0.650606  1
  H  H307  1  0.308877  0.124797  0.646709  1
  H  H308  1  0.691026  0.124791  0.646714  1
  H  H309  1  0.691020  0.375154  0.646714  1
  H  H310  1  0.308870  0.375162  0.646717  1
  H  H311  1  0.191018  0.875169  0.650608  1
  H  H312  1  0.808867  0.875162  0.650610  1
