# generated using pymatgen
data_Si4H2O9
_symmetry_space_group_name_H-M   'P 1'
_cell_length_a   23.54425957
_cell_length_b   24.66038491
_cell_length_c   44.55100097
_cell_angle_alpha   51.49964411
_cell_angle_beta   77.08305236
_cell_angle_gamma   38.67887552
_symmetry_Int_Tables_number   1
_chemical_formula_structural   Si4H2O9
_chemical_formula_sum   'Si40 H20 O90'
_cell_volume   10675.7290718
_cell_formula_units_Z   10
loop_
 _symmetry_equiv_pos_site_id
 _symmetry_equiv_pos_as_xyz
  1  'x, y, z'
loop_
 _atom_site_type_symbol
 _atom_site_label
 _atom_site_symmetry_multiplicity
 _atom_site_fract_x
 _atom_site_fract_y
 _atom_site_fract_z
 _atom_site_occupancy
  O  O1  1  0.093321  0.813304  0.190282  1
  O  O2  1  0.507193  0.318748  0.190146  1
  O  O3  1  0.497708  0.998803  0.215662  1
  O  O4  1  0.594205  0.812921  0.190495  1
  O  O5  1  0.007276  0.318756  0.190147  1
  O  O6  1  0.298515  0.542402  0.349980  1
  O  O7  1  0.388859  0.336452  0.408339  1
  O  O8  1  0.110866  0.663720  0.251764  1
  O  O9  1  0.123725  0.648929  0.334228  1
  O  O10  1  0.376006  0.351234  0.325879  1
  O  O11  1  0.093321  0.813304  0.416731  1
  O  O12  1  0.286460  0.556641  0.265160  1
  O  O13  1  0.155449  0.706539  0.270929  1
  O  O14  1  0.107675  0.795080  0.298702  1
  O  O15  1  0.068612  0.617046  0.312801  1
  O  O16  1  0.431118  0.383120  0.347305  1
  O  O17  1  0.026313  0.970406  0.282371  1
  O  O18  1  0.007197  0.666751  0.360059  1
  O  O19  1  0.492541  0.333393  0.300054  1
  O  O20  1  0.701216  0.139684  0.327954  1
  O  O21  1  0.888864  0.885714  0.314722  1
  O  O22  1  0.610868  0.114426  0.345392  1
  O  O23  1  0.623726  0.103508  0.268750  1
  O  O24  1  0.876002  0.896633  0.391363  1
  O  O25  1  0.906405  0.000000  0.261185  1
  O  O26  1  0.713272  0.129823  0.248591  1
  O  O27  1  0.844284  0.017694  0.313697  1
  O  O28  1  0.892052  0.010683  0.363111  1
  O  O29  1  0.568613  0.245613  0.265220  1
  O  O30  1  0.931119  0.754525  0.394895  1
  O  O31  1  0.973382  0.023335  0.383610  1
  O  O32  1  0.507193  0.318748  0.416594  1
  O  O33  1  0.992537  0.681405  0.243517  1
  O  O34  1  0.201024  0.139766  0.328094  1
  O  O35  1  0.201213  0.457767  0.310125  1
  O  O36  1  0.406419  0.186855  0.243373  1
  O  O37  1  0.405440  0.001696  0.260968  1
  O  O38  1  0.213272  0.443520  0.394946  1
  O  O39  1  0.213445  0.129745  0.248668  1
  O  O40  1  0.344283  0.293620  0.389177  1
  O  O41  1  0.343949  0.017723  0.313832  1
  O  O42  1  0.392032  0.205109  0.361390  1
  O  O43  1  0.393199  0.009350  0.363254  1
  O  O44  1  0.473373  0.029829  0.377689  1
  O  O45  1  0.497708  0.998803  0.442111  1
  O  O46  1  0.798519  0.860454  0.332160  1
  O  O47  1  0.798617  0.542154  0.350202  1
  O  O48  1  0.594205  0.812921  0.416943  1
  O  O49  1  0.593305  0.000000  0.398919  1
  O  O50  1  0.786194  0.556989  0.265147  1
  O  O51  1  0.786456  0.870317  0.411524  1
  O  O52  1  0.655691  0.705970  0.271209  1
  O  O53  1  0.655448  0.982445  0.346416  1
  O  O54  1  0.501996  0.994520  0.329856  1
  O  O55  1  0.606445  0.796085  0.298332  1
  O  O56  1  0.607695  0.989440  0.297002  1
  O  O57  1  0.526304  0.976895  0.276451  1
  O  O58  1  0.298616  0.860496  0.331984  1
  O  O59  1  0.389164  0.885586  0.314711  1
  O  O60  1  0.110479  0.114673  0.345365  1
  O  O61  1  0.123876  0.103613  0.268641  1
  O  O62  1  0.375764  0.896646  0.391439  1
  O  O63  1  0.094196  0.998572  0.399108  1
  O  O64  1  0.286194  0.870515  0.411409  1
  O  O65  1  0.155687  0.982537  0.346245  1
  O  O66  1  0.001942  0.001403  0.217964  1
  O  O67  1  0.106455  0.990898  0.296820  1
  O  O68  1  0.068620  0.245666  0.265237  1
  O  O69  1  0.431019  0.754598  0.394840  1
  O  O70  1  0.007276  0.318756  0.416596  1
  O  O71  1  0.492358  0.681497  0.243484  1
  O  O72  1  0.701021  0.458084  0.309884  1
  O  O73  1  0.889165  0.335969  0.408478  1
  O  O74  1  0.610476  0.664266  0.251608  1
  O  O75  1  0.623880  0.648511  0.334407  1
  O  O76  1  0.875765  0.351717  0.325680  1
  O  O77  1  0.905451  0.187300  0.243144  1
  O  O78  1  0.713448  0.443242  0.394941  1
  O  O79  1  0.843951  0.294263  0.388877  1
  O  O80  1  0.893188  0.204157  0.361751  1
  O  O81  1  0.568620  0.616982  0.312781  1
  O  O82  1  0.931019  0.383253  0.347306  1
  O  O83  1  0.507277  0.666572  0.360090  1
  O  O84  1  0.992360  0.333678  0.299993  1
  O  O85  1  0.997724  0.005615  0.330235  1
  O  O86  1  0.992537  0.681405  0.469966  1
  O  O87  1  0.406419  0.186855  0.469822  1
  O  O88  1  0.001942  0.001403  0.444413  1
  O  O89  1  0.492358  0.681497  0.469933  1
  O  O90  1  0.905451  0.187300  0.469593  1
  Si  Si91  1  0.009955  0.943496  0.264368  1
  Si  Si92  1  0.100108  0.593129  0.351570  1
  Si  Si93  1  0.399624  0.407032  0.308537  1
  Si  Si94  1  0.410436  0.394513  0.380597  1
  Si  Si95  1  0.089291  0.605656  0.279508  1
  Si  Si96  1  0.161493  0.687164  0.242147  1
  Si  Si97  1  0.172523  0.674198  0.314379  1
  Si  Si98  1  0.600108  0.206541  0.240715  1
  Si  Si99  1  0.899621  0.793598  0.419401  1
  Si  Si100  1  0.910441  0.784498  0.352235  1
  Si  Si101  1  0.589293  0.215641  0.307880  1
  Si  Si102  1  0.838238  0.010412  0.282177  1
  Si  Si103  1  0.827208  0.019496  0.349417  1
  Si  Si104  1  0.989754  0.963694  0.373020  1
  Si  Si105  1  0.338239  0.312998  0.417958  1
  Si  Si106  1  0.338395  0.010349  0.282290  1
  Si  Si107  1  0.327205  0.325968  0.345725  1
  Si  Si108  1  0.327013  0.019482  0.349558  1
  Si  Si109  1  0.489732  0.056702  0.395715  1
  Si  Si110  1  0.491590  0.962001  0.371779  1
  Si  Si111  1  0.509980  0.036457  0.287074  1
  Si  Si112  1  0.661245  0.687491  0.242182  1
  Si  Si113  1  0.661490  0.989732  0.377935  1
  Si  Si114  1  0.672628  0.673849  0.314608  1
  Si  Si115  1  0.672525  0.980641  0.310697  1
  Si  Si116  1  0.508073  0.945515  0.262289  1
  Si  Si117  1  0.100192  0.206660  0.240698  1
  Si  Si118  1  0.399446  0.793602  0.419379  1
  Si  Si119  1  0.410527  0.784515  0.352171  1
  Si  Si120  1  0.089113  0.215746  0.307906  1
  Si  Si121  1  0.161244  0.989912  0.377786  1
  Si  Si122  1  0.172629  0.980776  0.310520  1
  Si  Si123  1  0.008087  0.038210  0.288300  1
  Si  Si124  1  0.600195  0.592835  0.351621  1
  Si  Si125  1  0.899448  0.407396  0.308467  1
  Si  Si126  1  0.910527  0.394316  0.380695  1
  Si  Si127  1  0.589112  0.605922  0.279390  1
  Si  Si128  1  0.838397  0.312743  0.417905  1
  Si  Si129  1  0.827010  0.326388  0.345478  1
  Si  Si130  1  0.991572  0.054729  0.397784  1
  H  H131  1  0.093321  0.813304  0.170081  1
  H  H132  1  0.507193  0.318748  0.169944  1
  H  H133  1  0.497708  0.998803  0.195461  1
  H  H134  1  0.594205  0.812921  0.170293  1
  H  H135  1  0.007276  0.318756  0.169946  1
  H  H136  1  0.093321  0.813304  0.436933  1
  H  H137  1  0.507193  0.318748  0.436796  1
  H  H138  1  0.992537  0.681405  0.223316  1
  H  H139  1  0.406419  0.186855  0.223171  1
  H  H140  1  0.497708  0.998803  0.462313  1
  H  H141  1  0.594205  0.812921  0.437145  1
  H  H142  1  0.001942  0.001403  0.197763  1
  H  H143  1  0.007276  0.318756  0.436798  1
  H  H144  1  0.492358  0.681497  0.223283  1
  H  H145  1  0.905451  0.187300  0.222942  1
  H  H146  1  0.992537  0.681405  0.490168  1
  H  H147  1  0.406419  0.186855  0.490023  1
  H  H148  1  0.001942  0.001403  0.464615  1
  H  H149  1  0.492358  0.681497  0.490135  1
  H  H150  1  0.905451  0.187300  0.489794  1
