# generated using pymatgen
data_Si38H2O77
_symmetry_space_group_name_H-M   'P 1'
_cell_length_a   17.25289407
_cell_length_b   17.25278161
_cell_length_c   85.84792468
_cell_angle_alpha   90.00000000
_cell_angle_beta   90.00000000
_cell_angle_gamma   120.00000000
_symmetry_Int_Tables_number   1
_chemical_formula_structural   Si38H2O77
_chemical_formula_sum   'Si228 H12 O462'
_cell_volume   22130.0050634
_cell_formula_units_Z   6
loop_
 _symmetry_equiv_pos_site_id
 _symmetry_equiv_pos_as_xyz
  1  'x, y, z'
loop_
 _atom_site_type_symbol
 _atom_site_label
 _atom_site_symmetry_multiplicity
 _atom_site_fract_x
 _atom_site_fract_y
 _atom_site_fract_z
 _atom_site_occupancy
  O  O1  1  0.353471  0.433930  0.068750  1
  O  O2  1  0.080477  0.433859  0.068765  1
  O  O3  1  0.343097  0.457072  0.098413  1
  O  O4  1  0.114124  0.457085  0.098422  1
  O  O5  1  0.258817  0.030173  0.110573  1
  O  O6  1  0.970093  0.228459  0.110596  1
  O  O7  1  0.258822  0.228460  0.110593  1
  O  O8  1  0.771900  0.030070  0.110600  1
  O  O9  1  0.663946  0.041262  0.090873  1
  O  O10  1  0.377419  0.336181  0.090889  1
  O  O11  1  0.958891  0.336173  0.090922  1
  O  O12  1  0.377389  0.041151  0.090850  1
  O  O13  1  0.811026  0.189074  0.102501  1
  O  O14  1  0.378544  0.189244  0.102465  1
  O  O15  1  0.237412  0.474596  0.118019  1
  O  O16  1  0.666987  0.082585  0.118853  1
  O  O17  1  0.416433  0.082810  0.118793  1
  O  O18  1  0.416338  0.333488  0.118851  1
  O  O19  1  0.091256  0.181152  0.178302  1
  O  O20  1  0.182649  0.090891  0.220864  1
  O  O21  1  0.909566  0.090928  0.220856  1
  O  O22  1  0.157790  0.078253  0.180457  1
  O  O23  1  0.921851  0.078352  0.180436  1
  O  O24  1  0.079005  0.156719  0.218741  1
  O  O25  1  0.253753  0.020225  0.168946  1
  O  O26  1  0.980606  0.232656  0.168966  1
  O  O27  1  0.253250  0.232572  0.168962  1
  O  O28  1  0.767604  0.020132  0.168976  1
  O  O29  1  0.233221  0.252767  0.230200  1
  O  O30  1  0.020715  0.252818  0.230179  1
  O  O31  1  -0.000000  0.204632  0.199573  1
  O  O32  1  0.205284  0.204598  0.199584  1
  O  O33  1  0.192461  0.096016  0.279484  1
  O  O34  1  0.210041  0.219246  0.259862  1
  O  O35  1  0.010078  0.219251  0.259839  1
  O  O36  1  0.219714  0.009737  0.139289  1
  O  O37  1  0.990720  0.209641  0.139301  1
  O  O38  1  0.219553  0.209595  0.139300  1
  O  O39  1  0.790742  0.009820  0.139321  1
  O  O40  1  0.076331  0.151872  0.277531  1
  O  O41  1  0.152203  0.075951  0.121619  1
  O  O42  1  0.924343  0.075998  0.121626  1
  O  O43  1  0.363636  0.438291  0.127124  1
  O  O44  1  0.074953  0.438249  0.127136  1
  O  O45  1  0.438522  0.074645  0.272079  1
  O  O46  1  0.925303  0.363298  0.272049  1
  O  O47  1  0.636860  0.074819  0.272075  1
  O  O48  1  0.438492  0.363444  0.272049  1
  O  O49  1  0.375071  0.044244  0.146760  1
  O  O50  1  0.956465  0.330529  0.146856  1
  O  O51  1  0.374752  0.330599  0.146812  1
  O  O52  1  0.669979  0.044290  0.146836  1
  O  O53  1  0.330871  0.374439  0.252342  1
  O  O54  1  0.044434  0.374466  0.252319  1
  O  O55  1  0.904334  0.096003  0.279446  1
  O  O56  1  0.096325  0.192101  0.119686  1
  O  O57  1  0.522705  0.477703  0.135243  1
  O  O58  1  0.522921  0.045057  0.135183  1
  O  O59  1  0.955232  0.477471  0.135252  1
  O  O60  1  0.320182  0.159979  0.151634  1
  O  O61  1  0.840656  0.159994  0.151714  1
  O  O62  1  0.160323  0.319691  0.247485  1
  O  O63  1  0.917426  0.333235  0.118899  1
  O  O64  1  0.082786  0.415872  0.280296  1
  O  O65  1  0.333591  0.416083  0.280297  1
  O  O66  1  0.484980  0.242461  0.339770  1
  O  O67  1  0.757785  0.242424  0.339763  1
  O  O68  1  0.848555  0.424255  0.382309  1
  O  O69  1  0.575805  0.424258  0.382311  1
  O  O70  1  0.575908  0.151580  0.382323  1
  O  O71  1  0.588383  0.176440  0.341898  1
  O  O72  1  0.823773  0.411803  0.341888  1
  O  O73  1  0.588245  0.411830  0.341895  1
  O  O74  1  0.745195  0.490294  0.380184  1
  O  O75  1  0.509794  0.254880  0.380192  1
  O  O76  1  0.745293  0.254884  0.380185  1
  O  O77  1  0.434110  0.080498  0.330444  1
  O  O78  1  0.919762  0.353479  0.330425  1
  O  O79  1  0.646693  0.080432  0.330442  1
  O  O80  1  0.434016  0.353447  0.330416  1
  O  O81  1  0.413882  0.313206  0.391659  1
  O  O82  1  0.686921  0.100622  0.391656  1
  O  O83  1  0.413929  0.100595  0.391661  1
  O  O84  1  0.899536  0.313300  0.391657  1
  O  O85  1  0.462047  0.128593  0.361049  1
  O  O86  1  0.871630  0.333375  0.361037  1
  O  O87  1  0.666814  0.128573  0.361044  1
  O  O88  1  0.461919  0.333328  0.361039  1
  O  O89  1  0.292222  0.002797  0.413794  1
  O  O90  1  0.710936  0.002895  0.413781  1
  O  O91  1  0.447446  0.323593  0.421322  1
  O  O92  1  0.676462  0.123679  0.421316  1
  O  O93  1  0.447442  0.123689  0.421322  1
  O  O94  1  0.876357  0.323681  0.421322  1
  O  O95  1  0.457204  0.113962  0.300784  1
  O  O96  1  0.886241  0.343029  0.300769  1
  O  O97  1  0.657137  0.113928  0.300788  1
  O  O98  1  0.457225  0.342980  0.300760  1
  O  O99  1  0.742653  0.485208  0.439009  1
  O  O100  1  0.514792  0.257310  0.439009  1
  O  O101  1  0.742677  0.257313  0.439001  1
  O  O102  1  0.590904  0.181360  0.283110  1
  O  O103  1  0.818778  0.409233  0.283089  1
  O  O104  1  0.590897  0.409227  0.283080  1
  O  O105  1  0.228712  0.258573  0.288569  1
  O  O106  1  0.030400  0.258438  0.288553  1
  O  O107  1  0.104955  0.408053  0.433494  1
  O  O108  1  0.303248  0.408039  0.433491  1
  O  O109  1  0.041501  0.377502  0.308280  1
  O  O110  1  0.336322  0.377347  0.308261  1
  O  O111  1  0.292230  0.289275  0.413798  1
  O  O112  1  0.997250  0.289358  0.413797  1
  O  O113  1  0.762910  0.237227  0.281196  1
  O  O114  1  0.474745  0.237196  0.281169  1
  O  O115  1  0.570673  0.141163  0.440916  1
  O  O116  1  0.189329  0.378307  0.296655  1
  O  O117  1  0.144226  0.288290  0.425389  1
  O  O118  1  0.986597  0.493229  0.313144  1
  O  O119  1  0.506934  0.493178  0.313118  1
  O  O120  1  0.506939  0.013527  0.313159  1
  O  O121  1  0.346996  0.173431  0.408946  1
  O  O122  1  0.826668  0.173525  0.408944  1
  O  O123  1  0.858781  0.429326  0.440931  1
  O  O124  1  0.570650  0.429324  0.440928  1
  O  O125  1  0.566177  0.919536  0.068740  1
  O  O126  1  0.080465  0.646500  0.068760  1
  O  O127  1  0.353516  0.919421  0.068726  1
  O  O128  1  0.566183  0.646476  0.068756  1
  O  O129  1  0.543102  0.886044  0.098393  1
  O  O130  1  0.114097  0.656981  0.098415  1
  O  O131  1  0.343105  0.885937  0.098387  1
  O  O132  1  0.543087  0.656931  0.098413  1
  O  O133  1  0.409435  0.818606  0.116068  1
  O  O134  1  0.181549  0.590741  0.116097  1
  O  O135  1  0.409417  0.590721  0.116091  1
  O  O136  1  0.771837  0.741548  0.110628  1
  O  O137  1  0.970027  0.741407  0.110607  1
  O  O138  1  0.958879  0.622626  0.090916  1
  O  O139  1  0.663876  0.622460  0.090904  1
  O  O140  1  0.810908  0.621680  0.102526  1
  O  O141  1  0.013622  0.506769  0.086056  1
  O  O142  1  0.493248  0.506732  0.086038  1
  O  O143  1  0.493303  0.986431  0.086017  1
  O  O144  1  0.525559  0.762731  0.117986  1
  O  O145  1  0.237432  0.762769  0.118005  1
  O  O146  1  0.818630  0.909107  0.178316  1
  O  O147  1  0.091917  0.908994  0.178325  1
  O  O148  1  0.909926  0.818574  0.220872  1
  O  O149  1  0.922398  0.843391  0.180434  1
  O  O150  1  0.843562  0.921623  0.218742  1
  O  O151  1  0.079339  0.921599  0.218726  1
  O  O152  1  0.767931  0.747235  0.168999  1
  O  O153  1  0.980403  0.747217  0.168975  1
  O  O154  1  0.747587  0.979885  0.230214  1
  O  O155  1  0.020635  0.767313  0.230215  1
  O  O156  1  0.747860  0.767320  0.230206  1
  O  O157  1  0.233390  0.979779  0.230245  1
  O  O158  1  0.796052  0.795393  0.199593  1
  O  O159  1  -0.000000  0.795291  0.199590  1
  O  O160  1  0.096346  0.903954  0.119698  1
  O  O161  1  0.781039  0.990199  0.259870  1
  O  O162  1  0.009987  0.790343  0.259879  1
  O  O163  1  0.781153  0.790346  0.259875  1
  O  O164  1  0.209987  0.990200  0.259899  1
  O  O165  1  0.790737  0.780718  0.139341  1
  O  O166  1  0.990683  0.780761  0.139313  1
  O  O167  1  0.848439  0.923974  0.277559  1
  O  O168  1  0.076292  0.923989  0.277570  1
  O  O169  1  0.924346  0.848118  0.121645  1
  O  O170  1  0.561943  0.925141  0.127110  1
  O  O171  1  0.074933  0.636531  0.127126  1
  O  O172  1  0.363783  0.925341  0.127086  1
  O  O173  1  0.561877  0.636665  0.127135  1
  O  O174  1  0.636798  0.561734  0.272045  1
  O  O175  1  0.925415  0.561657  0.272050  1
  O  O176  1  0.669858  0.625523  0.146866  1
  O  O177  1  0.956334  0.625533  0.146835  1
  O  O178  1  0.625798  0.955736  0.252350  1
  O  O179  1  0.044211  0.669372  0.252362  1
  O  O180  1  0.625985  0.669473  0.252331  1
  O  O181  1  0.330854  0.955772  0.252405  1
  O  O182  1  0.666807  0.584116  0.118890  1
  O  O183  1  0.205818  0.000000  0.199602  1
  O  O184  1  0.477850  0.522511  0.263930  1
  O  O185  1  0.477934  0.954930  0.263984  1
  O  O186  1  0.045082  0.522262  0.263933  1
  O  O187  1  0.840540  0.680297  0.151692  1
  O  O188  1  0.680737  0.840027  0.247479  1
  O  O189  1  0.160223  0.839995  0.247538  1
  O  O190  1  0.904278  0.807835  0.279495  1
  O  O191  1  0.808196  0.903979  0.119744  1
  O  O192  1  0.584275  0.666735  0.280290  1
  O  O193  1  0.917393  0.583895  0.118880  1
  O  O194  1  0.795586  0.000000  0.199594  1
  O  O195  1  0.757629  0.515086  0.339764  1
  O  O196  1  0.646656  0.566062  0.330415  1
  O  O197  1  0.919607  0.566056  0.330425  1
  O  O198  1  0.899432  0.586162  0.391659  1
  O  O199  1  0.686826  0.586170  0.391659  1
  O  O200  1  0.666746  0.538152  0.361037  1
  O  O201  1  0.871519  0.538120  0.361038  1
  O  O202  1  0.762901  0.525362  0.281158  1
  O  O203  1  0.876275  0.552551  0.421322  1
  O  O204  1  0.676370  0.552560  0.421322  1
  O  O205  1  0.657136  0.542874  0.300758  1
  O  O206  1  0.886122  0.542895  0.300763  1
  O  O207  1  0.741917  0.969907  0.288587  1
  O  O208  1  0.030436  0.771473  0.288584  1
  O  O209  1  0.741721  0.771515  0.288584  1
  O  O210  1  0.228712  0.969767  0.288608  1
  O  O211  1  0.591936  0.696750  0.433493  1
  O  O212  1  0.303241  0.895047  0.433485  1
  O  O213  1  0.591851  0.894955  0.433497  1
  O  O214  1  0.104907  0.696730  0.433490  1
  O  O215  1  0.336351  0.958782  0.308314  1
  O  O216  1  0.622830  0.663802  0.308263  1
  O  O217  1  0.041343  0.663770  0.308286  1
  O  O218  1  0.622760  0.958702  0.308309  1
  O  O219  1  0.997174  0.707778  0.413800  1
  O  O220  1  0.710700  0.707789  0.413801  1
  O  O221  1  0.333700  0.917165  0.280365  1
  O  O222  1  0.082922  0.666457  0.280321  1
  O  O223  1  0.584462  0.917375  0.280329  1
  O  O224  1  0.189403  0.810688  0.296699  1
  O  O225  1  0.622046  0.810903  0.296686  1
  O  O226  1  0.144207  0.855778  0.425388  1
  O  O227  1  0.711665  0.855788  0.425386  1
  O  O228  1  0.826549  0.653009  0.408955  1
  O  O229  1  0.242447  0.484856  0.543758  1
  O  O230  1  0.100609  0.413726  0.491865  1
  O  O231  1  0.313249  0.413779  0.491864  1
  O  O232  1  0.353471  0.433930  0.553095  1
  O  O233  1  0.080477  0.433859  0.553110  1
  O  O234  1  0.128514  0.461758  0.522487  1
  O  O235  1  0.333356  0.461863  0.522482  1
  O  O236  1  0.343097  0.457072  0.582758  1
  O  O237  1  0.114124  0.457085  0.582767  1
  O  O238  1  0.123783  0.447334  0.462204  1
  O  O239  1  0.323680  0.447332  0.462202  1
  O  O240  1  0.408143  0.303148  0.450033  1
  O  O241  1  0.696835  0.104832  0.450025  1
  O  O242  1  0.408152  0.104826  0.450030  1
  O  O243  1  0.895144  0.303147  0.450031  1
  O  O244  1  0.258817  0.030173  0.594917  1
  O  O245  1  0.970093  0.228459  0.594941  1
  O  O246  1  0.258822  0.228460  0.594938  1
  O  O247  1  0.771900  0.030070  0.594945  1
  O  O248  1  0.002879  0.292102  0.469721  1
  O  O249  1  0.289367  0.292118  0.469725  1
  O  O250  1  0.663946  0.041262  0.575218  1
  O  O251  1  0.377419  0.336181  0.575234  1
  O  O252  1  0.958891  0.336173  0.575267  1
  O  O253  1  0.377389  0.041151  0.575195  1
  O  O254  1  0.855867  0.144095  0.458123  1
  O  O255  1  0.288392  0.144115  0.458131  1
  O  O256  1  0.811026  0.189074  0.586845  1
  O  O257  1  0.378544  0.189244  0.586810  1
  O  O258  1  0.173501  0.346879  0.474572  1
  O  O259  1  0.237412  0.474596  0.602364  1
  O  O260  1  0.666987  0.082585  0.603198  1
  O  O261  1  0.416433  0.082810  0.603138  1
  O  O262  1  0.416338  0.333488  0.603196  1
  O  O263  1  0.250654  0.250550  0.441762  1
  O  O264  1  -0.000000  0.250554  0.441758  1
  O  O265  1  0.091256  0.181152  0.662647  1
  O  O266  1  0.182649  0.090891  0.705209  1
  O  O267  1  0.909566  0.090928  0.705201  1
  O  O268  1  0.157790  0.078253  0.664802  1
  O  O269  1  0.921851  0.078352  0.664781  1
  O  O270  1  0.079005  0.156719  0.703086  1
  O  O271  1  0.253753  0.020225  0.653291  1
  O  O272  1  0.980606  0.232656  0.653311  1
  O  O273  1  0.253250  0.232572  0.653307  1
  O  O274  1  0.767604  0.020132  0.653321  1
  O  O275  1  0.233221  0.252767  0.714544  1
  O  O276  1  0.020715  0.252818  0.714524  1
  O  O277  1  -0.000000  0.204632  0.683918  1
  O  O278  1  0.205284  0.204598  0.683929  1
  O  O279  1  0.192461  0.096016  0.763829  1
  O  O280  1  0.210041  0.219246  0.744207  1
  O  O281  1  0.010078  0.219251  0.744184  1
  O  O282  1  0.219714  0.009737  0.623634  1
  O  O283  1  0.990720  0.209641  0.623646  1
  O  O284  1  0.219553  0.209595  0.623644  1
  O  O285  1  0.790742  0.009820  0.623666  1
  O  O286  1  0.076331  0.151872  0.761876  1
  O  O287  1  0.152203  0.075951  0.605963  1
  O  O288  1  0.924343  0.075998  0.605971  1
  O  O289  1  0.363636  0.438291  0.611469  1
  O  O290  1  0.074953  0.438249  0.611481  1
  O  O291  1  0.438522  0.074645  0.756424  1
  O  O292  1  0.925303  0.363298  0.756394  1
  O  O293  1  0.636860  0.074819  0.756419  1
  O  O294  1  0.438492  0.363444  0.756394  1
  O  O295  1  0.375071  0.044244  0.631105  1
  O  O296  1  0.956465  0.330529  0.631201  1
  O  O297  1  0.374752  0.330599  0.631157  1
  O  O298  1  0.669979  0.044290  0.631180  1
  O  O299  1  0.330871  0.374439  0.736687  1
  O  O300  1  0.044434  0.374466  0.736664  1
  O  O301  1  0.904334  0.096003  0.763791  1
  O  O302  1  0.096325  0.192101  0.604030  1
  O  O303  1  0.522705  0.477703  0.619588  1
  O  O304  1  0.522921  0.045057  0.619528  1
  O  O305  1  0.955232  0.477471  0.619597  1
  O  O306  1  0.320182  0.159979  0.635979  1
  O  O307  1  0.840656  0.159994  0.636059  1
  O  O308  1  0.160323  0.319691  0.731830  1
  O  O309  1  0.917426  0.333235  0.603244  1
  O  O310  1  0.082786  0.415872  0.764641  1
  O  O311  1  0.333591  0.416083  0.764642  1
  O  O312  1  0.434110  0.080498  0.814789  1
  O  O313  1  0.919762  0.353479  0.814770  1
  O  O314  1  0.646693  0.080432  0.814787  1
  O  O315  1  0.434016  0.353447  0.814761  1
  O  O316  1  0.457204  0.113962  0.785129  1
  O  O317  1  0.886241  0.343029  0.785114  1
  O  O318  1  0.657137  0.113928  0.785133  1
  O  O319  1  0.457225  0.342980  0.785105  1
  O  O320  1  0.590904  0.181360  0.767455  1
  O  O321  1  0.818778  0.409233  0.767434  1
  O  O322  1  0.590897  0.409227  0.767425  1
  O  O323  1  0.228712  0.258573  0.772914  1
  O  O324  1  0.030400  0.258438  0.772898  1
  O  O325  1  0.041501  0.377502  0.792625  1
  O  O326  1  0.336322  0.377347  0.792606  1
  O  O327  1  0.762910  0.237227  0.765541  1
  O  O328  1  0.474745  0.237196  0.765513  1
  O  O329  1  0.189329  0.378307  0.781000  1
  O  O330  1  0.986597  0.493229  0.797489  1
  O  O331  1  0.506934  0.493178  0.797463  1
  O  O332  1  0.506939  0.013527  0.797503  1
  O  O333  1  0.151476  0.575641  0.501212  1
  O  O334  1  0.424264  0.575720  0.501208  1
  O  O335  1  0.424283  0.848368  0.501198  1
  O  O336  1  0.515328  0.757564  0.543758  1
  O  O337  1  0.242443  0.757441  0.543750  1
  O  O338  1  0.254849  0.509639  0.503337  1
  O  O339  1  0.490379  0.745093  0.503338  1
  O  O340  1  0.254859  0.745022  0.503328  1
  O  O341  1  0.411881  0.823500  0.541621  1
  O  O342  1  0.176291  0.588072  0.541629  1
  O  O343  1  0.411889  0.588186  0.541631  1
  O  O344  1  0.586223  0.686703  0.491867  1
  O  O345  1  0.313257  0.899300  0.491856  1
  O  O346  1  0.586252  0.899348  0.491863  1
  O  O347  1  0.100614  0.686695  0.491863  1
  O  O348  1  0.566177  0.919536  0.553085  1
  O  O349  1  0.080465  0.646500  0.553104  1
  O  O350  1  0.353516  0.919421  0.553071  1
  O  O351  1  0.566183  0.646476  0.553101  1
  O  O352  1  0.538199  0.666588  0.522485  1
  O  O353  1  0.333367  0.871308  0.522469  1
  O  O354  1  0.538202  0.871411  0.522478  1
  O  O355  1  0.128522  0.666589  0.522482  1
  O  O356  1  0.707876  0.997092  0.469718  1
  O  O357  1  0.289358  0.997089  0.469720  1
  O  O358  1  0.543102  0.886044  0.582738  1
  O  O359  1  0.114097  0.656981  0.582760  1
  O  O360  1  0.343105  0.885937  0.582732  1
  O  O361  1  0.543087  0.656931  0.582758  1
  O  O362  1  0.552645  0.676273  0.462205  1
  O  O363  1  0.323652  0.876178  0.462195  1
  O  O364  1  0.552638  0.876183  0.462207  1
  O  O365  1  0.123771  0.676286  0.462200  1
  O  O366  1  0.409435  0.818606  0.600412  1
  O  O367  1  0.181549  0.590741  0.600442  1
  O  O368  1  0.409417  0.590721  0.600436  1
  O  O369  1  0.257420  0.514695  0.444515  1
  O  O370  1  0.485254  0.742521  0.444525  1
  O  O371  1  0.257382  0.742558  0.444510  1
  O  O372  1  0.895135  0.591848  0.450032  1
  O  O373  1  0.696824  0.591858  0.450032  1
  O  O374  1  0.771837  0.741548  0.594973  1
  O  O375  1  0.970027  0.741407  0.594951  1
  O  O376  1  0.707870  0.710614  0.469726  1
  O  O377  1  0.002874  0.710606  0.469725  1
  O  O378  1  0.958879  0.622626  0.575261  1
  O  O379  1  0.663876  0.622460  0.575249  1
  O  O380  1  0.749430  0.749366  0.441763  1
  O  O381  1  0.855864  0.711609  0.458133  1
  O  O382  1  0.810908  0.621680  0.586871  1
  O  O383  1  0.653100  0.826460  0.474572  1
  O  O384  1  0.173493  0.826459  0.474572  1
  O  O385  1  0.013622  0.506769  0.570401  1
  O  O386  1  0.493248  0.506732  0.570383  1
  O  O387  1  0.493303  0.986431  0.570362  1
  O  O388  1  0.525559  0.762731  0.602331  1
  O  O389  1  0.237432  0.762769  0.602350  1
  O  O390  1  0.000000  0.749348  0.441763  1
  O  O391  1  0.141260  0.570553  0.442595  1
  O  O392  1  0.429429  0.570539  0.442597  1
  O  O393  1  0.429392  0.858673  0.442599  1
  O  O394  1  0.250655  -0.000000  0.441757  1
  O  O395  1  0.749370  0.000000  0.441753  1
  O  O396  1  0.818630  0.909107  0.662661  1
  O  O397  1  0.091917  0.908994  0.662670  1
  O  O398  1  0.909926  0.818574  0.705217  1
  O  O399  1  0.922398  0.843391  0.664778  1
  O  O400  1  0.843562  0.921623  0.703087  1
  O  O401  1  0.079339  0.921599  0.703071  1
  O  O402  1  0.767931  0.747235  0.653344  1
  O  O403  1  0.980403  0.747217  0.653320  1
  O  O404  1  0.747587  0.979885  0.714559  1
  O  O405  1  0.020635  0.767313  0.714560  1
  O  O406  1  0.747860  0.767320  0.714551  1
  O  O407  1  0.233390  0.979779  0.714589  1
  O  O408  1  0.796052  0.795393  0.683938  1
  O  O409  1  -0.000000  0.795291  0.683935  1
  O  O410  1  0.096346  0.903954  0.604043  1
  O  O411  1  0.781039  0.990199  0.744215  1
  O  O412  1  0.009987  0.790343  0.744224  1
  O  O413  1  0.781153  0.790346  0.744220  1
  O  O414  1  0.209987  0.990200  0.744244  1
  O  O415  1  0.790737  0.780718  0.623686  1
  O  O416  1  0.990683  0.780761  0.623658  1
  O  O417  1  0.848439  0.923974  0.761904  1
  O  O418  1  0.076292  0.923989  0.761915  1
  O  O419  1  0.924346  0.848118  0.605990  1
  O  O420  1  0.561943  0.925141  0.611455  1
  O  O421  1  0.074933  0.636531  0.611471  1
  O  O422  1  0.363783  0.925341  0.611431  1
  O  O423  1  0.561877  0.636665  0.611480  1
  O  O424  1  0.636798  0.561734  0.756390  1
  O  O425  1  0.925415  0.561657  0.756395  1
  O  O426  1  0.669858  0.625523  0.631210  1
  O  O427  1  0.956334  0.625533  0.631180  1
  O  O428  1  0.625798  0.955736  0.736695  1
  O  O429  1  0.044211  0.669372  0.736707  1
  O  O430  1  0.625985  0.669473  0.736676  1
  O  O431  1  0.330854  0.955772  0.736750  1
  O  O432  1  0.666807  0.584116  0.603235  1
  O  O433  1  0.205818  0.000000  0.683947  1
  O  O434  1  0.477850  0.522511  0.748275  1
  O  O435  1  0.477934  0.954930  0.748328  1
  O  O436  1  0.045082  0.522262  0.748278  1
  O  O437  1  0.840540  0.680297  0.636036  1
  O  O438  1  0.680737  0.840027  0.731823  1
  O  O439  1  0.160223  0.839995  0.731882  1
  O  O440  1  0.904278  0.807835  0.763840  1
  O  O441  1  0.808196  0.903979  0.604089  1
  O  O442  1  0.584275  0.666735  0.764635  1
  O  O443  1  0.917393  0.583895  0.603225  1
  O  O444  1  0.795586  -0.000000  0.683939  1
  O  O445  1  0.646656  0.566062  0.814760  1
  O  O446  1  0.919607  0.566056  0.814770  1
  O  O447  1  0.762901  0.525362  0.765503  1
  O  O448  1  0.657136  0.542874  0.785103  1
  O  O449  1  0.886122  0.542895  0.785108  1
  O  O450  1  0.741917  0.969907  0.772932  1
  O  O451  1  0.030436  0.771473  0.772929  1
  O  O452  1  0.741721  0.771515  0.772929  1
  O  O453  1  0.228712  0.969767  0.772953  1
  O  O454  1  0.336351  0.958782  0.792659  1
  O  O455  1  0.622830  0.663802  0.792608  1
  O  O456  1  0.041343  0.663770  0.792631  1
  O  O457  1  0.622760  0.958702  0.792654  1
  O  O458  1  0.333700  0.917165  0.764710  1
  O  O459  1  0.082922  0.666457  0.764666  1
  O  O460  1  0.584462  0.917375  0.764674  1
  O  O461  1  0.189403  0.810688  0.781044  1
  O  O462  1  0.622046  0.810903  0.781030  1
  Si  Si463  1  0.154807  0.488644  0.115263  1
  Si  Si464  1  0.334055  0.488630  0.115259  1
  Si  Si465  1  0.391162  0.430541  0.085453  1
  Si  Si466  1  0.039462  0.430530  0.085473  1
  Si  Si467  1  0.731237  0.089985  0.104967  1
  Si  Si468  1  0.359389  0.269099  0.104980  1
  Si  Si469  1  0.910012  0.268983  0.105007  1
  Si  Si470  1  0.359345  0.090191  0.104941  1
  Si  Si471  1  0.822261  0.000000  0.122483  1
  Si  Si472  1  0.821457  -0.000000  0.181788  1
  Si  Si473  1  0.178966  0.000000  0.122453  1
  Si  Si474  1  -0.000000  0.178096  0.122452  1
  Si  Si475  1  0.178913  0.178039  0.122456  1
  Si  Si476  1  -0.000000  0.178611  0.181773  1
  Si  Si477  1  0.179552  0.178529  0.181785  1
  Si  Si478  1  0.179427  0.178883  0.217391  1
  Si  Si479  1  -0.000000  0.178917  0.217380  1
  Si  Si480  1  0.423926  0.025946  0.132672  1
  Si  Si481  1  0.974419  0.397614  0.132767  1
  Si  Si482  1  0.423713  0.397801  0.132731  1
  Si  Si483  1  0.602712  0.025742  0.132737  1
  Si  Si484  1  0.397986  0.423486  0.266430  1
  Si  Si485  1  0.025873  0.423208  0.266412  1
  Si  Si486  1  0.294245  0.236147  0.152244  1
  Si  Si487  1  0.764299  0.057964  0.152280  1
  Si  Si488  1  0.942761  0.236153  0.152282  1
  Si  Si489  1  0.294469  0.057934  0.152222  1
  Si  Si490  1  0.058261  0.293896  0.246888  1
  Si  Si491  1  0.236541  0.293826  0.246902  1
  Si  Si492  1  0.178430  0.178623  0.276708  1
  Si  Si493  1  -0.000000  0.178602  0.276681  1
  Si  Si494  1  0.180055  -0.000000  0.181795  1
  Si  Si495  1  0.488805  0.333866  0.283920  1
  Si  Si496  1  0.487996  0.154365  0.343248  1
  Si  Si497  1  0.845905  0.333532  0.343233  1
  Si  Si498  1  0.666672  0.154326  0.343242  1
  Si  Si499  1  0.487867  0.333521  0.343237  1
  Si  Si500  1  0.487683  0.333163  0.378842  1
  Si  Si501  1  0.666976  0.154505  0.378845  1
  Si  Si502  1  0.487760  0.154508  0.378851  1
  Si  Si503  1  0.845667  0.333203  0.378837  1
  Si  Si504  1  0.090254  0.359031  0.294179  1
  Si  Si505  1  0.269203  0.359155  0.294168  1
  Si  Si506  1  0.243254  0.307462  0.427882  1
  Si  Si507  1  0.064384  0.307482  0.427883  1
  Si  Si508  1  0.430682  0.391108  0.313706  1
  Si  Si509  1  0.608994  0.039302  0.313742  1
  Si  Si510  1  0.430716  0.039387  0.313744  1
  Si  Si511  1  0.960863  0.391182  0.313723  1
  Si  Si512  1  0.372832  0.097183  0.408363  1
  Si  Si513  1  0.902892  0.275614  0.408362  1
  Si  Si514  1  0.724623  0.097244  0.408358  1
  Si  Si515  1  0.372837  0.275509  0.408363  1
  Si  Si516  1  0.488056  0.332668  0.438168  1
  Si  Si517  1  0.667328  0.155220  0.438158  1
  Si  Si518  1  0.488069  0.155221  0.438166  1
  Si  Si519  1  0.844763  0.332689  0.438168  1
  Si  Si520  1  0.488804  0.154603  0.283940  1
  Si  Si521  1  0.845523  0.333885  0.283934  1
  Si  Si522  1  0.666264  0.154629  0.283951  1
  Si  Si523  1  0.909936  0.640824  0.105008  1
  Si  Si524  1  0.731106  0.640950  0.105005  1
  Si  Si525  1  0.569561  0.608779  0.085460  1
  Si  Si526  1  0.391204  0.960546  0.085425  1
  Si  Si527  1  0.569583  0.960660  0.085439  1
  Si  Si528  1  0.039447  0.608846  0.085469  1
  Si  Si529  1  0.511528  0.845340  0.115231  1
  Si  Si530  1  0.154818  0.666102  0.115255  1
  Si  Si531  1  0.334087  0.845353  0.115232  1
  Si  Si532  1  0.511509  0.666070  0.115248  1
  Si  Si533  1  -0.000000  0.821361  0.122467  1
  Si  Si534  1  0.179755  -0.000000  0.217399  1
  Si  Si535  1  0.821676  0.821872  0.276726  1
  Si  Si536  1  0.821946  0.821165  0.181790  1
  Si  Si537  1  0.000000  0.821108  0.181786  1
  Si  Si538  1  0.822259  0.821387  0.122499  1
  Si  Si539  1  -0.000000  0.821290  0.217392  1
  Si  Si540  1  0.821687  0.821315  0.217398  1
  Si  Si541  1  0.178391  0.000000  0.276737  1
  Si  Si542  1  0.602548  0.576769  0.132773  1
  Si  Si543  1  0.974387  0.576490  0.132745  1
  Si  Si544  1  0.577026  0.974226  0.266446  1
  Si  Si545  1  0.025980  0.602158  0.266441  1
  Si  Si546  1  0.576888  0.602370  0.266420  1
  Si  Si547  1  0.398047  0.974050  0.266488  1
  Si  Si548  1  0.942629  0.706168  0.152273  1
  Si  Si549  1  0.764279  0.706089  0.152292  1
  Si  Si550  1  0.706641  0.763844  0.246901  1
  Si  Si551  1  0.236523  0.942046  0.246958  1
  Si  Si552  1  0.058118  0.763804  0.246932  1
  Si  Si553  1  0.706456  0.942073  0.246910  1
  Si  Si554  1  0.821724  0.000000  0.276708  1
  Si  Si555  1  -0.000000  0.821896  0.276726  1
  Si  Si556  1  0.821397  -0.000000  0.217395  1
  Si  Si557  1  0.960708  0.569425  0.313724  1
  Si  Si558  1  0.667292  0.511938  0.438168  1
  Si  Si559  1  0.844741  0.511932  0.438168  1
  Si  Si560  1  0.902794  0.627177  0.408367  1
  Si  Si561  1  0.845508  0.511325  0.283918  1
  Si  Si562  1  0.666254  0.511323  0.283917  1
  Si  Si563  1  0.724476  0.627186  0.408367  1
  Si  Si564  1  0.609015  0.569423  0.313706  1
  Si  Si565  1  0.666573  0.512201  0.343235  1
  Si  Si566  1  0.845778  0.512164  0.343236  1
  Si  Si567  1  0.845582  0.512377  0.378840  1
  Si  Si568  1  0.666896  0.512385  0.378840  1
  Si  Si569  1  0.269249  0.909743  0.294223  1
  Si  Si570  1  0.641130  0.730998  0.294180  1
  Si  Si571  1  0.090381  0.730844  0.294194  1
  Si  Si572  1  0.641327  0.909983  0.294215  1
  Si  Si573  1  0.064349  0.756750  0.427882  1
  Si  Si574  1  0.692442  0.935613  0.427872  1
  Si  Si575  1  0.243242  0.935628  0.427878  1
  Si  Si576  1  0.692510  0.756769  0.427885  1
  Si  Si577  1  0.154807  0.488644  0.599607  1
  Si  Si578  1  0.334055  0.488630  0.599604  1
  Si  Si579  1  0.391162  0.430541  0.569798  1
  Si  Si580  1  0.039462  0.430530  0.569818  1
  Si  Si581  1  0.332770  0.487949  0.445356  1
  Si  Si582  1  0.155328  0.487965  0.445358  1
  Si  Si583  1  0.097256  0.372705  0.475158  1
  Si  Si584  1  0.275584  0.372718  0.475159  1
  Si  Si585  1  0.154453  0.487522  0.504684  1
  Si  Si586  1  0.333175  0.487589  0.504679  1
  Si  Si587  1  0.333538  0.487821  0.540283  1
  Si  Si588  1  0.154257  0.487707  0.540289  1
  Si  Si589  1  0.935715  0.243137  0.455636  1
  Si  Si590  1  0.307572  0.064264  0.455636  1
  Si  Si591  1  0.756829  0.064243  0.455631  1
  Si  Si592  1  0.307567  0.243148  0.455641  1
  Si  Si593  1  0.731237  0.089985  0.589312  1
  Si  Si594  1  0.359389  0.269099  0.589325  1
  Si  Si595  1  0.910012  0.268983  0.589352  1
  Si  Si596  1  0.359345  0.090191  0.589286  1
  Si  Si597  1  0.822261  0.000000  0.606828  1
  Si  Si598  1  0.821457  -0.000000  0.666133  1
  Si  Si599  1  0.178966  -0.000000  0.606798  1
  Si  Si600  1  -0.000000  0.178096  0.606797  1
  Si  Si601  1  0.178913  0.178039  0.606801  1
  Si  Si602  1  -0.000000  0.178611  0.666118  1
  Si  Si603  1  0.179552  0.178529  0.666130  1
  Si  Si604  1  0.179427  0.178883  0.701735  1
  Si  Si605  1  -0.000000  0.178917  0.701725  1
  Si  Si606  1  0.423926  0.025946  0.617017  1
  Si  Si607  1  0.974419  0.397614  0.617112  1
  Si  Si608  1  0.423713  0.397801  0.617076  1
  Si  Si609  1  0.602712  0.025742  0.617082  1
  Si  Si610  1  0.397986  0.423486  0.750775  1
  Si  Si611  1  0.025873  0.423208  0.750756  1
  Si  Si612  1  0.294245  0.236147  0.636589  1
  Si  Si613  1  0.764299  0.057964  0.636625  1
  Si  Si614  1  0.942761  0.236153  0.636627  1
  Si  Si615  1  0.294469  0.057934  0.636567  1
  Si  Si616  1  0.058261  0.293896  0.731233  1
  Si  Si617  1  0.236541  0.293826  0.731247  1
  Si  Si618  1  0.178430  0.178623  0.761053  1
  Si  Si619  1  0.000000  0.178602  0.761026  1
  Si  Si620  1  0.180055  -0.000000  0.666140  1
  Si  Si621  1  0.488805  0.333866  0.768265  1
  Si  Si622  1  0.090254  0.359031  0.778524  1
  Si  Si623  1  0.269203  0.359155  0.778513  1
  Si  Si624  1  0.430682  0.391108  0.798051  1
  Si  Si625  1  0.608994  0.039302  0.798087  1
  Si  Si626  1  0.430716  0.039387  0.798089  1
  Si  Si627  1  0.960863  0.391182  0.798068  1
  Si  Si628  1  0.488804  0.154603  0.768284  1
  Si  Si629  1  0.845523  0.333885  0.768279  1
  Si  Si630  1  0.666264  0.154629  0.768296  1
  Si  Si631  1  0.512428  0.666771  0.504684  1
  Si  Si632  1  0.333188  0.845402  0.504667  1
  Si  Si633  1  0.512440  0.845472  0.504677  1
  Si  Si634  1  0.154463  0.666744  0.504680  1
  Si  Si635  1  0.512296  0.845652  0.540281  1
  Si  Si636  1  0.154248  0.666395  0.540285  1
  Si  Si637  1  0.333547  0.845541  0.540270  1
  Si  Si638  1  0.512304  0.666439  0.540289  1
  Si  Si639  1  0.756836  0.692434  0.455639  1
  Si  Si640  1  0.935713  0.692425  0.455640  1
  Si  Si641  1  0.909936  0.640824  0.589353  1
  Si  Si642  1  0.731106  0.640950  0.589350  1
  Si  Si643  1  0.627287  0.902717  0.475157  1
  Si  Si644  1  0.097252  0.724378  0.475158  1
  Si  Si645  1  0.275570  0.902704  0.475154  1
  Si  Si646  1  0.627263  0.724380  0.475161  1
  Si  Si647  1  0.569561  0.608779  0.569805  1
  Si  Si648  1  0.391204  0.960546  0.569770  1
  Si  Si649  1  0.569583  0.960660  0.569784  1
  Si  Si650  1  0.039447  0.608846  0.569814  1
  Si  Si651  1  0.511528  0.845340  0.599576  1
  Si  Si652  1  0.154818  0.666102  0.599600  1
  Si  Si653  1  0.334087  0.845353  0.599576  1
  Si  Si654  1  0.511509  0.666070  0.599593  1
  Si  Si655  1  0.512024  0.667188  0.445360  1
  Si  Si656  1  0.332746  0.844646  0.445351  1
  Si  Si657  1  0.511981  0.844612  0.445364  1
  Si  Si658  1  0.155293  0.667199  0.445354  1
  Si  Si659  1  -0.000000  0.821361  0.606812  1
  Si  Si660  1  0.179755  -0.000000  0.701744  1
  Si  Si661  1  0.821676  0.821872  0.761071  1
  Si  Si662  1  0.821946  0.821165  0.666135  1
  Si  Si663  1  -0.000000  0.821108  0.666131  1
  Si  Si664  1  0.822259  0.821387  0.606844  1
  Si  Si665  1  -0.000000  0.821290  0.701737  1
  Si  Si666  1  0.821687  0.821315  0.701743  1
  Si  Si667  1  0.178391  0.000000  0.761082  1
  Si  Si668  1  0.602548  0.576769  0.617118  1
  Si  Si669  1  0.974387  0.576490  0.617090  1
  Si  Si670  1  0.577026  0.974226  0.750791  1
  Si  Si671  1  0.025980  0.602158  0.750786  1
  Si  Si672  1  0.576888  0.602370  0.750765  1
  Si  Si673  1  0.398047  0.974050  0.750832  1
  Si  Si674  1  0.942629  0.706168  0.636618  1
  Si  Si675  1  0.764279  0.706089  0.636637  1
  Si  Si676  1  0.706641  0.763844  0.731246  1
  Si  Si677  1  0.236523  0.942046  0.731303  1
  Si  Si678  1  0.058118  0.763804  0.731277  1
  Si  Si679  1  0.706456  0.942073  0.731255  1
  Si  Si680  1  0.821724  -0.000000  0.761053  1
  Si  Si681  1  -0.000000  0.821896  0.761071  1
  Si  Si682  1  0.821397  0.000000  0.701740  1
  Si  Si683  1  0.960708  0.569425  0.798069  1
  Si  Si684  1  0.845508  0.511325  0.768263  1
  Si  Si685  1  0.666254  0.511323  0.768262  1
  Si  Si686  1  0.609015  0.569423  0.798051  1
  Si  Si687  1  0.269249  0.909743  0.778568  1
  Si  Si688  1  0.641130  0.730998  0.778524  1
  Si  Si689  1  0.090381  0.730844  0.778539  1
  Si  Si690  1  0.641327  0.909983  0.778560  1
  H  H691  1  0.353471  0.433930  0.058266  1
  H  H692  1  0.080477  0.433859  0.058282  1
  H  H693  1  0.566177  0.919536  0.058256  1
  H  H694  1  0.080465  0.646500  0.058276  1
  H  H695  1  0.353516  0.919421  0.058243  1
  H  H696  1  0.566183  0.646476  0.058272  1
  H  H697  1  0.434110  0.080498  0.825272  1
  H  H698  1  0.919762  0.353479  0.825254  1
  H  H699  1  0.646693  0.080432  0.825270  1
  H  H700  1  0.434016  0.353447  0.825244  1
  H  H701  1  0.646656  0.566062  0.825244  1
  H  H702  1  0.919607  0.566056  0.825254  1
