# generated using pymatgen
data_Si37H6O77
_symmetry_space_group_name_H-M   'P 1'
_cell_length_a   7.51561045
_cell_length_b   23.17128744
_cell_length_c   58.60774055
_cell_angle_alpha   52.20637989
_cell_angle_beta   90.00000000
_cell_angle_gamma   90.00000000
_symmetry_Int_Tables_number   1
_chemical_formula_structural   Si37H6O77
_chemical_formula_sum   'Si74 H12 O154'
_cell_volume   8065.27557614
_cell_formula_units_Z   2
loop_
 _symmetry_equiv_pos_site_id
 _symmetry_equiv_pos_as_xyz
  1  'x, y, z'
loop_
 _atom_site_type_symbol
 _atom_site_label
 _atom_site_symmetry_multiplicity
 _atom_site_fract_x
 _atom_site_fract_y
 _atom_site_fract_z
 _atom_site_occupancy
  O  O1  1  0.744609  0.998381  0.221860  1
  O  O2  1  0.744607  0.501736  0.221047  1
  O  O3  1  0.255064  0.001793  0.221034  1
  O  O4  1  0.255062  0.498323  0.221875  1
  O  O5  1  0.742203  0.107365  0.222609  1
  O  O6  1  0.731005  0.609925  0.222015  1
  O  O7  1  0.742234  0.107367  0.267213  1
  O  O8  1  0.730978  0.609922  0.266513  1
  O  O9  1  0.268669  0.109925  0.266540  1
  O  O10  1  0.257473  0.607365  0.267186  1
  O  O11  1  0.268698  0.109921  0.222043  1
  O  O12  1  0.257440  0.607367  0.222581  1
  O  O13  1  0.838916  0.220954  0.217386  1
  O  O14  1  0.822686  0.723942  0.216643  1
  O  O15  1  0.176988  0.223942  0.216662  1
  O  O16  1  0.160759  0.720953  0.217367  1
  O  O17  1  0.991949  0.250107  0.149750  1
  O  O18  1  0.007726  0.750009  0.149758  1
  O  O19  1  0.007729  0.750107  0.270877  1
  O  O20  1  0.002892  0.317438  0.171222  1
  O  O21  1  0.996781  0.817406  0.171201  1
  O  O22  1  0.002895  0.317406  0.216814  1
  O  O23  1  0.996784  0.817438  0.216778  1
  O  O24  1  0.996784  0.682678  0.128286  1
  O  O25  1  0.002895  0.182709  0.128306  1
  O  O26  1  0.834516  0.128451  0.176202  1
  O  O27  1  0.824599  0.633569  0.175323  1
  O  O28  1  0.824601  0.866547  0.240019  1
  O  O29  1  0.834515  0.371665  0.238417  1
  O  O30  1  0.834525  0.371756  0.123317  1
  O  O31  1  0.175076  0.366547  0.124185  1
  O  O32  1  0.165155  0.871757  0.238362  1
  O  O33  1  0.175073  0.366456  0.240075  1
  O  O34  1  0.175075  0.133659  0.175335  1
  O  O35  1  0.165151  0.628359  0.176191  1
  O  O36  1  0.507924  0.175981  0.228289  1
  O  O37  1  0.491750  0.675981  0.228257  1
  O  O38  1  0.504297  0.096575  0.194907  1
  O  O39  1  0.495374  0.596514  0.194900  1
  O  O40  1  0.495376  0.903602  0.241639  1
  O  O41  1  0.504295  0.403541  0.241676  1
  O  O42  1  0.744609  0.998381  0.464146  1
  O  O43  1  0.744607  0.501736  0.463333  1
  O  O44  1  0.744611  0.998323  0.320759  1
  O  O45  1  0.744613  0.501793  0.319919  1
  O  O46  1  0.255066  0.001735  0.319933  1
  O  O47  1  0.255069  0.498380  0.320746  1
  O  O48  1  0.255064  0.001793  0.463319  1
  O  O49  1  0.255062  0.498323  0.464160  1
  O  O50  1  0.742203  0.107365  0.464894  1
  O  O51  1  0.731005  0.609925  0.464300  1
  O  O52  1  0.731006  0.890191  0.275253  1
  O  O53  1  0.742202  0.392751  0.274607  1
  O  O54  1  0.742234  0.107367  0.509498  1
  O  O55  1  0.730978  0.609922  0.508798  1
  O  O56  1  0.730978  0.890194  0.319750  1
  O  O57  1  0.742235  0.392749  0.319212  1
  O  O58  1  0.257473  0.892751  0.319184  1
  O  O59  1  0.268671  0.390191  0.319778  1
  O  O60  1  0.268669  0.109925  0.508825  1
  O  O61  1  0.257473  0.607365  0.509472  1
  O  O62  1  0.257442  0.892749  0.274580  1
  O  O63  1  0.268697  0.390194  0.275280  1
  O  O64  1  0.268698  0.109921  0.464329  1
  O  O65  1  0.257440  0.607367  0.464867  1
  O  O66  1  0.838916  0.220954  0.459672  1
  O  O67  1  0.822686  0.723942  0.458928  1
  O  O68  1  0.822687  0.776174  0.325131  1
  O  O69  1  0.838917  0.279162  0.324426  1
  O  O70  1  0.160761  0.779163  0.324407  1
  O  O71  1  0.176989  0.276174  0.325150  1
  O  O72  1  0.176988  0.223942  0.458948  1
  O  O73  1  0.160759  0.720953  0.459653  1
  O  O74  1  0.991949  0.250107  0.392036  1
  O  O75  1  0.007726  0.750009  0.392043  1
  O  O76  1  0.007729  0.750107  0.513162  1
  O  O77  1  0.991947  0.250009  0.270917  1
  O  O78  1  0.002892  0.317438  0.413507  1
  O  O79  1  0.996781  0.817406  0.413487  1
  O  O80  1  0.996781  0.682709  0.324979  1
  O  O81  1  0.002892  0.182678  0.325015  1
  O  O82  1  0.002895  0.317406  0.459099  1
  O  O83  1  0.996784  0.817438  0.459063  1
  O  O84  1  0.996784  0.682678  0.370571  1
  O  O85  1  0.002895  0.182709  0.370592  1
  O  O86  1  0.834516  0.128451  0.418487  1
  O  O87  1  0.824599  0.633569  0.417608  1
  O  O88  1  0.824601  0.866547  0.482304  1
  O  O89  1  0.834515  0.371665  0.480702  1
  O  O90  1  0.834522  0.128359  0.303431  1
  O  O91  1  0.824602  0.633660  0.301718  1
  O  O92  1  0.824601  0.866456  0.366458  1
  O  O93  1  0.834525  0.371756  0.365602  1
  O  O94  1  0.165159  0.871665  0.365592  1
  O  O95  1  0.175076  0.366547  0.366470  1
  O  O96  1  0.175074  0.133569  0.301774  1
  O  O97  1  0.165161  0.628450  0.303376  1
  O  O98  1  0.165155  0.871757  0.480647  1
  O  O99  1  0.175073  0.366456  0.482360  1
  O  O100  1  0.175075  0.133659  0.417621  1
  O  O101  1  0.165151  0.628359  0.418476  1
  O  O102  1  0.507924  0.175981  0.470574  1
  O  O103  1  0.491750  0.675981  0.470542  1
  O  O104  1  0.491751  0.824135  0.313504  1
  O  O105  1  0.507925  0.324135  0.313536  1
  O  O106  1  0.504297  0.096575  0.437192  1
  O  O107  1  0.495374  0.596514  0.437185  1
  O  O108  1  0.495376  0.903602  0.483925  1
  O  O109  1  0.504295  0.403541  0.483962  1
  O  O110  1  0.504299  0.096514  0.300154  1
  O  O111  1  0.495380  0.596575  0.300117  1
  O  O112  1  0.495378  0.903541  0.346886  1
  O  O113  1  0.504302  0.403602  0.346893  1
  O  O114  1  0.744611  0.998323  0.563045  1
  O  O115  1  0.744613  0.501793  0.562204  1
  O  O116  1  0.255066  0.001735  0.562218  1
  O  O117  1  0.255069  0.498380  0.563031  1
  O  O118  1  0.731006  0.890191  0.517539  1
  O  O119  1  0.742202  0.392751  0.516892  1
  O  O120  1  0.730978  0.890194  0.562035  1
  O  O121  1  0.742235  0.392749  0.561497  1
  O  O122  1  0.257473  0.892751  0.561469  1
  O  O123  1  0.268671  0.390191  0.562064  1
  O  O124  1  0.257442  0.892749  0.516865  1
  O  O125  1  0.268697  0.390194  0.517566  1
  O  O126  1  0.822687  0.776174  0.567416  1
  O  O127  1  0.838917  0.279162  0.566711  1
  O  O128  1  0.160761  0.779163  0.566692  1
  O  O129  1  0.176989  0.276174  0.567436  1
  O  O130  1  0.991949  0.250107  0.634321  1
  O  O131  1  0.007726  0.750009  0.634329  1
  O  O132  1  0.991947  0.250009  0.513202  1
  O  O133  1  0.002892  0.317438  0.655793  1
  O  O134  1  0.996781  0.817406  0.655773  1
  O  O135  1  0.996781  0.682709  0.567265  1
  O  O136  1  0.002892  0.182678  0.567301  1
  O  O137  1  0.996784  0.682678  0.612857  1
  O  O138  1  0.002895  0.182709  0.612877  1
  O  O139  1  0.824599  0.633569  0.659894  1
  O  O140  1  0.834522  0.128359  0.545717  1
  O  O141  1  0.824602  0.633660  0.544004  1
  O  O142  1  0.824601  0.866456  0.608744  1
  O  O143  1  0.834525  0.371756  0.607888  1
  O  O144  1  0.165159  0.871665  0.607877  1
  O  O145  1  0.175076  0.366547  0.608756  1
  O  O146  1  0.175074  0.133569  0.544060  1
  O  O147  1  0.165161  0.628450  0.545662  1
  O  O148  1  0.165151  0.628359  0.660762  1
  O  O149  1  0.491751  0.824135  0.555790  1
  O  O150  1  0.507925  0.324135  0.555822  1
  O  O151  1  0.504299  0.096514  0.542439  1
  O  O152  1  0.495380  0.596575  0.542402  1
  O  O153  1  0.495378  0.903541  0.589172  1
  O  O154  1  0.504302  0.403602  0.589179  1
  Si  Si155  1  0.708338  0.082839  0.203125  1
  Si  Si156  1  0.700406  0.585568  0.202425  1
  Si  Si157  1  0.700409  0.914548  0.243861  1
  Si  Si158  1  0.708336  0.417277  0.243238  1
  Si  Si159  1  0.291333  0.917328  0.243204  1
  Si  Si160  1  0.299266  0.414496  0.243895  1
  Si  Si161  1  0.299267  0.085620  0.202434  1
  Si  Si162  1  0.291331  0.582787  0.203116  1
  Si  Si163  1  0.001528  0.172764  0.157388  1
  Si  Si164  1  0.998145  0.672686  0.157377  1
  Si  Si165  1  0.998147  0.827429  0.241028  1
  Si  Si166  1  0.001527  0.327351  0.241077  1
  Si  Si167  1  0.001530  0.327430  0.142130  1
  Si  Si168  1  0.711251  0.153570  0.233717  1
  Si  Si169  1  0.696538  0.655925  0.233118  1
  Si  Si170  1  0.303137  0.155924  0.233147  1
  Si  Si171  1  0.288423  0.653570  0.233689  1
  Si  Si172  1  0.005167  0.272318  0.204943  1
  Si  Si173  1  0.994508  0.772318  0.204921  1
  Si  Si174  1  0.708338  0.082839  0.445410  1
  Si  Si175  1  0.700406  0.585568  0.444710  1
  Si  Si176  1  0.700409  0.914548  0.486146  1
  Si  Si177  1  0.708336  0.417277  0.485524  1
  Si  Si178  1  0.708342  0.082787  0.298589  1
  Si  Si179  1  0.700410  0.585620  0.297898  1
  Si  Si180  1  0.700408  0.914496  0.339359  1
  Si  Si181  1  0.708344  0.417329  0.338677  1
  Si  Si182  1  0.291337  0.917277  0.338668  1
  Si  Si183  1  0.299270  0.414548  0.339368  1
  Si  Si184  1  0.299268  0.085568  0.297932  1
  Si  Si185  1  0.291339  0.582839  0.298555  1
  Si  Si186  1  0.291333  0.917328  0.485490  1
  Si  Si187  1  0.299266  0.414496  0.486181  1
  Si  Si188  1  0.299267  0.085620  0.444720  1
  Si  Si189  1  0.291331  0.582787  0.445402  1
  Si  Si190  1  0.001528  0.172764  0.399673  1
  Si  Si191  1  0.998145  0.672686  0.399662  1
  Si  Si192  1  0.998147  0.827429  0.483313  1
  Si  Si193  1  0.001527  0.327351  0.483362  1
  Si  Si194  1  0.001528  0.172686  0.300766  1
  Si  Si195  1  0.998149  0.672764  0.300717  1
  Si  Si196  1  0.998147  0.827352  0.384405  1
  Si  Si197  1  0.001530  0.327430  0.384416  1
  Si  Si198  1  0.711251  0.153570  0.476002  1
  Si  Si199  1  0.696538  0.655925  0.475403  1
  Si  Si200  1  0.696539  0.844191  0.308647  1
  Si  Si201  1  0.711252  0.346546  0.308104  1
  Si  Si202  1  0.288423  0.846546  0.308076  1
  Si  Si203  1  0.303137  0.344191  0.308675  1
  Si  Si204  1  0.303137  0.155924  0.475432  1
  Si  Si205  1  0.288423  0.653570  0.475974  1
  Si  Si206  1  0.005167  0.272318  0.447228  1
  Si  Si207  1  0.994508  0.772318  0.447206  1
  Si  Si208  1  0.994508  0.727797  0.336850  1
  Si  Si209  1  0.005167  0.227798  0.336872  1
  Si  Si210  1  0.708342  0.082787  0.540874  1
  Si  Si211  1  0.700410  0.585620  0.540183  1
  Si  Si212  1  0.700408  0.914496  0.581644  1
  Si  Si213  1  0.708344  0.417329  0.580962  1
  Si  Si214  1  0.291337  0.917277  0.580954  1
  Si  Si215  1  0.299270  0.414548  0.581654  1
  Si  Si216  1  0.299268  0.085568  0.540218  1
  Si  Si217  1  0.291339  0.582839  0.540841  1
  Si  Si218  1  0.998145  0.672686  0.641948  1
  Si  Si219  1  0.001528  0.172686  0.543051  1
  Si  Si220  1  0.998149  0.672764  0.543002  1
  Si  Si221  1  0.998147  0.827352  0.626691  1
  Si  Si222  1  0.001530  0.327430  0.626701  1
  Si  Si223  1  0.696539  0.844191  0.550932  1
  Si  Si224  1  0.711252  0.346546  0.550390  1
  Si  Si225  1  0.288423  0.846546  0.550362  1
  Si  Si226  1  0.303137  0.344191  0.550961  1
  Si  Si227  1  0.994508  0.727797  0.579136  1
  Si  Si228  1  0.005167  0.227798  0.579157  1
  H  H229  1  0.007726  0.750009  0.134401  1
  H  H230  1  0.996781  0.817406  0.155845  1
  H  H231  1  0.996784  0.682678  0.112929  1
  H  H232  1  0.002895  0.182709  0.112950  1
  H  H233  1  0.834525  0.371756  0.107961  1
  H  H234  1  0.175076  0.366547  0.108828  1
  H  H235  1  0.991949  0.250107  0.649677  1
  H  H236  1  0.002892  0.317438  0.671149  1
  H  H237  1  0.996781  0.817406  0.671129  1
  H  H238  1  0.002895  0.182709  0.628234  1
  H  H239  1  0.824599  0.633569  0.675250  1
  H  H240  1  0.165151  0.628359  0.676118  1
