# generated using pymatgen
data_Si20H2O41
_symmetry_space_group_name_H-M   'P 1'
_cell_length_a   9.77083545
_cell_length_b   27.97530112
_cell_length_c   56.90824127
_cell_angle_alpha   90.00000000
_cell_angle_beta   90.00000000
_cell_angle_gamma   90.00000000
_symmetry_Int_Tables_number   1
_chemical_formula_structural   Si20H2O41
_chemical_formula_sum   'Si160 H16 O328'
_cell_volume   15555.4161211
_cell_formula_units_Z   8
loop_
 _symmetry_equiv_pos_site_id
 _symmetry_equiv_pos_as_xyz
  1  'x, y, z'
loop_
 _atom_site_type_symbol
 _atom_site_label
 _atom_site_symmetry_multiplicity
 _atom_site_fract_x
 _atom_site_fract_y
 _atom_site_fract_z
 _atom_site_occupancy
  O  O1  1  0.823711  0.585642  0.271139  1
  O  O2  1  0.323731  0.585640  0.148346  1
  O  O3  1  0.176170  0.585646  0.271143  1
  O  O4  1  0.676195  0.585633  0.148343  1
  O  O5  1  0.323732  0.085639  0.184741  1
  O  O6  1  0.676191  0.085632  0.184744  1
  O  O7  1  0.676169  0.414313  0.184746  1
  O  O8  1  0.323710  0.414319  0.184748  1
  O  O9  1  0.176177  0.914326  0.271146  1
  O  O10  1  0.676169  0.914312  0.148349  1
  O  O11  1  0.823717  0.914323  0.271147  1
  O  O12  1  0.323714  0.914318  0.148347  1
  O  O13  1  0.808877  0.624800  0.229409  1
  O  O14  1  0.308879  0.624803  0.106616  1
  O  O15  1  0.191027  0.624803  0.229413  1
  O  O16  1  0.691027  0.624794  0.106611  1
  O  O17  1  0.808878  0.124800  0.103679  1
  O  O18  1  0.308877  0.124797  0.226473  1
  O  O19  1  0.191028  0.124806  0.103676  1
  O  O20  1  0.691026  0.124791  0.226476  1
  O  O21  1  0.191018  0.375164  0.103682  1
  O  O22  1  0.691020  0.375154  0.226476  1
  O  O23  1  0.808870  0.375159  0.103679  1
  O  O24  1  0.308870  0.375162  0.226479  1
  O  O25  1  0.191018  0.875169  0.229414  1
  O  O26  1  0.691020  0.875155  0.106619  1
  O  O27  1  0.808867  0.875162  0.229415  1
  O  O28  1  0.308869  0.875159  0.106617  1
  O  O29  1  -0.000000  0.645746  0.257836  1
  O  O30  1  0.499970  0.645738  0.135040  1
  O  O31  1  0.499966  0.145736  0.198048  1
  O  O32  1  0.499935  0.354214  0.198052  1
  O  O33  1  0.000000  0.854224  0.257841  1
  O  O34  1  0.499939  0.854212  0.135044  1
  O  O35  1  0.750859  0.672579  0.267913  1
  O  O36  1  0.250904  0.672580  0.145121  1
  O  O37  1  0.249010  0.672584  0.267917  1
  O  O38  1  0.749049  0.672570  0.145116  1
  O  O39  1  0.250897  0.172576  0.187968  1
  O  O40  1  0.749047  0.172568  0.187972  1
  O  O41  1  0.749007  0.327374  0.187971  1
  O  O42  1  0.250856  0.327383  0.187974  1
  O  O43  1  0.249027  0.827390  0.267917  1
  O  O44  1  0.749017  0.827376  0.145124  1
  O  O45  1  0.750876  0.827386  0.267920  1
  O  O46  1  0.250859  0.827382  0.145122  1
  O  O47  1  0.823372  0.663956  0.187815  1
  O  O48  1  0.176551  0.663963  0.187820  1
  O  O49  1  0.323349  0.163968  0.268064  1
  O  O50  1  0.823371  0.163957  0.145272  1
  O  O51  1  0.676529  0.163961  0.268067  1
  O  O52  1  0.176548  0.163963  0.145268  1
  O  O53  1  0.676538  0.335997  0.268069  1
  O  O54  1  0.176533  0.335998  0.145274  1
  O  O55  1  0.323359  0.336004  0.268071  1
  O  O56  1  0.823354  0.335991  0.145271  1
  O  O57  1  0.176533  0.836001  0.187823  1
  O  O58  1  0.823355  0.835992  0.187824  1
  O  O59  1  0.813812  0.749973  0.168822  1
  O  O60  1  0.186096  0.749980  0.168824  1
  O  O61  1  0.313803  0.249986  0.287065  1
  O  O62  1  0.813809  0.249972  0.164270  1
  O  O63  1  0.686087  0.249980  0.287066  1
  O  O64  1  0.186095  0.249981  0.164270  1
  O  O65  1  0.499938  0.690178  0.281391  1
  O  O66  1  -0.000000  0.690172  0.158593  1
  O  O67  1  -0.000000  0.190170  0.174496  1
  O  O68  1  -0.000000  0.309782  0.174497  1
  O  O69  1  0.499947  0.809791  0.281394  1
  O  O70  1  0.000000  0.809785  0.158600  1
  O  O71  1  0.499966  0.557378  0.177517  1
  O  O72  1  -0.000000  0.057381  0.278370  1
  O  O73  1  0.499967  0.057376  0.155570  1
  O  O74  1  -0.000000  0.442582  0.278371  1
  O  O75  1  0.499937  0.442577  0.155575  1
  O  O76  1  0.499938  0.942579  0.177520  1
  O  O77  1  0.749924  0.576959  0.190962  1
  O  O78  1  0.250019  0.576968  0.190966  1
  O  O79  1  0.249887  0.076970  0.264921  1
  O  O80  1  0.749929  0.076958  0.142126  1
  O  O81  1  0.749974  0.076963  0.264926  1
  O  O82  1  0.250019  0.076968  0.142122  1
  O  O83  1  0.750009  0.422991  0.264922  1
  O  O84  1  0.249976  0.422996  0.142130  1
  O  O85  1  0.249915  0.423001  0.264926  1
  O  O86  1  0.749886  0.422986  0.142127  1
  O  O87  1  0.249975  0.922999  0.190965  1
  O  O88  1  0.749887  0.922988  0.190967  1
  O  O89  1  0.691134  0.499973  0.166545  1
  O  O90  1  0.308768  0.499981  0.166548  1
  O  O91  1  0.691136  0.000000  0.166545  1
  O  O92  1  0.308769  -0.000000  0.166542  1
  O  O93  1  0.000000  0.603868  0.200885  1
  O  O94  1  0.499941  0.103874  0.255002  1
  O  O95  1  -0.000000  0.103872  0.132203  1
  O  O96  1  0.499957  0.396091  0.255003  1
  O  O97  1  -0.000000  0.396084  0.132208  1
  O  O98  1  -0.000000  0.896085  0.200888  1
  O  O99  1  0.823711  0.585642  0.516733  1
  O  O100  1  0.323731  0.585640  0.393940  1
  O  O101  1  0.176170  0.585646  0.516737  1
  O  O102  1  0.676195  0.585633  0.393937  1
  O  O103  1  0.823714  0.085643  0.307543  1
  O  O104  1  0.323732  0.085639  0.430335  1
  O  O105  1  0.176168  0.085647  0.307540  1
  O  O106  1  0.676191  0.085632  0.430338  1
  O  O107  1  0.176182  0.414326  0.307545  1
  O  O108  1  0.676169  0.414313  0.430340  1
  O  O109  1  0.823719  0.414322  0.307542  1
  O  O110  1  0.323710  0.414319  0.430342  1
  O  O111  1  0.176177  0.914326  0.516739  1
  O  O112  1  0.676169  0.914312  0.393943  1
  O  O113  1  0.823717  0.914323  0.516741  1
  O  O114  1  0.323714  0.914318  0.393941  1
  O  O115  1  0.808877  0.624800  0.475002  1
  O  O116  1  0.308879  0.624803  0.352209  1
  O  O117  1  0.191027  0.624803  0.475006  1
  O  O118  1  0.691027  0.624794  0.352205  1
  O  O119  1  0.808878  0.124800  0.349273  1
  O  O120  1  0.308877  0.124797  0.472066  1
  O  O121  1  0.191028  0.124806  0.349269  1
  O  O122  1  0.691026  0.124791  0.472070  1
  O  O123  1  0.191018  0.375164  0.349276  1
  O  O124  1  0.691020  0.375154  0.472070  1
  O  O125  1  0.808870  0.375159  0.349273  1
  O  O126  1  0.308870  0.375162  0.472072  1
  O  O127  1  0.191018  0.875169  0.475008  1
  O  O128  1  0.691020  0.875155  0.352212  1
  O  O129  1  0.808867  0.875162  0.475009  1
  O  O130  1  0.308869  0.875159  0.352211  1
  O  O131  1  0.000000  0.645746  0.503430  1
  O  O132  1  0.499970  0.645738  0.380634  1
  O  O133  1  0.000000  0.145748  0.320846  1
  O  O134  1  0.499966  0.145736  0.443642  1
  O  O135  1  -0.000000  0.354222  0.320848  1
  O  O136  1  0.499935  0.354214  0.443646  1
  O  O137  1  0.000000  0.854224  0.503434  1
  O  O138  1  0.499939  0.854212  0.380637  1
  O  O139  1  0.750859  0.672579  0.513507  1
  O  O140  1  0.250904  0.672580  0.390715  1
  O  O141  1  0.249010  0.672584  0.513511  1
  O  O142  1  0.749049  0.672570  0.390709  1
  O  O143  1  0.750855  0.172578  0.310768  1
  O  O144  1  0.250897  0.172576  0.433562  1
  O  O145  1  0.249011  0.172584  0.310764  1
  O  O146  1  0.749047  0.172568  0.433566  1
  O  O147  1  0.249027  0.327388  0.310771  1
  O  O148  1  0.749007  0.327374  0.433565  1
  O  O149  1  0.750882  0.327383  0.310768  1
  O  O150  1  0.250856  0.327383  0.433568  1
  O  O151  1  0.249027  0.827390  0.513511  1
  O  O152  1  0.749017  0.827376  0.390717  1
  O  O153  1  0.750876  0.827386  0.513514  1
  O  O154  1  0.250859  0.827382  0.390716  1
  O  O155  1  0.323349  0.663969  0.310616  1
  O  O156  1  0.823372  0.663956  0.433409  1
  O  O157  1  0.676532  0.663962  0.310613  1
  O  O158  1  0.176551  0.663963  0.433413  1
  O  O159  1  0.323349  0.163968  0.513658  1
  O  O160  1  0.823371  0.163957  0.390866  1
  O  O161  1  0.676529  0.163961  0.513661  1
  O  O162  1  0.176548  0.163963  0.390862  1
  O  O163  1  0.676538  0.335997  0.513663  1
  O  O164  1  0.176533  0.335998  0.390868  1
  O  O165  1  0.323359  0.336004  0.513665  1
  O  O166  1  0.823354  0.335991  0.390865  1
  O  O167  1  0.676534  0.835997  0.310619  1
  O  O168  1  0.176533  0.836001  0.433417  1
  O  O169  1  0.323357  0.836003  0.310618  1
  O  O170  1  0.823355  0.835992  0.433418  1
  O  O171  1  0.313799  0.749986  0.291619  1
  O  O172  1  0.813812  0.749973  0.414415  1
  O  O173  1  0.686085  0.749981  0.291618  1
  O  O174  1  0.186096  0.749980  0.414418  1
  O  O175  1  0.313803  0.249986  0.532659  1
  O  O176  1  0.813809  0.249972  0.409864  1
  O  O177  1  0.686087  0.249980  0.532660  1
  O  O178  1  0.186095  0.249981  0.409863  1
  O  O179  1  0.499938  0.690178  0.526984  1
  O  O180  1  0.000000  0.690172  0.404187  1
  O  O181  1  0.499937  0.190176  0.297290  1
  O  O182  1  -0.000000  0.190170  0.420089  1
  O  O183  1  0.499951  0.309788  0.297295  1
  O  O184  1  -0.000000  0.309782  0.420091  1
  O  O185  1  0.499947  0.809791  0.526988  1
  O  O186  1  0.000000  0.809785  0.404193  1
  O  O187  1  -0.000000  0.557383  0.300313  1
  O  O188  1  0.499966  0.557378  0.423111  1
  O  O189  1  0.000000  0.057381  0.523963  1
  O  O190  1  0.499967  0.057376  0.401164  1
  O  O191  1  -0.000000  0.442582  0.523965  1
  O  O192  1  0.499937  0.442577  0.401168  1
  O  O193  1  -0.000000  0.942584  0.300319  1
  O  O194  1  0.499938  0.942579  0.423113  1
  O  O195  1  0.249882  0.576973  0.313762  1
  O  O196  1  0.749924  0.576959  0.436556  1
  O  O197  1  0.749973  0.576964  0.313757  1
  O  O198  1  0.250019  0.576968  0.436560  1
  O  O199  1  0.249887  0.076970  0.510515  1
  O  O200  1  0.749929  0.076958  0.387720  1
  O  O201  1  0.749974  0.076963  0.510519  1
  O  O202  1  0.250019  0.076968  0.387716  1
  O  O203  1  0.750009  0.422991  0.510516  1
  O  O204  1  0.249976  0.422996  0.387724  1
  O  O205  1  0.249915  0.423001  0.510520  1
  O  O206  1  0.749886  0.422986  0.387721  1
  O  O207  1  0.749999  0.922993  0.313766  1
  O  O208  1  0.249975  0.922999  0.436558  1
  O  O209  1  0.249908  0.923000  0.313764  1
  O  O210  1  0.749887  0.922988  0.436561  1
  O  O211  1  0.191128  0.499986  0.289344  1
  O  O212  1  0.691134  0.499973  0.412139  1
  O  O213  1  0.808762  0.499980  0.289339  1
  O  O214  1  0.308768  0.499981  0.412141  1
  O  O215  1  0.191127  0.000000  0.289344  1
  O  O216  1  0.691136  -0.000000  0.412139  1
  O  O217  1  0.808760  0.000000  0.289347  1
  O  O218  1  0.308769  -0.000000  0.412136  1
  O  O219  1  0.499937  0.603874  0.323680  1
  O  O220  1  0.000000  0.603868  0.446479  1
  O  O221  1  0.499941  0.103874  0.500596  1
  O  O222  1  -0.000000  0.103872  0.377797  1
  O  O223  1  0.499957  0.396091  0.500597  1
  O  O224  1  0.000000  0.396084  0.377802  1
  O  O225  1  0.499946  0.896088  0.323686  1
  O  O226  1  0.000000  0.896085  0.446481  1
  O  O227  1  0.323731  0.585640  0.639534  1
  O  O228  1  0.676195  0.585633  0.639530  1
  O  O229  1  0.823714  0.085643  0.553136  1
  O  O230  1  0.323732  0.085639  0.675929  1
  O  O231  1  0.176168  0.085647  0.553133  1
  O  O232  1  0.676191  0.085632  0.675932  1
  O  O233  1  0.176182  0.414326  0.553138  1
  O  O234  1  0.676169  0.414313  0.675933  1
  O  O235  1  0.823719  0.414322  0.553136  1
  O  O236  1  0.323710  0.414319  0.675936  1
  O  O237  1  0.676169  0.914312  0.639536  1
  O  O238  1  0.323714  0.914318  0.639535  1
  O  O239  1  0.808877  0.624800  0.720596  1
  O  O240  1  0.308879  0.624803  0.597803  1
  O  O241  1  0.191027  0.624803  0.720600  1
  O  O242  1  0.691027  0.624794  0.597799  1
  O  O243  1  0.808878  0.124800  0.594867  1
  O  O244  1  0.308877  0.124797  0.717660  1
  O  O245  1  0.191028  0.124806  0.594863  1
  O  O246  1  0.691026  0.124791  0.717664  1
  O  O247  1  0.191018  0.375164  0.594869  1
  O  O248  1  0.691020  0.375154  0.717664  1
  O  O249  1  0.808870  0.375159  0.594867  1
  O  O250  1  0.308870  0.375162  0.717666  1
  O  O251  1  0.191018  0.875169  0.720601  1
  O  O252  1  0.691020  0.875155  0.597806  1
  O  O253  1  0.808867  0.875162  0.720603  1
  O  O254  1  0.308869  0.875159  0.597804  1
  O  O255  1  0.499970  0.645738  0.626227  1
  O  O256  1  -0.000000  0.145748  0.566439  1
  O  O257  1  0.499966  0.145736  0.689236  1
  O  O258  1  0.000000  0.354222  0.566441  1
  O  O259  1  0.499935  0.354214  0.689239  1
  O  O260  1  0.499939  0.854212  0.626231  1
  O  O261  1  0.250904  0.672580  0.636308  1
  O  O262  1  0.749049  0.672570  0.636303  1
  O  O263  1  0.750855  0.172578  0.556362  1
  O  O264  1  0.250897  0.172576  0.679155  1
  O  O265  1  0.249011  0.172584  0.556358  1
  O  O266  1  0.749047  0.172568  0.679160  1
  O  O267  1  0.249027  0.327388  0.556365  1
  O  O268  1  0.749007  0.327374  0.679159  1
  O  O269  1  0.750882  0.327383  0.556362  1
  O  O270  1  0.250856  0.327383  0.679162  1
  O  O271  1  0.749017  0.827376  0.636311  1
  O  O272  1  0.250859  0.827382  0.636309  1
  O  O273  1  0.323349  0.663969  0.556210  1
  O  O274  1  0.823372  0.663956  0.679003  1
  O  O275  1  0.676532  0.663962  0.556207  1
  O  O276  1  0.176551  0.663963  0.679007  1
  O  O277  1  0.823371  0.163957  0.636460  1
  O  O278  1  0.176548  0.163963  0.636456  1
  O  O279  1  0.176533  0.335998  0.636462  1
  O  O280  1  0.823354  0.335991  0.636459  1
  O  O281  1  0.676534  0.835997  0.556213  1
  O  O282  1  0.176533  0.836001  0.679010  1
  O  O283  1  0.323357  0.836003  0.556212  1
  O  O284  1  0.823355  0.835992  0.679012  1
  O  O285  1  0.313799  0.749986  0.537212  1
  O  O286  1  0.813812  0.749973  0.660009  1
  O  O287  1  0.686085  0.749981  0.537212  1
  O  O288  1  0.186096  0.749980  0.660011  1
  O  O289  1  0.813809  0.249972  0.655458  1
  O  O290  1  0.186095  0.249981  0.655457  1
  O  O291  1  0.000000  0.690172  0.649781  1
  O  O292  1  0.499937  0.190176  0.542884  1
  O  O293  1  0.000000  0.190170  0.665683  1
  O  O294  1  0.499951  0.309788  0.542889  1
  O  O295  1  0.000000  0.309782  0.665685  1
  O  O296  1  0.000000  0.809785  0.649787  1
  O  O297  1  -0.000000  0.557383  0.545907  1
  O  O298  1  0.499966  0.557378  0.668704  1
  O  O299  1  0.499967  0.057376  0.646757  1
  O  O300  1  0.499937  0.442577  0.646762  1
  O  O301  1  -0.000000  0.942584  0.545913  1
  O  O302  1  0.499938  0.942579  0.668707  1
  O  O303  1  0.249882  0.576973  0.559356  1
  O  O304  1  0.749924  0.576959  0.682149  1
  O  O305  1  0.749973  0.576964  0.559350  1
  O  O306  1  0.250019  0.576968  0.682153  1
  O  O307  1  0.749929  0.076958  0.633314  1
  O  O308  1  0.250019  0.076968  0.633309  1
  O  O309  1  0.249976  0.422996  0.633317  1
  O  O310  1  0.749886  0.422986  0.633314  1
  O  O311  1  0.749999  0.922993  0.559360  1
  O  O312  1  0.249975  0.922999  0.682152  1
  O  O313  1  0.249908  0.923000  0.559358  1
  O  O314  1  0.749887  0.922988  0.682155  1
  O  O315  1  0.191128  0.499986  0.534937  1
  O  O316  1  0.691134  0.499973  0.657733  1
  O  O317  1  0.808762  0.499980  0.534932  1
  O  O318  1  0.308768  0.499981  0.657735  1
  O  O319  1  0.191127  -0.000000  0.534938  1
  O  O320  1  0.691136  0.000000  0.657733  1
  O  O321  1  0.808760  0.000000  0.534941  1
  O  O322  1  0.308769  0.000000  0.657730  1
  O  O323  1  0.499937  0.603874  0.569274  1
  O  O324  1  0.000000  0.603868  0.692072  1
  O  O325  1  0.000000  0.103872  0.623391  1
  O  O326  1  -0.000000  0.396084  0.623395  1
  O  O327  1  0.499946  0.896088  0.569280  1
  O  O328  1  -0.000000  0.896085  0.692075  1
  Si  Si329  1  0.842656  0.632830  0.256207  1
  Si  Si330  1  0.342682  0.632827  0.133414  1
  Si  Si331  1  0.157225  0.632832  0.256210  1
  Si  Si332  1  0.657251  0.632820  0.133410  1
  Si  Si333  1  0.342680  0.132824  0.199675  1
  Si  Si334  1  0.657248  0.132818  0.199678  1
  Si  Si335  1  0.657222  0.367126  0.199678  1
  Si  Si336  1  0.342653  0.367133  0.199680  1
  Si  Si337  1  0.157232  0.867141  0.256212  1
  Si  Si338  1  0.657225  0.867126  0.133417  1
  Si  Si339  1  0.842663  0.867137  0.256214  1
  Si  Si340  1  0.342657  0.867131  0.133415  1
  Si  Si341  1  0.342700  0.694986  0.287610  1
  Si  Si342  1  0.842727  0.694975  0.164810  1
  Si  Si343  1  0.657179  0.694982  0.287608  1
  Si  Si344  1  0.157205  0.694981  0.164814  1
  Si  Si345  1  0.842726  0.194974  0.168278  1
  Si  Si346  1  0.157203  0.194980  0.168276  1
  Si  Si347  1  0.157179  0.304979  0.168280  1
  Si  Si348  1  0.842701  0.304972  0.168278  1
  Si  Si349  1  0.657185  0.804981  0.287612  1
  Si  Si350  1  0.157183  0.804979  0.164817  1
  Si  Si351  1  0.342707  0.804985  0.287611  1
  Si  Si352  1  0.842705  0.804974  0.164817  1
  Si  Si353  1  0.657337  0.554240  0.171214  1
  Si  Si354  1  0.342591  0.554246  0.171217  1
  Si  Si355  1  0.157311  0.054249  0.284670  1
  Si  Si356  1  0.657337  0.054239  0.161873  1
  Si  Si357  1  0.842565  0.054246  0.284673  1
  Si  Si358  1  0.342592  0.054245  0.161870  1
  Si  Si359  1  0.842581  0.445715  0.284671  1
  Si  Si360  1  0.342566  0.445714  0.161877  1
  Si  Si361  1  0.157327  0.445720  0.284674  1
  Si  Si362  1  0.657312  0.445708  0.161875  1
  Si  Si363  1  0.342567  0.945715  0.171217  1
  Si  Si364  1  0.657312  0.945709  0.171219  1
  Si  Si365  1  0.157414  0.616540  0.202630  1
  Si  Si366  1  0.842513  0.616535  0.202627  1
  Si  Si367  1  0.657389  0.116538  0.253258  1
  Si  Si368  1  0.157416  0.116542  0.130458  1
  Si  Si369  1  0.342488  0.116542  0.253255  1
  Si  Si370  1  0.842515  0.116536  0.130461  1
  Si  Si371  1  0.342503  0.383425  0.253260  1
  Si  Si372  1  0.842487  0.383414  0.130462  1
  Si  Si373  1  0.657403  0.383418  0.253258  1
  Si  Si374  1  0.157388  0.383421  0.130464  1
  Si  Si375  1  0.842487  0.883416  0.202633  1
  Si  Si376  1  0.157389  0.883424  0.202632  1
  Si  Si377  1  0.842656  0.632830  0.501801  1
  Si  Si378  1  0.342682  0.632827  0.379007  1
  Si  Si379  1  0.157225  0.632832  0.501804  1
  Si  Si380  1  0.657251  0.632820  0.379004  1
  Si  Si381  1  0.842656  0.132830  0.322475  1
  Si  Si382  1  0.342680  0.132824  0.445269  1
  Si  Si383  1  0.157225  0.132834  0.322472  1
  Si  Si384  1  0.657248  0.132818  0.445271  1
  Si  Si385  1  0.157235  0.367138  0.322477  1
  Si  Si386  1  0.657222  0.367126  0.445272  1
  Si  Si387  1  0.842666  0.367135  0.322475  1
  Si  Si388  1  0.342653  0.367133  0.445274  1
  Si  Si389  1  0.157232  0.867141  0.501806  1
  Si  Si390  1  0.657225  0.867126  0.379010  1
  Si  Si391  1  0.842663  0.867137  0.501807  1
  Si  Si392  1  0.342657  0.867131  0.379009  1
  Si  Si393  1  0.342700  0.694986  0.533204  1
  Si  Si394  1  0.842727  0.694975  0.410404  1
  Si  Si395  1  0.657179  0.694982  0.533202  1
  Si  Si396  1  0.157205  0.694981  0.410407  1
  Si  Si397  1  0.342700  0.194986  0.291071  1
  Si  Si398  1  0.842726  0.194974  0.413872  1
  Si  Si399  1  0.657178  0.194981  0.291073  1
  Si  Si400  1  0.157203  0.194980  0.413870  1
  Si  Si401  1  0.657189  0.304980  0.291076  1
  Si  Si402  1  0.157179  0.304979  0.413874  1
  Si  Si403  1  0.342711  0.304984  0.291077  1
  Si  Si404  1  0.842701  0.304972  0.413872  1
  Si  Si405  1  0.657185  0.804981  0.533206  1
  Si  Si406  1  0.157183  0.804979  0.410411  1
  Si  Si407  1  0.342707  0.804985  0.533205  1
  Si  Si408  1  0.842705  0.804974  0.410411  1
  Si  Si409  1  0.157309  0.554251  0.294013  1
  Si  Si410  1  0.657337  0.554240  0.416808  1
  Si  Si411  1  0.842564  0.554246  0.294009  1
  Si  Si412  1  0.342591  0.554246  0.416811  1
  Si  Si413  1  0.157311  0.054249  0.530264  1
  Si  Si414  1  0.657337  0.054239  0.407467  1
  Si  Si415  1  0.842565  0.054246  0.530267  1
  Si  Si416  1  0.342592  0.054245  0.407464  1
  Si  Si417  1  0.842581  0.445715  0.530264  1
  Si  Si418  1  0.342566  0.445714  0.407471  1
  Si  Si419  1  0.157327  0.445720  0.530267  1
  Si  Si420  1  0.657312  0.445708  0.407469  1
  Si  Si421  1  0.842576  0.945716  0.294018  1
  Si  Si422  1  0.342567  0.945715  0.416811  1
  Si  Si423  1  0.157321  0.945720  0.294017  1
  Si  Si424  1  0.657312  0.945709  0.416813  1
  Si  Si425  1  0.657388  0.616539  0.325423  1
  Si  Si426  1  0.157414  0.616540  0.448224  1
  Si  Si427  1  0.342488  0.616546  0.325427  1
  Si  Si428  1  0.842513  0.616535  0.448221  1
  Si  Si429  1  0.657389  0.116538  0.498852  1
  Si  Si430  1  0.157416  0.116542  0.376052  1
  Si  Si431  1  0.342488  0.116542  0.498849  1
  Si  Si432  1  0.842515  0.116536  0.376055  1
  Si  Si433  1  0.342503  0.383425  0.498854  1
  Si  Si434  1  0.842487  0.383414  0.376056  1
  Si  Si435  1  0.657403  0.383418  0.498852  1
  Si  Si436  1  0.157388  0.383421  0.376057  1
  Si  Si437  1  0.342498  0.883423  0.325429  1
  Si  Si438  1  0.842487  0.883416  0.448227  1
  Si  Si439  1  0.657399  0.883419  0.325431  1
  Si  Si440  1  0.157389  0.883424  0.448225  1
  Si  Si441  1  0.342682  0.632827  0.624601  1
  Si  Si442  1  0.657251  0.632820  0.624598  1
  Si  Si443  1  0.842656  0.132830  0.568069  1
  Si  Si444  1  0.342680  0.132824  0.690862  1
  Si  Si445  1  0.157225  0.132834  0.568066  1
  Si  Si446  1  0.657248  0.132818  0.690865  1
  Si  Si447  1  0.157235  0.367138  0.568071  1
  Si  Si448  1  0.657222  0.367126  0.690866  1
  Si  Si449  1  0.842666  0.367135  0.568069  1
  Si  Si450  1  0.342653  0.367133  0.690868  1
  Si  Si451  1  0.657225  0.867126  0.624604  1
  Si  Si452  1  0.342657  0.867131  0.624602  1
  Si  Si453  1  0.842727  0.694975  0.655997  1
  Si  Si454  1  0.157205  0.694981  0.656001  1
  Si  Si455  1  0.342700  0.194986  0.536664  1
  Si  Si456  1  0.842726  0.194974  0.659466  1
  Si  Si457  1  0.657178  0.194981  0.536667  1
  Si  Si458  1  0.157203  0.194980  0.659463  1
  Si  Si459  1  0.657189  0.304980  0.536669  1
  Si  Si460  1  0.157179  0.304979  0.659467  1
  Si  Si461  1  0.342711  0.304984  0.536670  1
  Si  Si462  1  0.842701  0.304972  0.659466  1
  Si  Si463  1  0.157183  0.804979  0.656004  1
  Si  Si464  1  0.842705  0.804974  0.656005  1
  Si  Si465  1  0.157309  0.554251  0.539607  1
  Si  Si466  1  0.657337  0.554240  0.662402  1
  Si  Si467  1  0.842564  0.554246  0.539603  1
  Si  Si468  1  0.342591  0.554246  0.662405  1
  Si  Si469  1  0.657337  0.054239  0.653061  1
  Si  Si470  1  0.342592  0.054245  0.653058  1
  Si  Si471  1  0.342566  0.445714  0.653065  1
  Si  Si472  1  0.657312  0.445708  0.653063  1
  Si  Si473  1  0.842576  0.945716  0.539612  1
  Si  Si474  1  0.342567  0.945715  0.662404  1
  Si  Si475  1  0.157321  0.945720  0.539610  1
  Si  Si476  1  0.657312  0.945709  0.662406  1
  Si  Si477  1  0.657388  0.616539  0.571017  1
  Si  Si478  1  0.157414  0.616540  0.693818  1
  Si  Si479  1  0.342488  0.616546  0.571020  1
  Si  Si480  1  0.842513  0.616535  0.693815  1
  Si  Si481  1  0.157416  0.116542  0.621646  1
  Si  Si482  1  0.842515  0.116536  0.621648  1
  Si  Si483  1  0.842487  0.383414  0.621649  1
  Si  Si484  1  0.157388  0.383421  0.621651  1
  Si  Si485  1  0.342498  0.883423  0.571023  1
  Si  Si486  1  0.842487  0.883416  0.693820  1
  Si  Si487  1  0.657399  0.883419  0.571024  1
  Si  Si488  1  0.157389  0.883424  0.693819  1
  H  H489  1  0.308879  0.624803  0.090801  1
  H  H490  1  0.691027  0.624794  0.090797  1
  H  H491  1  0.808878  0.124800  0.087864  1
  H  H492  1  0.191028  0.124806  0.087861  1
  H  H493  1  0.191018  0.375164  0.087867  1
  H  H494  1  0.808870  0.375159  0.087864  1
  H  H495  1  0.691020  0.875155  0.090804  1
  H  H496  1  0.308869  0.875159  0.090802  1
  H  H497  1  0.808877  0.624800  0.736411  1
  H  H498  1  0.191027  0.624803  0.736415  1
  H  H499  1  0.308877  0.124797  0.733475  1
  H  H500  1  0.691026  0.124791  0.733479  1
  H  H501  1  0.691020  0.375154  0.733479  1
  H  H502  1  0.308870  0.375162  0.733481  1
  H  H503  1  0.191018  0.875169  0.736416  1
  H  H504  1  0.808867  0.875162  0.736418  1
