# generated using pymatgen
data_Si64H10O133
_symmetry_space_group_name_H-M   'P 1'
_cell_length_a   25.24803673
_cell_length_b   12.87887348
_cell_length_c   41.92308108
_cell_angle_alpha   90.00000000
_cell_angle_beta   90.00000000
_cell_angle_gamma   90.00000000
_symmetry_Int_Tables_number   1
_chemical_formula_structural   Si64H10O133
_chemical_formula_sum   'Si128 H20 O266'
_cell_volume   13631.9719294
_cell_formula_units_Z   2
loop_
 _symmetry_equiv_pos_site_id
 _symmetry_equiv_pos_as_xyz
  1  'x, y, z'
loop_
 _atom_site_type_symbol
 _atom_site_label
 _atom_site_symmetry_multiplicity
 _atom_site_fract_x
 _atom_site_fract_y
 _atom_site_fract_z
 _atom_site_occupancy
  O  O1  1  0.836090  0.593037  0.200431  1
  O  O2  1  0.926214  0.632451  0.178519  1
  O  O3  1  0.844437  0.612967  0.140795  1
  O  O4  1  0.854193  0.771281  0.179120  1
  O  O5  1  0.800128  0.942378  0.178836  1
  O  O6  1  0.699821  0.942348  0.178846  1
  O  O7  1  0.899666  0.946731  0.188617  1
  O  O8  1  0.000000  0.000000  0.185913  1
  O  O9  1  0.925662  0.139798  0.177278  1
  O  O10  1  0.974330  0.312862  0.179264  1
  O  O11  1  0.881370  0.299053  0.200540  1
  O  O12  1  0.892907  0.289484  0.140736  1
  O  O13  1  0.749963  0.069621  0.140805  1
  O  O14  1  0.749971  0.094964  0.200475  1
  O  O15  1  -0.000000  0.499967  0.189810  1
  O  O16  1  0.663863  0.593058  0.200432  1
  O  O17  1  0.573731  0.632400  0.178517  1
  O  O18  1  0.655514  0.612971  0.140795  1
  O  O19  1  0.645733  0.771279  0.179122  1
  O  O20  1  0.600282  0.946744  0.188614  1
  O  O21  1  0.425663  0.860101  0.177281  1
  O  O22  1  0.474346  0.687056  0.179262  1
  O  O23  1  0.381392  0.700824  0.200546  1
  O  O24  1  0.392916  0.710412  0.140737  1
  O  O25  1  0.499975  0.000000  0.185913  1
  O  O26  1  0.336080  0.406864  0.200431  1
  O  O27  1  0.426203  0.367477  0.178516  1
  O  O28  1  0.344424  0.386932  0.140795  1
  O  O29  1  0.354195  0.228622  0.179124  1
  O  O30  1  0.399666  0.053166  0.188615  1
  O  O31  1  0.574288  0.139807  0.177280  1
  O  O32  1  0.525588  0.312837  0.179256  1
  O  O33  1  0.618539  0.299106  0.200543  1
  O  O34  1  0.607026  0.289497  0.140734  1
  O  O35  1  0.499965  0.499942  0.189807  1
  O  O36  1  0.074289  0.860114  0.177283  1
  O  O37  1  0.025602  0.687070  0.179262  1
  O  O38  1  0.118554  0.700837  0.200547  1
  O  O39  1  0.107033  0.710429  0.140739  1
  O  O40  1  0.249970  0.930293  0.140810  1
  O  O41  1  0.249961  0.904956  0.200479  1
  O  O42  1  0.163841  0.406888  0.200432  1
  O  O43  1  0.073718  0.367488  0.178517  1
  O  O44  1  0.155502  0.386949  0.140796  1
  O  O45  1  0.145738  0.228648  0.179126  1
  O  O46  1  0.199821  0.057570  0.178845  1
  O  O47  1  0.300128  0.057534  0.178847  1
  O  O48  1  0.100282  0.053182  0.188615  1
  O  O49  1  0.836090  0.593037  0.500537  1
  O  O50  1  0.836100  0.593038  0.260932  1
  O  O51  1  0.926214  0.632451  0.478624  1
  O  O52  1  0.926214  0.632475  0.282848  1
  O  O53  1  0.844437  0.612967  0.440900  1
  O  O54  1  0.844434  0.612987  0.320568  1
  O  O55  1  0.854193  0.771281  0.479225  1
  O  O56  1  0.854182  0.771297  0.282236  1
  O  O57  1  0.800128  0.942378  0.478942  1
  O  O58  1  0.699821  0.942348  0.478951  1
  O  O59  1  0.800128  0.942412  0.282509  1
  O  O60  1  0.699822  0.942333  0.282519  1
  O  O61  1  0.839201  0.872344  0.230677  1
  O  O62  1  0.899666  0.946731  0.488722  1
  O  O63  1  0.899664  0.946738  0.272750  1
  O  O64  1  0.749976  0.562682  0.230687  1
  O  O65  1  0.978180  0.636242  0.230684  1
  O  O66  1  0.749976  0.556462  0.423844  1
  O  O67  1  0.749974  0.556469  0.337624  1
  O  O68  1  0.820057  0.564927  0.380733  1
  O  O69  1  0.679893  0.564929  0.380735  1
  O  O70  1  0.000000  0.000000  0.486018  1
  O  O71  1  0.000000  -0.000000  0.275449  1
  O  O72  1  0.925662  0.139798  0.477383  1
  O  O73  1  0.925659  0.139807  0.284080  1
  O  O74  1  0.974330  0.312862  0.479369  1
  O  O75  1  0.974336  0.312860  0.282102  1
  O  O76  1  0.881370  0.299053  0.500645  1
  O  O77  1  0.881382  0.299070  0.260818  1
  O  O78  1  0.892907  0.289484  0.440841  1
  O  O79  1  0.892905  0.289490  0.320624  1
  O  O80  1  0.859539  0.306133  0.380732  1
  O  O81  1  0.824791  0.426605  0.423423  1
  O  O82  1  0.675156  0.426608  0.423425  1
  O  O83  1  0.824792  0.426616  0.338042  1
  O  O84  1  0.675154  0.426617  0.338044  1
  O  O85  1  0.799576  0.235251  0.423800  1
  O  O86  1  0.700355  0.235249  0.423800  1
  O  O87  1  0.799574  0.235262  0.337663  1
  O  O88  1  0.700355  0.235260  0.337665  1
  O  O89  1  0.822777  0.425461  0.230681  1
  O  O90  1  0.677161  0.425479  0.230680  1
  O  O91  1  0.800849  0.232349  0.230687  1
  O  O92  1  0.699076  0.232367  0.230663  1
  O  O93  1  0.749963  0.069621  0.440910  1
  O  O94  1  0.749962  0.069634  0.320549  1
  O  O95  1  0.749971  0.094964  0.500580  1
  O  O96  1  0.749935  0.094970  0.260879  1
  O  O97  1  0.941064  0.057288  0.230681  1
  O  O98  1  0.749967  0.137373  0.380730  1
  O  O99  1  0.000000  0.499968  0.271559  1
  O  O100  1  0.000000  0.499967  0.489915  1
  O  O101  1  0.663863  0.593058  0.500537  1
  O  O102  1  0.663853  0.593046  0.260934  1
  O  O103  1  0.573731  0.632400  0.478623  1
  O  O104  1  0.573724  0.632396  0.282849  1
  O  O105  1  0.655514  0.612971  0.440901  1
  O  O106  1  0.655509  0.612975  0.320570  1
  O  O107  1  0.645733  0.771279  0.479227  1
  O  O108  1  0.645725  0.771275  0.282240  1
  O  O109  1  0.600282  0.946744  0.488720  1
  O  O110  1  0.600282  0.946740  0.272749  1
  O  O111  1  0.425664  0.860104  0.284084  1
  O  O112  1  0.425663  0.860101  0.477386  1
  O  O113  1  0.474339  0.687050  0.282099  1
  O  O114  1  0.474346  0.687056  0.479367  1
  O  O115  1  0.381377  0.700842  0.260822  1
  O  O116  1  0.381392  0.700824  0.500651  1
  O  O117  1  0.392913  0.710415  0.320626  1
  O  O118  1  0.392916  0.710412  0.440842  1
  O  O119  1  0.359548  0.693771  0.380735  1
  O  O120  1  0.660730  0.872322  0.230681  1
  O  O121  1  0.521766  0.636203  0.230681  1
  O  O122  1  0.499975  -0.000000  0.275451  1
  O  O123  1  0.441070  0.942617  0.230683  1
  O  O124  1  0.499975  -0.000000  0.486018  1
  O  O125  1  0.336084  0.406860  0.260932  1
  O  O126  1  0.336080  0.406864  0.500536  1
  O  O127  1  0.426207  0.367455  0.282846  1
  O  O128  1  0.426203  0.367477  0.478621  1
  O  O129  1  0.344428  0.386935  0.320568  1
  O  O130  1  0.344424  0.386932  0.440900  1
  O  O131  1  0.354191  0.228619  0.282241  1
  O  O132  1  0.354195  0.228622  0.479229  1
  O  O133  1  0.399663  0.053165  0.272750  1
  O  O134  1  0.399666  0.053166  0.488720  1
  O  O135  1  0.574288  0.139807  0.477385  1
  O  O136  1  0.574288  0.139804  0.284083  1
  O  O137  1  0.525588  0.312837  0.479361  1
  O  O138  1  0.525599  0.312843  0.282098  1
  O  O139  1  0.618539  0.299106  0.500648  1
  O  O140  1  0.618561  0.299074  0.260819  1
  O  O141  1  0.607026  0.289497  0.440839  1
  O  O142  1  0.607029  0.289507  0.320624  1
  O  O143  1  0.640394  0.306148  0.380733  1
  O  O144  1  0.478169  0.363667  0.230679  1
  O  O145  1  0.558878  0.057300  0.230682  1
  O  O146  1  0.339212  0.127565  0.230682  1
  O  O147  1  0.499958  0.499939  0.271554  1
  O  O148  1  0.499965  0.499942  0.489912  1
  O  O149  1  0.074284  0.860123  0.284086  1
  O  O150  1  0.074289  0.860114  0.477388  1
  O  O151  1  0.025603  0.687069  0.282104  1
  O  O152  1  0.025602  0.687070  0.479367  1
  O  O153  1  0.118559  0.700854  0.260825  1
  O  O154  1  0.118554  0.700837  0.500652  1
  O  O155  1  0.107033  0.710435  0.320629  1
  O  O156  1  0.107033  0.710429  0.440844  1
  O  O157  1  0.140400  0.693784  0.380736  1
  O  O158  1  0.175148  0.573307  0.338045  1
  O  O159  1  0.324792  0.573303  0.338044  1
  O  O160  1  0.175152  0.573307  0.423426  1
  O  O161  1  0.324788  0.573304  0.423426  1
  O  O162  1  0.200366  0.764655  0.337668  1
  O  O163  1  0.299586  0.764660  0.337668  1
  O  O164  1  0.200367  0.764659  0.423804  1
  O  O165  1  0.299588  0.764666  0.423804  1
  O  O166  1  0.177161  0.574449  0.230687  1
  O  O167  1  0.322777  0.574439  0.230683  1
  O  O168  1  0.199085  0.767555  0.230681  1
  O  O169  1  0.300858  0.767556  0.230674  1
  O  O170  1  0.249971  0.930282  0.320554  1
  O  O171  1  0.249970  0.930293  0.440915  1
  O  O172  1  0.249973  0.904935  0.260885  1
  O  O173  1  0.249961  0.904956  0.500585  1
  O  O174  1  0.058879  0.942624  0.230682  1
  O  O175  1  0.249975  0.862541  0.380735  1
  O  O176  1  0.163846  0.406872  0.260934  1
  O  O177  1  0.163841  0.406888  0.500537  1
  O  O178  1  0.073723  0.367484  0.282848  1
  O  O179  1  0.073718  0.367488  0.478622  1
  O  O180  1  0.155504  0.386947  0.320570  1
  O  O181  1  0.155502  0.386949  0.440901  1
  O  O182  1  0.145744  0.228636  0.282243  1
  O  O183  1  0.145738  0.228648  0.479231  1
  O  O184  1  0.199818  0.057541  0.282517  1
  O  O185  1  0.300125  0.057530  0.282517  1
  O  O186  1  0.199821  0.057570  0.478950  1
  O  O187  1  0.300128  0.057534  0.478952  1
  O  O188  1  0.160735  0.127590  0.230682  1
  O  O189  1  0.100280  0.053188  0.272749  1
  O  O190  1  0.100282  0.053182  0.488720  1
  O  O191  1  0.249965  0.437233  0.230683  1
  O  O192  1  0.021757  0.363701  0.230683  1
  O  O193  1  0.249968  0.443459  0.337624  1
  O  O194  1  0.249967  0.443451  0.423844  1
  O  O195  1  0.179886  0.434989  0.380735  1
  O  O196  1  0.320049  0.434989  0.380734  1
  O  O197  1  0.836100  0.593038  0.561037  1
  O  O198  1  0.926214  0.632475  0.582953  1
  O  O199  1  0.844434  0.612987  0.620673  1
  O  O200  1  0.854182  0.771297  0.582341  1
  O  O201  1  0.800128  0.942412  0.582614  1
  O  O202  1  0.699822  0.942333  0.582624  1
  O  O203  1  0.839201  0.872344  0.530782  1
  O  O204  1  0.899664  0.946738  0.572855  1
  O  O205  1  0.749976  0.562682  0.530792  1
  O  O206  1  0.978180  0.636242  0.530789  1
  O  O207  1  0.000000  0.000000  0.575554  1
  O  O208  1  0.925659  0.139807  0.584185  1
  O  O209  1  0.974336  0.312860  0.582207  1
  O  O210  1  0.881382  0.299070  0.560923  1
  O  O211  1  0.892905  0.289490  0.620729  1
  O  O212  1  0.822777  0.425461  0.530786  1
  O  O213  1  0.677161  0.425479  0.530785  1
  O  O214  1  0.800849  0.232349  0.530792  1
  O  O215  1  0.699076  0.232367  0.530768  1
  O  O216  1  0.749962  0.069634  0.620654  1
  O  O217  1  0.749935  0.094970  0.560985  1
  O  O218  1  0.941064  0.057288  0.530786  1
  O  O219  1  0.000000  0.499968  0.571664  1
  O  O220  1  0.663853  0.593046  0.561039  1
  O  O221  1  0.573724  0.632396  0.582954  1
  O  O222  1  0.655509  0.612975  0.620675  1
  O  O223  1  0.645725  0.771275  0.582345  1
  O  O224  1  0.600282  0.946740  0.572854  1
  O  O225  1  0.425664  0.860104  0.584189  1
  O  O226  1  0.474339  0.687050  0.582204  1
  O  O227  1  0.381377  0.700842  0.560928  1
  O  O228  1  0.392913  0.710415  0.620731  1
  O  O229  1  0.660730  0.872322  0.530786  1
  O  O230  1  0.521766  0.636203  0.530786  1
  O  O231  1  0.499975  0.000000  0.575556  1
  O  O232  1  0.441070  0.942617  0.530788  1
  O  O233  1  0.336084  0.406860  0.561037  1
  O  O234  1  0.426207  0.367455  0.582951  1
  O  O235  1  0.344428  0.386935  0.620673  1
  O  O236  1  0.354191  0.228619  0.582346  1
  O  O237  1  0.399663  0.053165  0.572855  1
  O  O238  1  0.574288  0.139804  0.584188  1
  O  O239  1  0.525599  0.312843  0.582203  1
  O  O240  1  0.618561  0.299074  0.560925  1
  O  O241  1  0.607029  0.289507  0.620729  1
  O  O242  1  0.478169  0.363667  0.530784  1
  O  O243  1  0.558878  0.057300  0.530787  1
  O  O244  1  0.339212  0.127565  0.530787  1
  O  O245  1  0.499958  0.499939  0.571659  1
  O  O246  1  0.074284  0.860123  0.584191  1
  O  O247  1  0.025603  0.687069  0.582209  1
  O  O248  1  0.118559  0.700854  0.560930  1
  O  O249  1  0.107033  0.710435  0.620734  1
  O  O250  1  0.177161  0.574449  0.530792  1
  O  O251  1  0.322777  0.574439  0.530788  1
  O  O252  1  0.199085  0.767555  0.530786  1
  O  O253  1  0.300858  0.767556  0.530779  1
  O  O254  1  0.249971  0.930282  0.620659  1
  O  O255  1  0.249973  0.904935  0.560990  1
  O  O256  1  0.058879  0.942624  0.530787  1
  O  O257  1  0.163846  0.406872  0.561039  1
  O  O258  1  0.073723  0.367484  0.582953  1
  O  O259  1  0.155504  0.386947  0.620675  1
  O  O260  1  0.145744  0.228636  0.582348  1
  O  O261  1  0.199818  0.057541  0.582622  1
  O  O262  1  0.300125  0.057530  0.582622  1
  O  O263  1  0.160735  0.127590  0.530787  1
  O  O264  1  0.100280  0.053188  0.572854  1
  O  O265  1  0.249965  0.437233  0.530788  1
  O  O266  1  0.021757  0.363701  0.530788  1
  Si  Si267  1  0.865754  0.653548  0.173734  1
  Si  Si268  1  0.847739  0.882062  0.193744  1
  Si  Si269  1  0.981981  0.614958  0.193877  1
  Si  Si270  1  0.919189  0.260396  0.173548  1
  Si  Si271  1  0.941630  0.035069  0.193897  1
  Si  Si272  1  0.749968  0.011162  0.173751  1
  Si  Si273  1  0.441633  0.964833  0.193899  1
  Si  Si274  1  0.634187  0.653543  0.173733  1
  Si  Si275  1  0.652200  0.882053  0.193748  1
  Si  Si276  1  0.419198  0.739501  0.173550  1
  Si  Si277  1  0.517961  0.614925  0.193875  1
  Si  Si278  1  0.365745  0.346355  0.173733  1
  Si  Si279  1  0.347743  0.117844  0.193749  1
  Si  Si280  1  0.580741  0.260408  0.173545  1
  Si  Si281  1  0.481972  0.384957  0.193873  1
  Si  Si282  1  0.558317  0.035077  0.193898  1
  Si  Si283  1  0.080750  0.739515  0.173550  1
  Si  Si284  1  0.058318  0.964846  0.193899  1
  Si  Si285  1  0.249969  0.988756  0.173756  1
  Si  Si286  1  0.134177  0.346377  0.173735  1
  Si  Si287  1  0.152202  0.117869  0.193749  1
  Si  Si288  1  0.017951  0.384979  0.193877  1
  Si  Si289  1  0.688943  0.543878  0.344064  1
  Si  Si290  1  0.811006  0.543879  0.344063  1
  Si  Si291  1  0.865754  0.653548  0.473839  1
  Si  Si292  1  0.865753  0.653572  0.287629  1
  Si  Si293  1  0.847739  0.882062  0.493849  1
  Si  Si294  1  0.847737  0.882076  0.267610  1
  Si  Si295  1  0.811049  0.544007  0.230684  1
  Si  Si296  1  0.688901  0.544019  0.230684  1
  Si  Si297  1  0.981981  0.614958  0.493983  1
  Si  Si298  1  0.981980  0.614959  0.267491  1
  Si  Si299  1  0.811007  0.543869  0.417403  1
  Si  Si300  1  0.688944  0.543871  0.417405  1
  Si  Si301  1  0.749965  0.164859  0.344055  1
  Si  Si302  1  0.919189  0.260396  0.473653  1
  Si  Si303  1  0.919191  0.260404  0.287813  1
  Si  Si304  1  0.845947  0.313728  0.417355  1
  Si  Si305  1  0.845946  0.313736  0.344109  1
  Si  Si306  1  0.846238  0.313865  0.230681  1
  Si  Si307  1  0.749959  0.164499  0.230677  1
  Si  Si308  1  0.941630  0.035069  0.494002  1
  Si  Si309  1  0.941629  0.035074  0.267464  1
  Si  Si310  1  0.749966  0.164852  0.417406  1
  Si  Si311  1  0.749963  0.011171  0.287604  1
  Si  Si312  1  0.749968  0.011162  0.473857  1
  Si  Si313  1  0.441633  0.964833  0.494004  1
  Si  Si314  1  0.441632  0.964836  0.267466  1
  Si  Si315  1  0.634187  0.653543  0.473839  1
  Si  Si316  1  0.634180  0.653540  0.287631  1
  Si  Si317  1  0.652200  0.882053  0.493853  1
  Si  Si318  1  0.652199  0.882047  0.267615  1
  Si  Si319  1  0.419195  0.739506  0.287814  1
  Si  Si320  1  0.419198  0.739501  0.473655  1
  Si  Si321  1  0.345954  0.686176  0.344112  1
  Si  Si322  1  0.345953  0.686177  0.417358  1
  Si  Si323  1  0.346245  0.686031  0.230681  1
  Si  Si324  1  0.517961  0.614925  0.493980  1
  Si  Si325  1  0.517956  0.614921  0.267488  1
  Si  Si326  1  0.365748  0.346350  0.287631  1
  Si  Si327  1  0.365745  0.346355  0.473838  1
  Si  Si328  1  0.347740  0.117841  0.267616  1
  Si  Si329  1  0.347743  0.117844  0.493854  1
  Si  Si330  1  0.580741  0.260408  0.473650  1
  Si  Si331  1  0.580748  0.260405  0.287813  1
  Si  Si332  1  0.653989  0.313737  0.417355  1
  Si  Si333  1  0.653988  0.313745  0.344110  1
  Si  Si334  1  0.653690  0.313891  0.230677  1
  Si  Si335  1  0.481974  0.384950  0.267486  1
  Si  Si336  1  0.481972  0.384957  0.493978  1
  Si  Si337  1  0.558317  0.035077  0.494004  1
  Si  Si338  1  0.558317  0.035074  0.267465  1
  Si  Si339  1  0.080747  0.739524  0.287818  1
  Si  Si340  1  0.080750  0.739515  0.473655  1
  Si  Si341  1  0.153992  0.686185  0.344114  1
  Si  Si342  1  0.153994  0.686185  0.417359  1
  Si  Si343  1  0.153695  0.686041  0.230685  1
  Si  Si344  1  0.249971  0.835414  0.230680  1
  Si  Si345  1  0.058316  0.964851  0.267466  1
  Si  Si346  1  0.058318  0.964846  0.494004  1
  Si  Si347  1  0.249975  0.835057  0.344060  1
  Si  Si348  1  0.249976  0.835062  0.417411  1
  Si  Si349  1  0.249969  0.988756  0.473861  1
  Si  Si350  1  0.249970  0.988739  0.287607  1
  Si  Si351  1  0.310999  0.456043  0.417404  1
  Si  Si352  1  0.188935  0.456044  0.417405  1
  Si  Si353  1  0.134181  0.346366  0.287632  1
  Si  Si354  1  0.134177  0.346377  0.473840  1
  Si  Si355  1  0.152204  0.117861  0.267616  1
  Si  Si356  1  0.152202  0.117869  0.493854  1
  Si  Si357  1  0.188891  0.455905  0.230684  1
  Si  Si358  1  0.311039  0.455897  0.230683  1
  Si  Si359  1  0.017955  0.384982  0.267490  1
  Si  Si360  1  0.017951  0.384979  0.493982  1
  Si  Si361  1  0.188936  0.456046  0.344065  1
  Si  Si362  1  0.311000  0.456043  0.344064  1
  Si  Si363  1  0.865753  0.653572  0.587734  1
  Si  Si364  1  0.847737  0.882076  0.567715  1
  Si  Si365  1  0.811049  0.544007  0.530789  1
  Si  Si366  1  0.688901  0.544019  0.530789  1
  Si  Si367  1  0.981980  0.614959  0.567596  1
  Si  Si368  1  0.919191  0.260404  0.587918  1
  Si  Si369  1  0.846238  0.313865  0.530786  1
  Si  Si370  1  0.749959  0.164499  0.530782  1
  Si  Si371  1  0.941629  0.035074  0.567569  1
  Si  Si372  1  0.749963  0.011171  0.587709  1
  Si  Si373  1  0.441632  0.964836  0.567571  1
  Si  Si374  1  0.634180  0.653540  0.587737  1
  Si  Si375  1  0.652199  0.882047  0.567720  1
  Si  Si376  1  0.419195  0.739506  0.587919  1
  Si  Si377  1  0.346245  0.686031  0.530786  1
  Si  Si378  1  0.517956  0.614921  0.567593  1
  Si  Si379  1  0.365748  0.346350  0.587736  1
  Si  Si380  1  0.347740  0.117841  0.567721  1
  Si  Si381  1  0.580748  0.260405  0.587918  1
  Si  Si382  1  0.653690  0.313891  0.530782  1
  Si  Si383  1  0.481974  0.384950  0.567591  1
  Si  Si384  1  0.558317  0.035074  0.567570  1
  Si  Si385  1  0.080747  0.739524  0.587923  1
  Si  Si386  1  0.153695  0.686041  0.530790  1
  Si  Si387  1  0.249971  0.835414  0.530785  1
  Si  Si388  1  0.058316  0.964851  0.567571  1
  Si  Si389  1  0.249970  0.988739  0.587712  1
  Si  Si390  1  0.134181  0.346366  0.587737  1
  Si  Si391  1  0.152204  0.117861  0.567721  1
  Si  Si392  1  0.188891  0.455905  0.530789  1
  Si  Si393  1  0.311039  0.455897  0.530788  1
  Si  Si394  1  0.017955  0.384982  0.567595  1
  H  H395  1  0.844437  0.612967  0.119327  1
  H  H396  1  0.892907  0.289484  0.119268  1
  H  H397  1  0.749963  0.069621  0.119337  1
  H  H398  1  0.655514  0.612971  0.119328  1
  H  H399  1  0.392916  0.710412  0.119269  1
  H  H400  1  0.344424  0.386932  0.119327  1
  H  H401  1  0.607026  0.289497  0.119266  1
  H  H402  1  0.107033  0.710429  0.119271  1
  H  H403  1  0.249970  0.930293  0.119342  1
  H  H404  1  0.155502  0.386949  0.119328  1
  H  H405  1  0.844434  0.612987  0.642141  1
  H  H406  1  0.892905  0.289490  0.642197  1
  H  H407  1  0.749962  0.069634  0.642122  1
  H  H408  1  0.655509  0.612975  0.642143  1
  H  H409  1  0.392913  0.710415  0.642199  1
  H  H410  1  0.344428  0.386935  0.642141  1
  H  H411  1  0.607029  0.289507  0.642197  1
  H  H412  1  0.107033  0.710435  0.642202  1
  H  H413  1  0.249971  0.930282  0.642127  1
  H  H414  1  0.155504  0.386947  0.642143  1
