# generated using pymatgen
data_Si99(HO50)4
_symmetry_space_group_name_H-M   'P 1'
_cell_length_a   11.47834918
_cell_length_b   14.36840839
_cell_length_c   94.91942116
_cell_angle_alpha   90.00000000
_cell_angle_beta   90.00000000
_cell_angle_gamma   90.00000000
_symmetry_Int_Tables_number   1
_chemical_formula_structural   Si99(HO50)4
_chemical_formula_sum   'Si198 H8 O400'
_cell_volume   15654.6433091
_cell_formula_units_Z   2
loop_
 _symmetry_equiv_pos_site_id
 _symmetry_equiv_pos_as_xyz
  1  'x, y, z'
loop_
 _atom_site_type_symbol
 _atom_site_label
 _atom_site_symmetry_multiplicity
 _atom_site_fract_x
 _atom_site_fract_y
 _atom_site_fract_z
 _atom_site_occupancy
  O  O1  1  0.071786  0.887534  0.062158  1
  O  O2  1  0.427954  0.887535  0.062159  1
  O  O3  1  0.014439  0.385921  0.128315  1
  O  O4  1  0.749874  0.048569  0.115186  1
  O  O5  1  0.749870  0.048570  0.141445  1
  O  O6  1  0.408457  0.158828  0.141778  1
  O  O7  1  0.408457  0.158827  0.114852  1
  O  O8  1  0.091284  0.158827  0.141777  1
  O  O9  1  0.091286  0.158827  0.114853  1
  O  O10  1  0.447495  0.003580  0.128315  1
  O  O11  1  0.052249  0.003582  0.128315  1
  O  O12  1  0.249870  0.078535  0.128315  1
  O  O13  1  0.863282  0.369011  0.147342  1
  O  O14  1  0.863280  0.369009  0.109288  1
  O  O15  1  0.636451  0.369012  0.147342  1
  O  O16  1  0.636455  0.369014  0.109288  1
  O  O17  1  0.749872  0.212594  0.104282  1
  O  O18  1  0.749873  0.287299  0.128315  1
  O  O19  1  0.454663  0.173192  0.088985  1
  O  O20  1  0.045078  0.173190  0.088985  1
  O  O21  1  0.571792  0.112526  0.066869  1
  O  O22  1  0.927958  0.112526  0.066869  1
  O  O23  1  0.453665  0.002908  0.082250  1
  O  O24  1  0.046074  0.002911  0.082251  1
  O  O25  1  0.639721  0.080397  0.092179  1
  O  O26  1  0.860024  0.080399  0.092179  1
  O  O27  1  0.427393  0.321198  0.104677  1
  O  O28  1  0.072353  0.321198  0.104676  1
  O  O29  1  0.249874  0.218706  0.098601  1
  O  O30  1  0.485303  0.385928  0.128315  1
  O  O31  1  0.462823  0.499658  0.108428  1
  O  O32  1  0.036921  0.499669  0.108425  1
  O  O33  1  0.036923  0.499674  0.148204  1
  O  O34  1  0.462826  0.499667  0.148204  1
  O  O35  1  0.636178  0.922265  0.128315  1
  O  O36  1  0.863562  0.922265  0.128315  1
  O  O37  1  0.101810  0.603726  0.128315  1
  O  O38  1  0.457504  0.850921  0.114972  1
  O  O39  1  0.457507  0.850925  0.141658  1
  O  O40  1  0.042235  0.850925  0.114972  1
  O  O41  1  0.042242  0.850921  0.141659  1
  O  O42  1  0.401007  0.836440  0.088761  1
  O  O43  1  0.098735  0.836437  0.088762  1
  O  O44  1  0.249878  0.937151  0.076611  1
  O  O45  1  0.408538  0.685907  0.105036  1
  O  O46  1  0.091224  0.685893  0.105038  1
  O  O47  1  0.249876  0.806581  0.107399  1
  O  O48  1  0.249882  0.806577  0.149232  1
  O  O49  1  0.249871  0.565030  0.146711  1
  O  O50  1  0.249864  0.565024  0.109919  1
  O  O51  1  0.397937  0.603719  0.128316  1
  O  O52  1  0.749875  0.212590  0.152349  1
  O  O53  1  0.454661  0.173187  0.167646  1
  O  O54  1  0.045077  0.173192  0.167646  1
  O  O55  1  0.571790  0.112523  0.189762  1
  O  O56  1  0.927958  0.112527  0.189762  1
  O  O57  1  0.453670  0.002910  0.174380  1
  O  O58  1  0.046078  0.002908  0.174380  1
  O  O59  1  0.639721  0.080399  0.164451  1
  O  O60  1  0.860020  0.080398  0.164451  1
  O  O61  1  0.427396  0.321199  0.151954  1
  O  O62  1  0.072352  0.321195  0.151954  1
  O  O63  1  0.249868  0.218703  0.158029  1
  O  O64  1  0.598740  0.163622  0.216366  1
  O  O65  1  0.901008  0.163625  0.216365  1
  O  O66  1  0.749867  0.062910  0.204215  1
  O  O67  1  0.591215  0.314159  0.232641  1
  O  O68  1  0.908501  0.314157  0.232643  1
  O  O69  1  0.249873  0.787468  0.231886  1
  O  O70  1  0.545083  0.826870  0.216588  1
  O  O71  1  0.954666  0.826868  0.216589  1
  O  O72  1  0.427960  0.887532  0.194472  1
  O  O73  1  0.071790  0.887538  0.194472  1
  O  O74  1  0.546079  0.997150  0.209854  1
  O  O75  1  0.953671  0.997151  0.209854  1
  O  O76  1  0.360024  0.919661  0.219782  1
  O  O77  1  0.139724  0.919664  0.219783  1
  O  O78  1  0.572356  0.678864  0.232280  1
  O  O79  1  0.927392  0.678867  0.232280  1
  O  O80  1  0.749873  0.781356  0.226205  1
  O  O81  1  0.401008  0.836439  0.167869  1
  O  O82  1  0.098739  0.836438  0.167868  1
  O  O83  1  0.249873  0.937150  0.180019  1
  O  O84  1  0.408513  0.685898  0.151592  1
  O  O85  1  0.091209  0.685895  0.151592  1
  O  O86  1  0.363567  0.077796  0.255919  1
  O  O87  1  0.136183  0.077796  0.255918  1
  O  O88  1  0.542241  0.149139  0.269262  1
  O  O89  1  0.542237  0.149141  0.242575  1
  O  O90  1  0.957507  0.149141  0.269262  1
  O  O91  1  0.957506  0.149138  0.242576  1
  O  O92  1  0.598742  0.163625  0.295471  1
  O  O93  1  0.901012  0.163620  0.295472  1
  O  O94  1  0.749874  0.062910  0.307623  1
  O  O95  1  0.591214  0.314163  0.279196  1
  O  O96  1  0.908523  0.314160  0.279195  1
  O  O97  1  0.749883  0.193479  0.276835  1
  O  O98  1  0.749880  0.193494  0.235001  1
  O  O99  1  0.749877  0.435031  0.237522  1
  O  O100  1  0.749875  0.435031  0.274315  1
  O  O101  1  0.601816  0.396336  0.255919  1
  O  O102  1  0.897937  0.396335  0.255919  1
  O  O103  1  0.071786  0.887534  0.317365  1
  O  O104  1  0.249872  0.951491  0.269048  1
  O  O105  1  0.249873  0.951491  0.242789  1
  O  O106  1  0.591290  0.841232  0.242456  1
  O  O107  1  0.591289  0.841231  0.269381  1
  O  O108  1  0.908463  0.841234  0.242456  1
  O  O109  1  0.908461  0.841233  0.269381  1
  O  O110  1  0.552251  0.996481  0.255919  1
  O  O111  1  0.947496  0.996478  0.255919  1
  O  O112  1  0.749876  0.921525  0.255919  1
  O  O113  1  0.136465  0.631049  0.236892  1
  O  O114  1  0.136463  0.631047  0.274946  1
  O  O115  1  0.363288  0.631050  0.236892  1
  O  O116  1  0.363286  0.631048  0.274946  1
  O  O117  1  0.249875  0.787468  0.279951  1
  O  O118  1  0.249875  0.712761  0.255919  1
  O  O119  1  0.545081  0.826870  0.295249  1
  O  O120  1  0.954667  0.826869  0.295249  1
  O  O121  1  0.427954  0.887535  0.317366  1
  O  O122  1  0.546079  0.997151  0.301983  1
  O  O123  1  0.953670  0.997150  0.301983  1
  O  O124  1  0.360024  0.919662  0.292054  1
  O  O125  1  0.139723  0.919662  0.292055  1
  O  O126  1  0.572357  0.678863  0.279557  1
  O  O127  1  0.927392  0.678866  0.279557  1
  O  O128  1  0.749876  0.781354  0.285632  1
  O  O129  1  0.514443  0.614139  0.255919  1
  O  O130  1  0.985308  0.614139  0.255919  1
  O  O131  1  0.536928  0.500390  0.275808  1
  O  O132  1  0.962828  0.500390  0.275808  1
  O  O133  1  0.962827  0.500391  0.236029  1
  O  O134  1  0.536928  0.500392  0.236030  1
  O  O135  1  0.014439  0.385921  0.383522  1
  O  O136  1  0.749874  0.048569  0.370393  1
  O  O137  1  0.749870  0.048570  0.396652  1
  O  O138  1  0.408457  0.158828  0.396985  1
  O  O139  1  0.408457  0.158827  0.370059  1
  O  O140  1  0.091284  0.158827  0.396984  1
  O  O141  1  0.091286  0.158827  0.370060  1
  O  O142  1  0.447495  0.003580  0.383522  1
  O  O143  1  0.052249  0.003582  0.383522  1
  O  O144  1  0.249870  0.078535  0.383522  1
  O  O145  1  0.863282  0.369011  0.402549  1
  O  O146  1  0.863280  0.369009  0.364495  1
  O  O147  1  0.636451  0.369012  0.402549  1
  O  O148  1  0.636455  0.369014  0.364495  1
  O  O149  1  0.749872  0.212594  0.359489  1
  O  O150  1  0.749873  0.287299  0.383522  1
  O  O151  1  0.454663  0.173192  0.344192  1
  O  O152  1  0.045078  0.173190  0.344192  1
  O  O153  1  0.571792  0.112526  0.322076  1
  O  O154  1  0.927958  0.112526  0.322076  1
  O  O155  1  0.453665  0.002908  0.337457  1
  O  O156  1  0.046074  0.002911  0.337458  1
  O  O157  1  0.639721  0.080397  0.347386  1
  O  O158  1  0.860024  0.080399  0.347386  1
  O  O159  1  0.427393  0.321198  0.359884  1
  O  O160  1  0.072353  0.321198  0.359883  1
  O  O161  1  0.249874  0.218706  0.353808  1
  O  O162  1  0.485303  0.385928  0.383522  1
  O  O163  1  0.462823  0.499658  0.363634  1
  O  O164  1  0.036921  0.499669  0.363632  1
  O  O165  1  0.036923  0.499674  0.403411  1
  O  O166  1  0.462826  0.499667  0.403411  1
  O  O167  1  0.636178  0.922265  0.383522  1
  O  O168  1  0.863562  0.922265  0.383522  1
  O  O169  1  0.101810  0.603726  0.383522  1
  O  O170  1  0.457504  0.850921  0.370179  1
  O  O171  1  0.457507  0.850925  0.396865  1
  O  O172  1  0.042235  0.850925  0.370179  1
  O  O173  1  0.042242  0.850921  0.396866  1
  O  O174  1  0.401007  0.836440  0.343968  1
  O  O175  1  0.098735  0.836437  0.343969  1
  O  O176  1  0.249878  0.937151  0.331818  1
  O  O177  1  0.408538  0.685907  0.360243  1
  O  O178  1  0.091224  0.685893  0.360245  1
  O  O179  1  0.249876  0.806581  0.362605  1
  O  O180  1  0.249882  0.806577  0.404439  1
  O  O181  1  0.249871  0.565030  0.401918  1
  O  O182  1  0.249864  0.565024  0.365126  1
  O  O183  1  0.397937  0.603719  0.383523  1
  O  O184  1  0.749875  0.212590  0.407556  1
  O  O185  1  0.454661  0.173187  0.422853  1
  O  O186  1  0.045077  0.173192  0.422853  1
  O  O187  1  0.571790  0.112523  0.444969  1
  O  O188  1  0.927958  0.112527  0.444969  1
  O  O189  1  0.453670  0.002910  0.429587  1
  O  O190  1  0.046078  0.002908  0.429587  1
  O  O191  1  0.639721  0.080399  0.419658  1
  O  O192  1  0.860020  0.080398  0.419658  1
  O  O193  1  0.427396  0.321199  0.407161  1
  O  O194  1  0.072352  0.321195  0.407161  1
  O  O195  1  0.249868  0.218703  0.413236  1
  O  O196  1  0.598740  0.163622  0.471573  1
  O  O197  1  0.901008  0.163625  0.471572  1
  O  O198  1  0.749867  0.062910  0.459422  1
  O  O199  1  0.591215  0.314159  0.487848  1
  O  O200  1  0.908501  0.314157  0.487850  1
  O  O201  1  0.249873  0.787468  0.487093  1
  O  O202  1  0.545083  0.826870  0.471795  1
  O  O203  1  0.954666  0.826868  0.471796  1
  O  O204  1  0.427960  0.887532  0.449679  1
  O  O205  1  0.071790  0.887538  0.449679  1
  O  O206  1  0.546079  0.997150  0.465061  1
  O  O207  1  0.953671  0.997151  0.465061  1
  O  O208  1  0.360024  0.919661  0.474989  1
  O  O209  1  0.139724  0.919664  0.474990  1
  O  O210  1  0.572356  0.678864  0.487487  1
  O  O211  1  0.927392  0.678867  0.487487  1
  O  O212  1  0.749873  0.781356  0.481412  1
  O  O213  1  0.401008  0.836439  0.423076  1
  O  O214  1  0.098739  0.836438  0.423075  1
  O  O215  1  0.249873  0.937150  0.435226  1
  O  O216  1  0.408513  0.685898  0.406799  1
  O  O217  1  0.091209  0.685895  0.406799  1
  O  O218  1  0.363567  0.077796  0.511126  1
  O  O219  1  0.136183  0.077796  0.511125  1
  O  O220  1  0.542241  0.149139  0.524469  1
  O  O221  1  0.542237  0.149141  0.497782  1
  O  O222  1  0.957507  0.149141  0.524468  1
  O  O223  1  0.957506  0.149138  0.497783  1
  O  O224  1  0.598742  0.163625  0.550678  1
  O  O225  1  0.901012  0.163620  0.550679  1
  O  O226  1  0.749874  0.062910  0.562830  1
  O  O227  1  0.591214  0.314163  0.534403  1
  O  O228  1  0.908523  0.314160  0.534402  1
  O  O229  1  0.749883  0.193479  0.532042  1
  O  O230  1  0.749880  0.193494  0.490208  1
  O  O231  1  0.749877  0.435031  0.492729  1
  O  O232  1  0.749875  0.435031  0.529522  1
  O  O233  1  0.601816  0.396336  0.511126  1
  O  O234  1  0.897937  0.396335  0.511125  1
  O  O235  1  0.071786  0.887534  0.572572  1
  O  O236  1  0.249872  0.951491  0.524255  1
  O  O237  1  0.249873  0.951491  0.497996  1
  O  O238  1  0.591290  0.841232  0.497663  1
  O  O239  1  0.591289  0.841231  0.524588  1
  O  O240  1  0.908463  0.841234  0.497663  1
  O  O241  1  0.908461  0.841233  0.524588  1
  O  O242  1  0.552251  0.996481  0.511126  1
  O  O243  1  0.947496  0.996478  0.511125  1
  O  O244  1  0.749876  0.921525  0.511125  1
  O  O245  1  0.136465  0.631049  0.492099  1
  O  O246  1  0.136463  0.631047  0.530153  1
  O  O247  1  0.363288  0.631050  0.492099  1
  O  O248  1  0.363286  0.631048  0.530153  1
  O  O249  1  0.249875  0.787468  0.535158  1
  O  O250  1  0.249875  0.712761  0.511125  1
  O  O251  1  0.545081  0.826870  0.550456  1
  O  O252  1  0.954667  0.826869  0.550456  1
  O  O253  1  0.427954  0.887535  0.572573  1
  O  O254  1  0.546079  0.997151  0.557190  1
  O  O255  1  0.953670  0.997150  0.557190  1
  O  O256  1  0.360024  0.919662  0.547261  1
  O  O257  1  0.139723  0.919662  0.547262  1
  O  O258  1  0.572357  0.678863  0.534764  1
  O  O259  1  0.927392  0.678866  0.534764  1
  O  O260  1  0.749876  0.781354  0.540839  1
  O  O261  1  0.514443  0.614139  0.511125  1
  O  O262  1  0.985308  0.614139  0.511126  1
  O  O263  1  0.536928  0.500390  0.531015  1
  O  O264  1  0.962828  0.500390  0.531015  1
  O  O265  1  0.962827  0.500391  0.491236  1
  O  O266  1  0.536928  0.500392  0.491237  1
  O  O267  1  0.014439  0.385921  0.638729  1
  O  O268  1  0.749874  0.048569  0.625600  1
  O  O269  1  0.749870  0.048570  0.651859  1
  O  O270  1  0.408457  0.158828  0.652192  1
  O  O271  1  0.408457  0.158827  0.625266  1
  O  O272  1  0.091284  0.158827  0.652191  1
  O  O273  1  0.091286  0.158827  0.625267  1
  O  O274  1  0.447495  0.003580  0.638729  1
  O  O275  1  0.052249  0.003582  0.638729  1
  O  O276  1  0.249870  0.078535  0.638729  1
  O  O277  1  0.863282  0.369011  0.657756  1
  O  O278  1  0.863280  0.369009  0.619702  1
  O  O279  1  0.636451  0.369012  0.657756  1
  O  O280  1  0.636455  0.369014  0.619702  1
  O  O281  1  0.749872  0.212594  0.614696  1
  O  O282  1  0.749873  0.287299  0.638729  1
  O  O283  1  0.454663  0.173192  0.599399  1
  O  O284  1  0.045078  0.173190  0.599399  1
  O  O285  1  0.571792  0.112526  0.577283  1
  O  O286  1  0.927958  0.112526  0.577283  1
  O  O287  1  0.453665  0.002908  0.592664  1
  O  O288  1  0.046074  0.002911  0.592665  1
  O  O289  1  0.639721  0.080397  0.602593  1
  O  O290  1  0.860024  0.080399  0.602593  1
  O  O291  1  0.427393  0.321198  0.615091  1
  O  O292  1  0.072353  0.321198  0.615090  1
  O  O293  1  0.249874  0.218706  0.609015  1
  O  O294  1  0.485303  0.385928  0.638729  1
  O  O295  1  0.462823  0.499658  0.618841  1
  O  O296  1  0.036921  0.499669  0.618839  1
  O  O297  1  0.036923  0.499674  0.658618  1
  O  O298  1  0.462826  0.499667  0.658618  1
  O  O299  1  0.636178  0.922265  0.638729  1
  O  O300  1  0.863562  0.922265  0.638729  1
  O  O301  1  0.101810  0.603726  0.638729  1
  O  O302  1  0.457504  0.850921  0.625386  1
  O  O303  1  0.457507  0.850925  0.652072  1
  O  O304  1  0.042235  0.850925  0.625386  1
  O  O305  1  0.042242  0.850921  0.652073  1
  O  O306  1  0.401007  0.836440  0.599175  1
  O  O307  1  0.098735  0.836437  0.599176  1
  O  O308  1  0.249878  0.937151  0.587025  1
  O  O309  1  0.408538  0.685907  0.615450  1
  O  O310  1  0.091224  0.685893  0.615452  1
  O  O311  1  0.249876  0.806581  0.617812  1
  O  O312  1  0.249882  0.806577  0.659646  1
  O  O313  1  0.249871  0.565030  0.657125  1
  O  O314  1  0.249864  0.565024  0.620333  1
  O  O315  1  0.397937  0.603719  0.638730  1
  O  O316  1  0.749875  0.212590  0.662763  1
  O  O317  1  0.454661  0.173187  0.678060  1
  O  O318  1  0.045077  0.173192  0.678060  1
  O  O319  1  0.571790  0.112523  0.700176  1
  O  O320  1  0.927958  0.112527  0.700176  1
  O  O321  1  0.453670  0.002910  0.684794  1
  O  O322  1  0.046078  0.002908  0.684794  1
  O  O323  1  0.639721  0.080399  0.674865  1
  O  O324  1  0.860020  0.080398  0.674865  1
  O  O325  1  0.427396  0.321199  0.662368  1
  O  O326  1  0.072352  0.321195  0.662368  1
  O  O327  1  0.249868  0.218703  0.668443  1
  O  O328  1  0.598740  0.163622  0.726780  1
  O  O329  1  0.901008  0.163625  0.726779  1
  O  O330  1  0.749867  0.062910  0.714629  1
  O  O331  1  0.591215  0.314159  0.743055  1
  O  O332  1  0.908501  0.314157  0.743057  1
  O  O333  1  0.249873  0.787468  0.742300  1
  O  O334  1  0.545083  0.826870  0.727002  1
  O  O335  1  0.954666  0.826868  0.727003  1
  O  O336  1  0.427960  0.887532  0.704886  1
  O  O337  1  0.071790  0.887538  0.704886  1
  O  O338  1  0.546079  0.997150  0.720268  1
  O  O339  1  0.953671  0.997151  0.720268  1
  O  O340  1  0.360024  0.919661  0.730196  1
  O  O341  1  0.139724  0.919664  0.730197  1
  O  O342  1  0.572356  0.678864  0.742694  1
  O  O343  1  0.927392  0.678867  0.742694  1
  O  O344  1  0.749873  0.781356  0.736619  1
  O  O345  1  0.401008  0.836439  0.678283  1
  O  O346  1  0.098739  0.836438  0.678282  1
  O  O347  1  0.249873  0.937150  0.690433  1
  O  O348  1  0.408513  0.685898  0.662006  1
  O  O349  1  0.091209  0.685895  0.662006  1
  O  O350  1  0.363567  0.077796  0.766333  1
  O  O351  1  0.136183  0.077796  0.766332  1
  O  O352  1  0.542241  0.149139  0.779676  1
  O  O353  1  0.542237  0.149141  0.752989  1
  O  O354  1  0.957507  0.149141  0.779675  1
  O  O355  1  0.957506  0.149138  0.752990  1
  O  O356  1  0.598742  0.163625  0.805885  1
  O  O357  1  0.901012  0.163620  0.805886  1
  O  O358  1  0.749874  0.062910  0.818037  1
  O  O359  1  0.591214  0.314163  0.789610  1
  O  O360  1  0.908523  0.314160  0.789609  1
  O  O361  1  0.749883  0.193479  0.787249  1
  O  O362  1  0.749880  0.193494  0.745415  1
  O  O363  1  0.749877  0.435031  0.747936  1
  O  O364  1  0.749875  0.435031  0.784729  1
  O  O365  1  0.601816  0.396336  0.766333  1
  O  O366  1  0.897937  0.396335  0.766332  1
  O  O367  1  0.071786  0.887534  0.827779  1
  O  O368  1  0.249872  0.951491  0.779462  1
  O  O369  1  0.249873  0.951491  0.753203  1
  O  O370  1  0.591290  0.841232  0.752870  1
  O  O371  1  0.591289  0.841231  0.779795  1
  O  O372  1  0.908463  0.841234  0.752870  1
  O  O373  1  0.908461  0.841233  0.779795  1
  O  O374  1  0.552251  0.996481  0.766333  1
  O  O375  1  0.947496  0.996478  0.766332  1
  O  O376  1  0.749876  0.921525  0.766332  1
  O  O377  1  0.136465  0.631049  0.747305  1
  O  O378  1  0.136463  0.631047  0.785360  1
  O  O379  1  0.363288  0.631050  0.747305  1
  O  O380  1  0.363286  0.631048  0.785360  1
  O  O381  1  0.249875  0.787468  0.790365  1
  O  O382  1  0.249875  0.712761  0.766332  1
  O  O383  1  0.545081  0.826870  0.805663  1
  O  O384  1  0.954667  0.826869  0.805663  1
  O  O385  1  0.427954  0.887535  0.827780  1
  O  O386  1  0.546079  0.997151  0.812397  1
  O  O387  1  0.953670  0.997150  0.812397  1
  O  O388  1  0.360024  0.919662  0.802468  1
  O  O389  1  0.139723  0.919662  0.802469  1
  O  O390  1  0.572357  0.678863  0.789971  1
  O  O391  1  0.927392  0.678866  0.789971  1
  O  O392  1  0.749876  0.781354  0.796046  1
  O  O393  1  0.514443  0.614139  0.766332  1
  O  O394  1  0.985308  0.614139  0.766333  1
  O  O395  1  0.536928  0.500390  0.786222  1
  O  O396  1  0.962828  0.500390  0.786222  1
  O  O397  1  0.962827  0.500391  0.746443  1
  O  O398  1  0.536928  0.500392  0.746444  1
  O  O399  1  0.571792  0.112526  0.832489  1
  O  O400  1  0.927958  0.112526  0.832489  1
  Si  Si401  1  0.530625  0.093016  0.082398  1
  Si  Si402  1  0.969115  0.093019  0.082398  1
  Si  Si403  1  0.384358  0.219808  0.101380  1
  Si  Si404  1  0.115387  0.219803  0.101380  1
  Si  Si405  1  0.505377  0.397001  0.144616  1
  Si  Si406  1  0.505382  0.396996  0.112013  1
  Si  Si407  1  0.994366  0.397005  0.144617  1
  Si  Si408  1  0.994357  0.396998  0.112014  1
  Si  Si409  1  0.749868  0.309238  0.144522  1
  Si  Si410  1  0.749870  0.309241  0.112108  1
  Si  Si411  1  0.749873  0.105101  0.101177  1
  Si  Si412  1  0.383505  0.098840  0.128315  1
  Si  Si413  1  0.116237  0.098842  0.128315  1
  Si  Si414  1  0.384122  0.914874  0.077313  1
  Si  Si415  1  0.115628  0.914879  0.077312  1
  Si  Si416  1  0.383907  0.794412  0.103989  1
  Si  Si417  1  0.115822  0.794406  0.103989  1
  Si  Si418  1  0.383867  0.587549  0.144602  1
  Si  Si419  1  0.383872  0.587544  0.112028  1
  Si  Si420  1  0.115877  0.587550  0.144602  1
  Si  Si421  1  0.115859  0.587553  0.112028  1
  Si  Si422  1  0.500983  0.904152  0.128314  1
  Si  Si423  1  0.998764  0.904153  0.128316  1
  Si  Si424  1  0.749868  0.983331  0.128315  1
  Si  Si425  1  0.530631  0.093014  0.174232  1
  Si  Si426  1  0.969116  0.093015  0.174232  1
  Si  Si427  1  0.384352  0.219807  0.155251  1
  Si  Si428  1  0.115387  0.219802  0.155251  1
  Si  Si429  1  0.615621  0.085190  0.204917  1
  Si  Si430  1  0.884119  0.085183  0.204916  1
  Si  Si431  1  0.615842  0.205658  0.231593  1
  Si  Si432  1  0.883921  0.205646  0.231592  1
  Si  Si433  1  0.749870  0.105103  0.155454  1
  Si  Si434  1  0.469116  0.907045  0.210001  1
  Si  Si435  1  0.030631  0.907043  0.210001  1
  Si  Si436  1  0.615391  0.780258  0.228983  1
  Si  Si437  1  0.884355  0.780259  0.228983  1
  Si  Si438  1  0.384119  0.914877  0.179318  1
  Si  Si439  1  0.115626  0.914875  0.179317  1
  Si  Si440  1  0.383916  0.794402  0.152641  1
  Si  Si441  1  0.115831  0.794401  0.152641  1
  Si  Si442  1  0.249877  0.894956  0.228780  1
  Si  Si443  1  0.615625  0.085186  0.306921  1
  Si  Si444  1  0.884120  0.085183  0.306921  1
  Si  Si445  1  0.615830  0.205658  0.280245  1
  Si  Si446  1  0.883915  0.205655  0.280245  1
  Si  Si447  1  0.615876  0.412508  0.239632  1
  Si  Si448  1  0.615875  0.412511  0.272206  1
  Si  Si449  1  0.883878  0.412505  0.239632  1
  Si  Si450  1  0.883877  0.412515  0.272205  1
  Si  Si451  1  0.498768  0.095913  0.255919  1
  Si  Si452  1  -0.000000  0.095907  0.255919  1
  Si  Si453  1  0.249872  0.016729  0.255919  1
  Si  Si454  1  0.469114  0.907045  0.301836  1
  Si  Si455  1  0.030631  0.907044  0.301835  1
  Si  Si456  1  0.615392  0.780260  0.282855  1
  Si  Si457  1  0.884358  0.780257  0.282854  1
  Si  Si458  1  0.494366  0.603057  0.239617  1
  Si  Si459  1  0.494366  0.603058  0.272220  1
  Si  Si460  1  0.005386  0.603062  0.239617  1
  Si  Si461  1  0.005383  0.603060  0.272221  1
  Si  Si462  1  0.249878  0.690826  0.239712  1
  Si  Si463  1  0.249873  0.690827  0.272125  1
  Si  Si464  1  0.249875  0.894958  0.283057  1
  Si  Si465  1  0.616239  0.901223  0.255919  1
  Si  Si466  1  0.883509  0.901218  0.255919  1
  Si  Si467  1  0.530625  0.093016  0.337605  1
  Si  Si468  1  0.969115  0.093019  0.337605  1
  Si  Si469  1  0.384358  0.219808  0.356587  1
  Si  Si470  1  0.115387  0.219803  0.356587  1
  Si  Si471  1  0.505377  0.397001  0.399823  1
  Si  Si472  1  0.505382  0.396996  0.367220  1
  Si  Si473  1  0.994366  0.397005  0.399824  1
  Si  Si474  1  0.994357  0.396998  0.367221  1
  Si  Si475  1  0.749868  0.309238  0.399729  1
  Si  Si476  1  0.749870  0.309241  0.367315  1
  Si  Si477  1  0.749873  0.105101  0.356384  1
  Si  Si478  1  0.383505  0.098840  0.383522  1
  Si  Si479  1  0.116237  0.098842  0.383522  1
  Si  Si480  1  0.384122  0.914874  0.332520  1
  Si  Si481  1  0.115628  0.914879  0.332519  1
  Si  Si482  1  0.383907  0.794412  0.359196  1
  Si  Si483  1  0.115822  0.794406  0.359196  1
  Si  Si484  1  0.383867  0.587549  0.399809  1
  Si  Si485  1  0.383872  0.587544  0.367235  1
  Si  Si486  1  0.115877  0.587550  0.399809  1
  Si  Si487  1  0.115859  0.587553  0.367235  1
  Si  Si488  1  0.500983  0.904152  0.383521  1
  Si  Si489  1  0.998764  0.904153  0.383523  1
  Si  Si490  1  0.749868  0.983331  0.383522  1
  Si  Si491  1  0.530631  0.093014  0.429439  1
  Si  Si492  1  0.969116  0.093015  0.429439  1
  Si  Si493  1  0.384352  0.219807  0.410458  1
  Si  Si494  1  0.115387  0.219802  0.410458  1
  Si  Si495  1  0.615621  0.085190  0.460124  1
  Si  Si496  1  0.884119  0.085183  0.460123  1
  Si  Si497  1  0.615842  0.205658  0.486800  1
  Si  Si498  1  0.883921  0.205646  0.486799  1
  Si  Si499  1  0.749870  0.105103  0.410661  1
  Si  Si500  1  0.469116  0.907045  0.465208  1
  Si  Si501  1  0.030631  0.907043  0.465208  1
  Si  Si502  1  0.615391  0.780258  0.484190  1
  Si  Si503  1  0.884355  0.780259  0.484190  1
  Si  Si504  1  0.384119  0.914877  0.434525  1
  Si  Si505  1  0.115626  0.914875  0.434524  1
  Si  Si506  1  0.383916  0.794402  0.407848  1
  Si  Si507  1  0.115831  0.794401  0.407848  1
  Si  Si508  1  0.249877  0.894956  0.483987  1
  Si  Si509  1  0.615625  0.085186  0.562128  1
  Si  Si510  1  0.884120  0.085183  0.562128  1
  Si  Si511  1  0.615830  0.205658  0.535452  1
  Si  Si512  1  0.883915  0.205655  0.535452  1
  Si  Si513  1  0.615876  0.412508  0.494839  1
  Si  Si514  1  0.615875  0.412511  0.527413  1
  Si  Si515  1  0.883878  0.412505  0.494839  1
  Si  Si516  1  0.883877  0.412515  0.527412  1
  Si  Si517  1  0.498768  0.095913  0.511125  1
  Si  Si518  1  -0.000000  0.095907  0.511125  1
  Si  Si519  1  0.249872  0.016729  0.511126  1
  Si  Si520  1  0.469114  0.907045  0.557043  1
  Si  Si521  1  0.030631  0.907044  0.557042  1
  Si  Si522  1  0.615392  0.780260  0.538062  1
  Si  Si523  1  0.884358  0.780257  0.538061  1
  Si  Si524  1  0.494366  0.603057  0.494824  1
  Si  Si525  1  0.494366  0.603058  0.527427  1
  Si  Si526  1  0.005386  0.603062  0.494824  1
  Si  Si527  1  0.005383  0.603060  0.527428  1
  Si  Si528  1  0.249878  0.690826  0.494919  1
  Si  Si529  1  0.249873  0.690827  0.527332  1
  Si  Si530  1  0.249875  0.894958  0.538264  1
  Si  Si531  1  0.616239  0.901223  0.511126  1
  Si  Si532  1  0.883509  0.901218  0.511126  1
  Si  Si533  1  0.530625  0.093016  0.592812  1
  Si  Si534  1  0.969115  0.093019  0.592812  1
  Si  Si535  1  0.384358  0.219808  0.611794  1
  Si  Si536  1  0.115387  0.219803  0.611794  1
  Si  Si537  1  0.505377  0.397001  0.655030  1
  Si  Si538  1  0.505382  0.396996  0.622427  1
  Si  Si539  1  0.994366  0.397005  0.655031  1
  Si  Si540  1  0.994357  0.396998  0.622428  1
  Si  Si541  1  0.749868  0.309238  0.654936  1
  Si  Si542  1  0.749870  0.309241  0.622522  1
  Si  Si543  1  0.749873  0.105101  0.611591  1
  Si  Si544  1  0.383505  0.098840  0.638729  1
  Si  Si545  1  0.116237  0.098842  0.638729  1
  Si  Si546  1  0.384122  0.914874  0.587727  1
  Si  Si547  1  0.115628  0.914879  0.587726  1
  Si  Si548  1  0.383907  0.794412  0.614403  1
  Si  Si549  1  0.115822  0.794406  0.614403  1
  Si  Si550  1  0.383867  0.587549  0.655016  1
  Si  Si551  1  0.383872  0.587544  0.622442  1
  Si  Si552  1  0.115877  0.587550  0.655016  1
  Si  Si553  1  0.115859  0.587553  0.622442  1
  Si  Si554  1  0.500983  0.904152  0.638728  1
  Si  Si555  1  0.998764  0.904153  0.638730  1
  Si  Si556  1  0.749868  0.983331  0.638729  1
  Si  Si557  1  0.530631  0.093014  0.684646  1
  Si  Si558  1  0.969116  0.093015  0.684646  1
  Si  Si559  1  0.384352  0.219807  0.665665  1
  Si  Si560  1  0.115387  0.219802  0.665665  1
  Si  Si561  1  0.615621  0.085190  0.715331  1
  Si  Si562  1  0.884119  0.085183  0.715330  1
  Si  Si563  1  0.615842  0.205658  0.742007  1
  Si  Si564  1  0.883921  0.205646  0.742006  1
  Si  Si565  1  0.749870  0.105103  0.665868  1
  Si  Si566  1  0.469116  0.907045  0.720415  1
  Si  Si567  1  0.030631  0.907043  0.720415  1
  Si  Si568  1  0.615391  0.780258  0.739397  1
  Si  Si569  1  0.884355  0.780259  0.739397  1
  Si  Si570  1  0.384119  0.914877  0.689732  1
  Si  Si571  1  0.115626  0.914875  0.689731  1
  Si  Si572  1  0.383916  0.794402  0.663055  1
  Si  Si573  1  0.115831  0.794401  0.663055  1
  Si  Si574  1  0.249877  0.894956  0.739194  1
  Si  Si575  1  0.615625  0.085186  0.817335  1
  Si  Si576  1  0.884120  0.085183  0.817335  1
  Si  Si577  1  0.615830  0.205658  0.790659  1
  Si  Si578  1  0.883915  0.205655  0.790659  1
  Si  Si579  1  0.615876  0.412508  0.750046  1
  Si  Si580  1  0.615875  0.412511  0.782620  1
  Si  Si581  1  0.883878  0.412505  0.750046  1
  Si  Si582  1  0.883877  0.412515  0.782619  1
  Si  Si583  1  0.498768  0.095913  0.766332  1
  Si  Si584  1  -0.000000  0.095907  0.766332  1
  Si  Si585  1  0.249872  0.016729  0.766333  1
  Si  Si586  1  0.469114  0.907045  0.812250  1
  Si  Si587  1  0.030631  0.907044  0.812249  1
  Si  Si588  1  0.615392  0.780260  0.793269  1
  Si  Si589  1  0.884358  0.780257  0.793268  1
  Si  Si590  1  0.494366  0.603057  0.750031  1
  Si  Si591  1  0.494366  0.603058  0.782634  1
  Si  Si592  1  0.005386  0.603062  0.750031  1
  Si  Si593  1  0.005383  0.603060  0.782635  1
  Si  Si594  1  0.249878  0.690826  0.750126  1
  Si  Si595  1  0.249873  0.690827  0.782539  1
  Si  Si596  1  0.249875  0.894958  0.793471  1
  Si  Si597  1  0.616239  0.901223  0.766333  1
  Si  Si598  1  0.883509  0.901218  0.766333  1
  H  H599  1  0.071786  0.887534  0.052676  1
  H  H600  1  0.427954  0.887535  0.052677  1
  H  H601  1  0.571792  0.112526  0.057387  1
  H  H602  1  0.927958  0.112526  0.057387  1
  H  H603  1  0.071786  0.887534  0.837261  1
  H  H604  1  0.427954  0.887535  0.837261  1
  H  H605  1  0.571792  0.112526  0.841971  1
  H  H606  1  0.927958  0.112526  0.841971  1
