# generated using pymatgen
data_Si38H2O77
_symmetry_space_group_name_H-M   'P 1'
_cell_length_a   17.25043091
_cell_length_b   17.25135508
_cell_length_c   85.88704453
_cell_angle_alpha   90.00000000
_cell_angle_beta   90.00000000
_cell_angle_gamma   120.00000000
_symmetry_Int_Tables_number   1
_chemical_formula_structural   Si38H2O77
_chemical_formula_sum   'Si228 H12 O462'
_cell_volume   22135.0981704
_cell_formula_units_Z   6
loop_
 _symmetry_equiv_pos_site_id
 _symmetry_equiv_pos_as_xyz
  1  'x, y, z'
loop_
 _atom_site_type_symbol
 _atom_site_label
 _atom_site_symmetry_multiplicity
 _atom_site_fract_x
 _atom_site_fract_y
 _atom_site_fract_z
 _atom_site_occupancy
  O  O1  1  0.997290  0.289562  0.146759  1
  O  O2  1  0.292369  0.289550  0.146757  1
  O  O3  1  0.289642  0.292293  0.090866  1
  O  O4  1  0.002754  0.292292  0.090869  1
  O  O5  1  -0.000000  0.250792  0.118814  1
  O  O6  1  0.250869  0.250784  0.118810  1
  O  O7  1  0.144394  0.288691  0.135133  1
  O  O8  1  0.288779  0.144324  0.102491  1
  O  O9  1  0.855642  0.144328  0.102494  1
  O  O10  1  0.104884  0.408205  0.127039  1
  O  O11  1  0.303428  0.408200  0.127037  1
  O  O12  1  0.408280  0.303329  0.110585  1
  O  O13  1  0.696607  0.104788  0.110588  1
  O  O14  1  0.408280  0.104790  0.110587  1
  O  O15  1  0.895150  0.303335  0.110587  1
  O  O16  1  0.686814  0.100520  0.168928  1
  O  O17  1  0.413793  0.313132  0.168930  1
  O  O18  1  0.899426  0.313145  0.168933  1
  O  O19  1  0.413780  0.100522  0.168928  1
  O  O20  1  0.100605  0.413729  0.068696  1
  O  O21  1  0.313223  0.413736  0.068695  1
  O  O22  1  0.676343  0.123665  0.139310  1
  O  O23  1  0.447438  0.323600  0.139305  1
  O  O24  1  0.876260  0.323605  0.139307  1
  O  O25  1  0.447424  0.123671  0.139309  1
  O  O26  1  0.123769  0.447365  0.098323  1
  O  O27  1  0.323708  0.447366  0.098322  1
  O  O28  1  0.826554  0.173342  0.151638  1
  O  O29  1  0.346876  0.173346  0.151635  1
  O  O30  1  0.173459  0.346808  0.085992  1
  O  O31  1  0.570669  0.429289  0.119709  1
  O  O32  1  0.570661  0.141213  0.119710  1
  O  O33  1  0.858712  0.429281  0.119711  1
  O  O34  1  0.742656  0.485227  0.121631  1
  O  O35  1  0.514727  0.257283  0.121629  1
  O  O36  1  0.742651  0.257274  0.121631  1
  O  O37  1  0.292379  0.002683  0.146758  1
  O  O38  1  0.710407  0.002694  0.146759  1
  O  O39  1  0.997235  0.289555  0.252353  1
  O  O40  1  0.292335  0.289549  0.252353  1
  O  O41  1  0.144362  0.288685  0.263978  1
  O  O42  1  0.104844  0.408199  0.272074  1
  O  O43  1  0.303392  0.408191  0.272072  1
  O  O44  1  0.686781  0.100514  0.230180  1
  O  O45  1  0.413774  0.313134  0.230178  1
  O  O46  1  0.899396  0.313136  0.230182  1
  O  O47  1  0.413763  0.100510  0.230180  1
  O  O48  1  0.676286  0.123663  0.259806  1
  O  O49  1  0.447402  0.323597  0.259804  1
  O  O50  1  0.876224  0.323590  0.259805  1
  O  O51  1  0.447396  0.123670  0.259805  1
  O  O52  1  0.826561  0.173376  0.247474  1
  O  O53  1  0.346836  0.173360  0.247472  1
  O  O54  1  0.742625  0.485226  0.277481  1
  O  O55  1  0.514683  0.257276  0.277480  1
  O  O56  1  0.742619  0.257270  0.277481  1
  O  O57  1  0.848216  0.424037  0.178396  1
  O  O58  1  0.575898  0.424042  0.178395  1
  O  O59  1  0.575896  0.151715  0.178396  1
  O  O60  1  0.848198  0.424029  0.220716  1
  O  O61  1  0.575877  0.424031  0.220715  1
  O  O62  1  0.575875  0.151710  0.220716  1
  O  O63  1  0.870872  0.332502  0.199557  1
  O  O64  1  0.461685  0.129052  0.199555  1
  O  O65  1  0.667420  0.129052  0.199555  1
  O  O66  1  0.461682  0.332499  0.199556  1
  O  O67  1  0.745221  0.254699  0.180249  1
  O  O68  1  0.745226  0.490381  0.180249  1
  O  O69  1  0.509554  0.254703  0.180250  1
  O  O70  1  0.745210  0.254706  0.218862  1
  O  O71  1  0.745213  0.490377  0.218862  1
  O  O72  1  0.509535  0.254707  0.218862  1
  O  O73  1  0.292327  0.002661  0.252353  1
  O  O74  1  0.710368  0.002666  0.252350  1
  O  O75  1  0.570634  0.429281  0.279402  1
  O  O76  1  0.570621  0.141218  0.279404  1
  O  O77  1  0.858673  0.429275  0.279402  1
  O  O78  1  0.710402  0.707572  0.146759  1
  O  O79  1  0.997272  0.707561  0.146759  1
  O  O80  1  0.002749  0.710293  0.090870  1
  O  O81  1  0.707653  0.710303  0.090867  1
  O  O82  1  0.749168  0.749073  0.118812  1
  O  O83  1  0.250857  0.000000  0.118813  1
  O  O84  1  0.000000  0.749057  0.118814  1
  O  O85  1  0.711273  0.855568  0.135132  1
  O  O86  1  0.144396  0.855553  0.135131  1
  O  O87  1  0.855627  0.711151  0.102492  1
  O  O88  1  0.591754  0.696535  0.127038  1
  O  O89  1  0.303411  0.895073  0.127038  1
  O  O90  1  0.591768  0.895074  0.127039  1
  O  O91  1  0.104881  0.696524  0.127039  1
  O  O92  1  0.895149  0.591653  0.110589  1
  O  O93  1  0.696602  0.591657  0.110588  1
  O  O94  1  0.899420  0.586133  0.168932  1
  O  O95  1  0.686799  0.586137  0.168930  1
  O  O96  1  0.313206  0.899334  0.068695  1
  O  O97  1  0.586216  0.686734  0.068696  1
  O  O98  1  0.100606  0.686725  0.068697  1
  O  O99  1  0.586232  0.899347  0.068697  1
  O  O100  1  0.876269  0.552501  0.139307  1
  O  O101  1  0.676329  0.552508  0.139306  1
  O  O102  1  0.323702  0.876188  0.098322  1
  O  O103  1  0.552591  0.676274  0.098322  1
  O  O104  1  0.123779  0.676265  0.098323  1
  O  O105  1  0.552592  0.876189  0.098323  1
  O  O106  1  0.826575  0.653056  0.151637  1
  O  O107  1  0.173441  0.826488  0.085993  1
  O  O108  1  0.653157  0.826500  0.085991  1
  O  O109  1  0.429377  0.570585  0.117918  1
  O  O110  1  0.429383  0.858642  0.117922  1
  O  O111  1  0.141320  0.570578  0.117920  1
  O  O112  1  0.257371  0.514627  0.116000  1
  O  O113  1  0.485316  0.742588  0.115999  1
  O  O114  1  0.257376  0.742586  0.116000  1
  O  O115  1  0.707665  0.997194  0.090868  1
  O  O116  1  0.289630  0.997190  0.090867  1
  O  O117  1  0.749171  -0.000000  0.118814  1
  O  O118  1  0.710369  0.707577  0.252350  1
  O  O119  1  0.997242  0.707565  0.252353  1
  O  O120  1  0.711233  0.855545  0.263977  1
  O  O121  1  0.144356  0.855554  0.263980  1
  O  O122  1  0.591728  0.696536  0.272069  1
  O  O123  1  0.303382  0.895076  0.272072  1
  O  O124  1  0.591728  0.895074  0.272070  1
  O  O125  1  0.104850  0.696525  0.272074  1
  O  O126  1  0.899408  0.586133  0.230182  1
  O  O127  1  0.686779  0.586136  0.230179  1
  O  O128  1  0.876235  0.552500  0.259807  1
  O  O129  1  0.676286  0.552493  0.259805  1
  O  O130  1  0.826555  0.653058  0.247475  1
  O  O131  1  0.667416  0.538230  0.199556  1
  O  O132  1  0.870877  0.538226  0.199557  1
  O  O133  1  0.289609  0.292295  0.308244  1
  O  O134  1  0.002730  0.292302  0.308245  1
  O  O135  1  0.250839  0.250784  0.280299  1
  O  O136  1  0.000000  0.250785  0.280300  1
  O  O137  1  0.288746  0.144311  0.296620  1
  O  O138  1  0.855589  0.144308  0.296619  1
  O  O139  1  0.408248  0.303327  0.288524  1
  O  O140  1  0.696581  0.104785  0.288524  1
  O  O141  1  0.408240  0.104789  0.288524  1
  O  O142  1  0.895112  0.303335  0.288525  1
  O  O143  1  0.100579  0.413729  0.330415  1
  O  O144  1  0.313200  0.413733  0.330414  1
  O  O145  1  0.123733  0.447365  0.300788  1
  O  O146  1  0.323675  0.447363  0.300788  1
  O  O147  1  0.173426  0.346809  0.313119  1
  O  O148  1  0.332582  0.461629  0.361040  1
  O  O149  1  0.129117  0.461625  0.361041  1
  O  O150  1  0.997290  0.289562  0.469729  1
  O  O151  1  0.292369  0.289550  0.469727  1
  O  O152  1  0.289642  0.292293  0.413836  1
  O  O153  1  0.002754  0.292292  0.413839  1
  O  O154  1  0.000000  0.250792  0.441784  1
  O  O155  1  0.250869  0.250784  0.441780  1
  O  O156  1  0.144394  0.288691  0.458103  1
  O  O157  1  0.288779  0.144324  0.425461  1
  O  O158  1  0.855642  0.144328  0.425464  1
  O  O159  1  0.104884  0.408205  0.450009  1
  O  O160  1  0.303428  0.408200  0.450007  1
  O  O161  1  0.408280  0.303329  0.433555  1
  O  O162  1  0.696607  0.104788  0.433558  1
  O  O163  1  0.408280  0.104790  0.433557  1
  O  O164  1  0.895150  0.303335  0.433557  1
  O  O165  1  0.686814  0.100520  0.491898  1
  O  O166  1  0.413793  0.313132  0.491900  1
  O  O167  1  0.899426  0.313145  0.491903  1
  O  O168  1  0.413780  0.100522  0.491898  1
  O  O169  1  0.100605  0.413729  0.391666  1
  O  O170  1  0.313223  0.413736  0.391665  1
  O  O171  1  0.676343  0.123665  0.462280  1
  O  O172  1  0.447438  0.323600  0.462275  1
  O  O173  1  0.876260  0.323605  0.462277  1
  O  O174  1  0.447424  0.123671  0.462279  1
  O  O175  1  0.123769  0.447365  0.421293  1
  O  O176  1  0.323708  0.447366  0.421292  1
  O  O177  1  0.826554  0.173342  0.474608  1
  O  O178  1  0.346876  0.173346  0.474605  1
  O  O179  1  0.173459  0.346808  0.408962  1
  O  O180  1  0.570669  0.429289  0.442679  1
  O  O181  1  0.570661  0.141213  0.442680  1
  O  O182  1  0.858712  0.429281  0.442681  1
  O  O183  1  0.742656  0.485227  0.444601  1
  O  O184  1  0.514727  0.257283  0.444599  1
  O  O185  1  0.742651  0.257274  0.444600  1
  O  O186  1  0.292379  0.002683  0.469728  1
  O  O187  1  0.710407  0.002694  0.469729  1
  O  O188  1  0.997235  0.289555  0.575323  1
  O  O189  1  0.292335  0.289549  0.575323  1
  O  O190  1  0.144362  0.288685  0.586948  1
  O  O191  1  0.104844  0.408199  0.595044  1
  O  O192  1  0.303392  0.408191  0.595041  1
  O  O193  1  0.686781  0.100514  0.553150  1
  O  O194  1  0.413774  0.313134  0.553148  1
  O  O195  1  0.899396  0.313136  0.553152  1
  O  O196  1  0.413763  0.100510  0.553150  1
  O  O197  1  0.676286  0.123663  0.582775  1
  O  O198  1  0.447402  0.323597  0.582774  1
  O  O199  1  0.876224  0.323590  0.582775  1
  O  O200  1  0.447396  0.123670  0.582774  1
  O  O201  1  0.826561  0.173376  0.570444  1
  O  O202  1  0.346836  0.173360  0.570442  1
  O  O203  1  0.742625  0.485226  0.600451  1
  O  O204  1  0.514683  0.257276  0.600450  1
  O  O205  1  0.742619  0.257270  0.600451  1
  O  O206  1  0.848216  0.424037  0.501366  1
  O  O207  1  0.575898  0.424042  0.501365  1
  O  O208  1  0.575896  0.151715  0.501366  1
  O  O209  1  0.848198  0.424029  0.543686  1
  O  O210  1  0.575877  0.424031  0.543684  1
  O  O211  1  0.575875  0.151710  0.543686  1
  O  O212  1  0.870872  0.332502  0.522527  1
  O  O213  1  0.461685  0.129052  0.522524  1
  O  O214  1  0.667420  0.129052  0.522524  1
  O  O215  1  0.461682  0.332499  0.522526  1
  O  O216  1  0.745221  0.254699  0.503219  1
  O  O217  1  0.745226  0.490381  0.503219  1
  O  O218  1  0.509554  0.254703  0.503220  1
  O  O219  1  0.745210  0.254706  0.541832  1
  O  O220  1  0.745213  0.490377  0.541832  1
  O  O221  1  0.509535  0.254707  0.541832  1
  O  O222  1  0.292327  0.002661  0.575323  1
  O  O223  1  0.710368  0.002666  0.575320  1
  O  O224  1  0.570634  0.429281  0.602372  1
  O  O225  1  0.570621  0.141218  0.602374  1
  O  O226  1  0.858673  0.429275  0.602372  1
  O  O227  1  0.002719  0.710291  0.308245  1
  O  O228  1  0.707610  0.710302  0.308240  1
  O  O229  1  0.749144  -0.000000  0.280298  1
  O  O230  1  0.855583  0.711150  0.296620  1
  O  O231  1  0.895115  0.591646  0.288524  1
  O  O232  1  0.696573  0.591659  0.288523  1
  O  O233  1  0.313189  0.899339  0.330415  1
  O  O234  1  0.586193  0.686741  0.330413  1
  O  O235  1  0.100581  0.686723  0.330416  1
  O  O236  1  0.586203  0.899335  0.330412  1
  O  O237  1  0.323678  0.876195  0.300788  1
  O  O238  1  0.552557  0.676258  0.300790  1
  O  O239  1  0.123747  0.676258  0.300789  1
  O  O240  1  0.552563  0.876182  0.300791  1
  O  O241  1  0.173418  0.826490  0.313120  1
  O  O242  1  0.653101  0.826494  0.313114  1
  O  O243  1  0.257336  0.514633  0.283110  1
  O  O244  1  0.485268  0.742575  0.283107  1
  O  O245  1  0.257336  0.742585  0.283111  1
  O  O246  1  0.151784  0.575823  0.339881  1
  O  O247  1  0.424108  0.575841  0.339881  1
  O  O248  1  0.424114  0.848156  0.339880  1
  O  O249  1  0.151798  0.575826  0.382201  1
  O  O250  1  0.424116  0.575837  0.382200  1
  O  O251  1  0.424122  0.848160  0.382201  1
  O  O252  1  0.129123  0.667361  0.361042  1
  O  O253  1  0.538321  0.870826  0.361039  1
  O  O254  1  0.332569  0.870819  0.361041  1
  O  O255  1  0.538313  0.667369  0.361038  1
  O  O256  1  0.254772  0.745161  0.341733  1
  O  O257  1  0.254768  0.509477  0.341734  1
  O  O258  1  0.490436  0.745157  0.341735  1
  O  O259  1  0.254785  0.745157  0.380347  1
  O  O260  1  0.254783  0.509480  0.380347  1
  O  O261  1  0.490461  0.745165  0.380348  1
  O  O262  1  0.707606  0.997172  0.308241  1
  O  O263  1  0.289602  0.997188  0.308243  1
  O  O264  1  0.000000  0.749068  0.280300  1
  O  O265  1  0.250832  0.000000  0.280299  1
  O  O266  1  0.749142  0.749069  0.280298  1
  O  O267  1  0.429331  0.570569  0.281190  1
  O  O268  1  0.429332  0.858646  0.281189  1
  O  O269  1  0.141284  0.570584  0.281192  1
  O  O270  1  0.710402  0.707572  0.469728  1
  O  O271  1  0.997272  0.707561  0.469729  1
  O  O272  1  0.002749  0.710293  0.413840  1
  O  O273  1  0.707653  0.710303  0.413837  1
  O  O274  1  0.749168  0.749073  0.441782  1
  O  O275  1  0.250857  0.000000  0.441783  1
  O  O276  1  -0.000000  0.749057  0.441784  1
  O  O277  1  0.711273  0.855568  0.458102  1
  O  O278  1  0.144396  0.855553  0.458101  1
  O  O279  1  0.855627  0.711151  0.425462  1
  O  O280  1  0.591754  0.696535  0.450008  1
  O  O281  1  0.303411  0.895073  0.450008  1
  O  O282  1  0.591768  0.895074  0.450009  1
  O  O283  1  0.104881  0.696524  0.450009  1
  O  O284  1  0.895149  0.591653  0.433559  1
  O  O285  1  0.696602  0.591657  0.433557  1
  O  O286  1  0.899420  0.586133  0.491902  1
  O  O287  1  0.686799  0.586137  0.491900  1
  O  O288  1  0.313206  0.899334  0.391665  1
  O  O289  1  0.586216  0.686734  0.391666  1
  O  O290  1  0.100606  0.686725  0.391667  1
  O  O291  1  0.586232  0.899347  0.391667  1
  O  O292  1  0.876269  0.552501  0.462277  1
  O  O293  1  0.676329  0.552508  0.462276  1
  O  O294  1  0.323702  0.876188  0.421292  1
  O  O295  1  0.552591  0.676274  0.421291  1
  O  O296  1  0.123779  0.676265  0.421293  1
  O  O297  1  0.552592  0.876189  0.421293  1
  O  O298  1  0.826575  0.653056  0.474607  1
  O  O299  1  0.173441  0.826488  0.408963  1
  O  O300  1  0.653157  0.826500  0.408961  1
  O  O301  1  0.429377  0.570585  0.440888  1
  O  O302  1  0.429383  0.858642  0.440891  1
  O  O303  1  0.141320  0.570578  0.440890  1
  O  O304  1  0.257371  0.514627  0.438969  1
  O  O305  1  0.485316  0.742588  0.438969  1
  O  O306  1  0.257376  0.742586  0.438969  1
  O  O307  1  0.707665  0.997194  0.413838  1
  O  O308  1  0.289630  0.997190  0.413837  1
  O  O309  1  0.749171  0.000000  0.441784  1
  O  O310  1  0.710369  0.707577  0.575320  1
  O  O311  1  0.997242  0.707565  0.575323  1
  O  O312  1  0.711233  0.855545  0.586947  1
  O  O313  1  0.144356  0.855554  0.586949  1
  O  O314  1  0.591728  0.696536  0.595039  1
  O  O315  1  0.303382  0.895076  0.595042  1
  O  O316  1  0.591728  0.895074  0.595040  1
  O  O317  1  0.104850  0.696525  0.595043  1
  O  O318  1  0.899408  0.586133  0.553152  1
  O  O319  1  0.686779  0.586136  0.553149  1
  O  O320  1  0.876235  0.552500  0.582777  1
  O  O321  1  0.676286  0.552493  0.582775  1
  O  O322  1  0.826555  0.653058  0.570445  1
  O  O323  1  0.667416  0.538230  0.522526  1
  O  O324  1  0.870877  0.538226  0.522527  1
  O  O325  1  0.289609  0.292295  0.631213  1
  O  O326  1  0.002730  0.292302  0.631215  1
  O  O327  1  0.250839  0.250784  0.603268  1
  O  O328  1  0.000000  0.250785  0.603269  1
  O  O329  1  0.288746  0.144311  0.619589  1
  O  O330  1  0.855589  0.144308  0.619588  1
  O  O331  1  0.408248  0.303327  0.611494  1
  O  O332  1  0.696581  0.104785  0.611494  1
  O  O333  1  0.408240  0.104789  0.611494  1
  O  O334  1  0.895112  0.303335  0.611495  1
  O  O335  1  0.100579  0.413729  0.653385  1
  O  O336  1  0.313200  0.413733  0.653384  1
  O  O337  1  0.123733  0.447365  0.623758  1
  O  O338  1  0.323675  0.447363  0.623758  1
  O  O339  1  0.173426  0.346809  0.636089  1
  O  O340  1  0.332582  0.461629  0.684010  1
  O  O341  1  0.129117  0.461625  0.684011  1
  O  O342  1  0.997290  0.289562  0.792699  1
  O  O343  1  0.292369  0.289550  0.792696  1
  O  O344  1  0.289642  0.292293  0.736806  1
  O  O345  1  0.002754  0.292292  0.736809  1
  O  O346  1  -0.000000  0.250792  0.764753  1
  O  O347  1  0.250869  0.250784  0.764750  1
  O  O348  1  0.144394  0.288691  0.781073  1
  O  O349  1  0.288779  0.144324  0.748431  1
  O  O350  1  0.855642  0.144328  0.748433  1
  O  O351  1  0.104884  0.408205  0.772979  1
  O  O352  1  0.303428  0.408200  0.772977  1
  O  O353  1  0.408280  0.303329  0.756525  1
  O  O354  1  0.696607  0.104788  0.756528  1
  O  O355  1  0.408280  0.104790  0.756527  1
  O  O356  1  0.895150  0.303335  0.756527  1
  O  O357  1  0.686814  0.100520  0.814868  1
  O  O358  1  0.413793  0.313132  0.814870  1
  O  O359  1  0.899426  0.313145  0.814873  1
  O  O360  1  0.413780  0.100522  0.814868  1
  O  O361  1  0.100605  0.413729  0.714636  1
  O  O362  1  0.313223  0.413736  0.714635  1
  O  O363  1  0.676343  0.123665  0.785250  1
  O  O364  1  0.447438  0.323600  0.785245  1
  O  O365  1  0.876260  0.323605  0.785246  1
  O  O366  1  0.447424  0.123671  0.785249  1
  O  O367  1  0.123769  0.447365  0.744263  1
  O  O368  1  0.323708  0.447366  0.744262  1
  O  O369  1  0.826554  0.173342  0.797577  1
  O  O370  1  0.346876  0.173346  0.797575  1
  O  O371  1  0.173459  0.346808  0.731932  1
  O  O372  1  0.570669  0.429289  0.765649  1
  O  O373  1  0.570661  0.141213  0.765650  1
  O  O374  1  0.858712  0.429281  0.765651  1
  O  O375  1  0.742656  0.485227  0.767571  1
  O  O376  1  0.514727  0.257283  0.767569  1
  O  O377  1  0.742651  0.257274  0.767570  1
  O  O378  1  0.292379  0.002683  0.792698  1
  O  O379  1  0.710407  0.002694  0.792699  1
  O  O380  1  0.002719  0.710291  0.631215  1
  O  O381  1  0.707610  0.710302  0.631210  1
  O  O382  1  0.749144  -0.000000  0.603267  1
  O  O383  1  0.855583  0.711150  0.619590  1
  O  O384  1  0.895115  0.591646  0.611494  1
  O  O385  1  0.696573  0.591659  0.611493  1
  O  O386  1  0.313189  0.899339  0.653385  1
  O  O387  1  0.586193  0.686741  0.653383  1
  O  O388  1  0.100581  0.686723  0.653386  1
  O  O389  1  0.586203  0.899335  0.653381  1
  O  O390  1  0.323678  0.876195  0.623758  1
  O  O391  1  0.552557  0.676258  0.623760  1
  O  O392  1  0.123747  0.676258  0.623759  1
  O  O393  1  0.552563  0.876182  0.623761  1
  O  O394  1  0.173418  0.826490  0.636090  1
  O  O395  1  0.653101  0.826494  0.636083  1
  O  O396  1  0.257336  0.514633  0.606080  1
  O  O397  1  0.485268  0.742575  0.606077  1
  O  O398  1  0.257336  0.742585  0.606081  1
  O  O399  1  0.151784  0.575823  0.662851  1
  O  O400  1  0.424108  0.575841  0.662851  1
  O  O401  1  0.424114  0.848156  0.662850  1
  O  O402  1  0.151798  0.575826  0.705171  1
  O  O403  1  0.424116  0.575837  0.705170  1
  O  O404  1  0.424122  0.848160  0.705171  1
  O  O405  1  0.129123  0.667361  0.684012  1
  O  O406  1  0.538321  0.870826  0.684009  1
  O  O407  1  0.332569  0.870819  0.684011  1
  O  O408  1  0.538313  0.667369  0.684008  1
  O  O409  1  0.254772  0.745161  0.664703  1
  O  O410  1  0.254768  0.509477  0.664704  1
  O  O411  1  0.490436  0.745157  0.664705  1
  O  O412  1  0.254785  0.745157  0.703317  1
  O  O413  1  0.254783  0.509480  0.703317  1
  O  O414  1  0.490461  0.745165  0.703318  1
  O  O415  1  0.707606  0.997172  0.631211  1
  O  O416  1  0.289602  0.997188  0.631213  1
  O  O417  1  0.000000  0.749068  0.603269  1
  O  O418  1  0.250832  0.000000  0.603269  1
  O  O419  1  0.749142  0.749069  0.603267  1
  O  O420  1  0.429331  0.570569  0.604160  1
  O  O421  1  0.429332  0.858646  0.604159  1
  O  O422  1  0.141284  0.570584  0.604162  1
  O  O423  1  0.710402  0.707572  0.792698  1
  O  O424  1  0.997272  0.707561  0.792699  1
  O  O425  1  0.002749  0.710293  0.736809  1
  O  O426  1  0.707653  0.710303  0.736807  1
  O  O427  1  0.749168  0.749073  0.764752  1
  O  O428  1  0.250857  0.000000  0.764752  1
  O  O429  1  0.000000  0.749057  0.764753  1
  O  O430  1  0.711273  0.855568  0.781072  1
  O  O431  1  0.144396  0.855553  0.781071  1
  O  O432  1  0.855627  0.711151  0.748432  1
  O  O433  1  0.591754  0.696535  0.772978  1
  O  O434  1  0.303411  0.895073  0.772978  1
  O  O435  1  0.591768  0.895074  0.772979  1
  O  O436  1  0.104881  0.696524  0.772979  1
  O  O437  1  0.895149  0.591653  0.756529  1
  O  O438  1  0.696602  0.591657  0.756527  1
  O  O439  1  0.899420  0.586133  0.814872  1
  O  O440  1  0.686799  0.586137  0.814870  1
  O  O441  1  0.313206  0.899334  0.714635  1
  O  O442  1  0.586216  0.686734  0.714636  1
  O  O443  1  0.100606  0.686725  0.714637  1
  O  O444  1  0.586232  0.899347  0.714637  1
  O  O445  1  0.876269  0.552501  0.785247  1
  O  O446  1  0.676329  0.552508  0.785246  1
  O  O447  1  0.323702  0.876188  0.744262  1
  O  O448  1  0.552591  0.676274  0.744261  1
  O  O449  1  0.123779  0.676265  0.744263  1
  O  O450  1  0.552592  0.876189  0.744263  1
  O  O451  1  0.826575  0.653056  0.797576  1
  O  O452  1  0.173441  0.826488  0.731933  1
  O  O453  1  0.653157  0.826500  0.731931  1
  O  O454  1  0.429377  0.570585  0.763858  1
  O  O455  1  0.429383  0.858642  0.763861  1
  O  O456  1  0.141320  0.570578  0.763859  1
  O  O457  1  0.257371  0.514627  0.761939  1
  O  O458  1  0.485316  0.742588  0.761939  1
  O  O459  1  0.257376  0.742586  0.761939  1
  O  O460  1  0.707665  0.997194  0.736808  1
  O  O461  1  0.289630  0.997190  0.736807  1
  O  O462  1  0.749171  -0.000000  0.764754  1
  Si  Si463  1  0.667261  0.155207  0.122471  1
  Si  Si464  1  0.488057  0.332683  0.122466  1
  Si  Si465  1  0.844721  0.332683  0.122469  1
  Si  Si466  1  0.064415  0.307725  0.132679  1
  Si  Si467  1  0.243405  0.307718  0.132676  1
  Si  Si468  1  0.307807  0.243327  0.104943  1
  Si  Si469  1  0.756625  0.064333  0.104946  1
  Si  Si470  1  0.307799  0.064329  0.104945  1
  Si  Si471  1  0.935624  0.243328  0.104946  1
  Si  Si472  1  0.724452  0.097062  0.152238  1
  Si  Si473  1  0.372715  0.275469  0.152232  1
  Si  Si474  1  0.902847  0.275476  0.152235  1
  Si  Si475  1  0.372701  0.097064  0.152236  1
  Si  Si476  1  0.097171  0.372645  0.085393  1
  Si  Si477  1  0.275583  0.372647  0.085392  1
  Si  Si478  1  0.332780  0.487985  0.115160  1
  Si  Si479  1  0.155318  0.487984  0.115161  1
  Si  Si480  1  0.488049  0.155211  0.122471  1
  Si  Si481  1  0.064381  0.307727  0.266432  1
  Si  Si482  1  0.243377  0.307721  0.266432  1
  Si  Si483  1  0.724426  0.097084  0.246877  1
  Si  Si484  1  0.372682  0.275484  0.246874  1
  Si  Si485  1  0.902835  0.275489  0.246876  1
  Si  Si486  1  0.372675  0.097074  0.246876  1
  Si  Si487  1  0.845510  0.333026  0.181752  1
  Si  Si488  1  0.487579  0.154409  0.181749  1
  Si  Si489  1  0.666905  0.154405  0.181748  1
  Si  Si490  1  0.487585  0.333026  0.181751  1
  Si  Si491  1  0.845502  0.333024  0.217362  1
  Si  Si492  1  0.487572  0.154425  0.217361  1
  Si  Si493  1  0.666892  0.154420  0.217360  1
  Si  Si494  1  0.487573  0.333026  0.217361  1
  Si  Si495  1  0.488014  0.155213  0.276642  1
  Si  Si496  1  0.844680  0.332676  0.276644  1
  Si  Si497  1  0.488026  0.332679  0.276642  1
  Si  Si498  1  0.667219  0.155202  0.276642  1
  Si  Si499  1  0.844717  0.511879  0.122469  1
  Si  Si500  1  0.667258  0.511890  0.122468  1
  Si  Si501  1  0.692232  0.756547  0.132680  1
  Si  Si502  1  0.243404  0.935535  0.132681  1
  Si  Si503  1  0.692231  0.935543  0.132683  1
  Si  Si504  1  0.064413  0.756535  0.132680  1
  Si  Si505  1  0.935611  0.692123  0.104946  1
  Si  Si506  1  0.756614  0.692126  0.104944  1
  Si  Si507  1  0.902859  0.627215  0.152236  1
  Si  Si508  1  0.724449  0.627217  0.152235  1
  Si  Si509  1  0.275566  0.902776  0.085393  1
  Si  Si510  1  0.627313  0.724381  0.085392  1
  Si  Si511  1  0.097165  0.724373  0.085393  1
  Si  Si512  1  0.627315  0.902784  0.085393  1
  Si  Si513  1  0.511985  0.844648  0.115161  1
  Si  Si514  1  0.155317  0.667178  0.115161  1
  Si  Si515  1  0.511969  0.667187  0.115160  1
  Si  Si516  1  0.332776  0.844649  0.115160  1
  Si  Si517  1  0.844683  0.511875  0.276643  1
  Si  Si518  1  0.667224  0.511885  0.276643  1
  Si  Si519  1  0.845506  0.512342  0.217362  1
  Si  Si520  1  0.666885  0.512341  0.217361  1
  Si  Si521  1  0.845511  0.512342  0.181751  1
  Si  Si522  1  0.666910  0.512352  0.181750  1
  Si  Si523  1  0.724423  0.627216  0.246875  1
  Si  Si524  1  0.902832  0.627206  0.246877  1
  Si  Si525  1  0.692212  0.756544  0.266431  1
  Si  Si526  1  0.243365  0.935533  0.266433  1
  Si  Si527  1  0.692212  0.935535  0.266431  1
  Si  Si528  1  0.064384  0.756532  0.266432  1
  Si  Si529  1  0.155279  0.487985  0.283950  1
  Si  Si530  1  0.332735  0.487971  0.283949  1
  Si  Si531  1  0.154495  0.487522  0.378846  1
  Si  Si532  1  0.333114  0.487529  0.378845  1
  Si  Si533  1  0.154485  0.487520  0.343236  1
  Si  Si534  1  0.307763  0.243314  0.294166  1
  Si  Si535  1  0.756585  0.064320  0.294167  1
  Si  Si536  1  0.307760  0.064322  0.294167  1
  Si  Si537  1  0.935578  0.243324  0.294168  1
  Si  Si538  1  0.097144  0.372650  0.313718  1
  Si  Si539  1  0.275547  0.372643  0.313718  1
  Si  Si540  1  0.333100  0.487532  0.343235  1
  Si  Si541  1  0.667261  0.155207  0.445441  1
  Si  Si542  1  0.488057  0.332683  0.445436  1
  Si  Si543  1  0.844721  0.332683  0.445439  1
  Si  Si544  1  0.064415  0.307725  0.455649  1
  Si  Si545  1  0.243405  0.307718  0.455646  1
  Si  Si546  1  0.307807  0.243327  0.427913  1
  Si  Si547  1  0.756625  0.064333  0.427916  1
  Si  Si548  1  0.307799  0.064329  0.427915  1
  Si  Si549  1  0.935624  0.243328  0.427916  1
  Si  Si550  1  0.724452  0.097062  0.475208  1
  Si  Si551  1  0.372715  0.275469  0.475202  1
  Si  Si552  1  0.902847  0.275476  0.475205  1
  Si  Si553  1  0.372701  0.097064  0.475206  1
  Si  Si554  1  0.097171  0.372645  0.408363  1
  Si  Si555  1  0.275583  0.372647  0.408362  1
  Si  Si556  1  0.332780  0.487985  0.438130  1
  Si  Si557  1  0.155318  0.487984  0.438131  1
  Si  Si558  1  0.488049  0.155211  0.445441  1
  Si  Si559  1  0.064381  0.307727  0.589402  1
  Si  Si560  1  0.243377  0.307721  0.589402  1
  Si  Si561  1  0.724426  0.097084  0.569847  1
  Si  Si562  1  0.372682  0.275484  0.569844  1
  Si  Si563  1  0.902835  0.275489  0.569846  1
  Si  Si564  1  0.372675  0.097074  0.569846  1
  Si  Si565  1  0.845510  0.333026  0.504722  1
  Si  Si566  1  0.487579  0.154409  0.504719  1
  Si  Si567  1  0.666905  0.154405  0.504718  1
  Si  Si568  1  0.487585  0.333026  0.504721  1
  Si  Si569  1  0.845502  0.333024  0.540332  1
  Si  Si570  1  0.487572  0.154425  0.540331  1
  Si  Si571  1  0.666892  0.154420  0.540330  1
  Si  Si572  1  0.487573  0.333026  0.540331  1
  Si  Si573  1  0.488014  0.155213  0.599612  1
  Si  Si574  1  0.844680  0.332676  0.599613  1
  Si  Si575  1  0.488026  0.332679  0.599612  1
  Si  Si576  1  0.667219  0.155202  0.599612  1
  Si  Si577  1  0.935575  0.692120  0.294168  1
  Si  Si578  1  0.756578  0.692130  0.294165  1
  Si  Si579  1  0.275543  0.902779  0.313718  1
  Si  Si580  1  0.627280  0.724384  0.313717  1
  Si  Si581  1  0.097143  0.724368  0.313719  1
  Si  Si582  1  0.627291  0.902783  0.313718  1
  Si  Si583  1  0.154485  0.666831  0.343236  1
  Si  Si584  1  0.512420  0.845450  0.343235  1
  Si  Si585  1  0.333097  0.845447  0.343236  1
  Si  Si586  1  0.512414  0.666844  0.343235  1
  Si  Si587  1  0.154504  0.666832  0.378846  1
  Si  Si588  1  0.512425  0.845446  0.378845  1
  Si  Si589  1  0.333103  0.845439  0.378845  1
  Si  Si590  1  0.512420  0.666844  0.378845  1
  Si  Si591  1  0.511944  0.844650  0.283950  1
  Si  Si592  1  0.155285  0.667177  0.283951  1
  Si  Si593  1  0.511943  0.667174  0.283950  1
  Si  Si594  1  0.332732  0.844642  0.283950  1
  Si  Si595  1  0.844717  0.511879  0.445439  1
  Si  Si596  1  0.667258  0.511890  0.445438  1
  Si  Si597  1  0.692232  0.756547  0.455650  1
  Si  Si598  1  0.243404  0.935535  0.455651  1
  Si  Si599  1  0.692231  0.935543  0.455652  1
  Si  Si600  1  0.064413  0.756535  0.455650  1
  Si  Si601  1  0.935611  0.692123  0.427916  1
  Si  Si602  1  0.756614  0.692126  0.427914  1
  Si  Si603  1  0.902859  0.627215  0.475206  1
  Si  Si604  1  0.724449  0.627217  0.475205  1
  Si  Si605  1  0.275566  0.902776  0.408363  1
  Si  Si606  1  0.627313  0.724381  0.408362  1
  Si  Si607  1  0.097165  0.724373  0.408363  1
  Si  Si608  1  0.627315  0.902784  0.408363  1
  Si  Si609  1  0.511985  0.844648  0.438130  1
  Si  Si610  1  0.155317  0.667178  0.438131  1
  Si  Si611  1  0.511969  0.667187  0.438130  1
  Si  Si612  1  0.332776  0.844649  0.438130  1
  Si  Si613  1  0.844683  0.511875  0.599613  1
  Si  Si614  1  0.667224  0.511885  0.599613  1
  Si  Si615  1  0.845506  0.512342  0.540332  1
  Si  Si616  1  0.666885  0.512341  0.540331  1
  Si  Si617  1  0.845511  0.512342  0.504721  1
  Si  Si618  1  0.666910  0.512352  0.504720  1
  Si  Si619  1  0.724423  0.627216  0.569845  1
  Si  Si620  1  0.902832  0.627206  0.569847  1
  Si  Si621  1  0.692212  0.756544  0.589400  1
  Si  Si622  1  0.243365  0.935533  0.589402  1
  Si  Si623  1  0.692212  0.935535  0.589401  1
  Si  Si624  1  0.064384  0.756532  0.589402  1
  Si  Si625  1  0.155279  0.487985  0.606920  1
  Si  Si626  1  0.332735  0.487971  0.606919  1
  Si  Si627  1  0.154495  0.487522  0.701816  1
  Si  Si628  1  0.333114  0.487529  0.701815  1
  Si  Si629  1  0.154485  0.487520  0.666206  1
  Si  Si630  1  0.307763  0.243314  0.617136  1
  Si  Si631  1  0.756585  0.064320  0.617136  1
  Si  Si632  1  0.307760  0.064322  0.617137  1
  Si  Si633  1  0.935578  0.243324  0.617138  1
  Si  Si634  1  0.097144  0.372650  0.636688  1
  Si  Si635  1  0.275547  0.372643  0.636688  1
  Si  Si636  1  0.333100  0.487532  0.666205  1
  Si  Si637  1  0.667261  0.155207  0.768410  1
  Si  Si638  1  0.488057  0.332683  0.768406  1
  Si  Si639  1  0.844721  0.332683  0.768409  1
  Si  Si640  1  0.064415  0.307725  0.778619  1
  Si  Si641  1  0.243405  0.307718  0.778616  1
  Si  Si642  1  0.307807  0.243327  0.750882  1
  Si  Si643  1  0.756625  0.064333  0.750886  1
  Si  Si644  1  0.307799  0.064329  0.750884  1
  Si  Si645  1  0.935624  0.243328  0.750886  1
  Si  Si646  1  0.724452  0.097062  0.798178  1
  Si  Si647  1  0.372715  0.275469  0.798172  1
  Si  Si648  1  0.902847  0.275476  0.798175  1
  Si  Si649  1  0.372701  0.097064  0.798176  1
  Si  Si650  1  0.097171  0.372645  0.731333  1
  Si  Si651  1  0.275583  0.372647  0.731331  1
  Si  Si652  1  0.332780  0.487985  0.761100  1
  Si  Si653  1  0.155318  0.487984  0.761101  1
  Si  Si654  1  0.488049  0.155211  0.768411  1
  Si  Si655  1  0.935575  0.692120  0.617137  1
  Si  Si656  1  0.756578  0.692130  0.617135  1
  Si  Si657  1  0.275543  0.902779  0.636688  1
  Si  Si658  1  0.627280  0.724384  0.636687  1
  Si  Si659  1  0.097143  0.724368  0.636688  1
  Si  Si660  1  0.627291  0.902783  0.636688  1
  Si  Si661  1  0.154485  0.666831  0.666206  1
  Si  Si662  1  0.512420  0.845450  0.666205  1
  Si  Si663  1  0.333097  0.845447  0.666206  1
  Si  Si664  1  0.512414  0.666844  0.666205  1
  Si  Si665  1  0.154504  0.666832  0.701816  1
  Si  Si666  1  0.512425  0.845446  0.701815  1
  Si  Si667  1  0.333103  0.845439  0.701815  1
  Si  Si668  1  0.512420  0.666844  0.701815  1
  Si  Si669  1  0.511944  0.844650  0.606920  1
  Si  Si670  1  0.155285  0.667177  0.606921  1
  Si  Si671  1  0.511943  0.667174  0.606920  1
  Si  Si672  1  0.332732  0.844642  0.606920  1
  Si  Si673  1  0.844717  0.511879  0.768409  1
  Si  Si674  1  0.667258  0.511890  0.768408  1
  Si  Si675  1  0.692232  0.756547  0.778619  1
  Si  Si676  1  0.243404  0.935535  0.778621  1
  Si  Si677  1  0.692231  0.935543  0.778622  1
  Si  Si678  1  0.064413  0.756535  0.778620  1
  Si  Si679  1  0.935611  0.692123  0.750885  1
  Si  Si680  1  0.756614  0.692126  0.750884  1
  Si  Si681  1  0.902859  0.627215  0.798176  1
  Si  Si682  1  0.724449  0.627217  0.798175  1
  Si  Si683  1  0.275566  0.902776  0.731332  1
  Si  Si684  1  0.627313  0.724381  0.731331  1
  Si  Si685  1  0.097165  0.724373  0.731333  1
  Si  Si686  1  0.627315  0.902784  0.731333  1
  Si  Si687  1  0.511985  0.844648  0.761100  1
  Si  Si688  1  0.155317  0.667178  0.761101  1
  Si  Si689  1  0.511969  0.667187  0.761100  1
  Si  Si690  1  0.332776  0.844649  0.761100  1
  H  H691  1  0.100605  0.413729  0.058217  1
  H  H692  1  0.313223  0.413736  0.058216  1
  H  H693  1  0.313206  0.899334  0.058216  1
  H  H694  1  0.586216  0.686734  0.058217  1
  H  H695  1  0.100606  0.686725  0.058218  1
  H  H696  1  0.586232  0.899347  0.058218  1
  H  H697  1  0.686814  0.100520  0.825347  1
  H  H698  1  0.413793  0.313132  0.825348  1
  H  H699  1  0.899426  0.313145  0.825352  1
  H  H700  1  0.413780  0.100522  0.825347  1
  H  H701  1  0.899420  0.586133  0.825351  1
  H  H702  1  0.686799  0.586137  0.825349  1
