# generated using pymatgen
data_Si27H10O59
_symmetry_space_group_name_H-M   'P 1'
_cell_length_a   25.24803673
_cell_length_b   12.87887348
_cell_length_c   29.34175194
_cell_angle_alpha   90.00000000
_cell_angle_beta   90.00000000
_cell_angle_gamma   90.00000000
_symmetry_Int_Tables_number   1
_chemical_formula_structural   Si27H10O59
_chemical_formula_sum   'Si54 H20 O118'
_cell_volume   9540.94805298
_cell_formula_units_Z   2
loop_
 _symmetry_equiv_pos_site_id
 _symmetry_equiv_pos_as_xyz
  1  'x, y, z'
loop_
 _atom_site_type_symbol
 _atom_site_label
 _atom_site_symmetry_multiplicity
 _atom_site_fract_x
 _atom_site_fract_y
 _atom_site_fract_z
 _atom_site_occupancy
  O  O1  1  0.836090  0.593037  0.286374  1
  O  O2  1  0.926214  0.632451  0.255066  1
  O  O3  1  0.844437  0.612967  0.201165  1
  O  O4  1  0.854193  0.771281  0.255924  1
  O  O5  1  0.800128  0.942378  0.255519  1
  O  O6  1  0.699821  0.942348  0.255533  1
  O  O7  1  0.899666  0.946731  0.269493  1
  O  O8  1  -0.000000  -0.000000  0.265630  1
  O  O9  1  0.925662  0.139798  0.253292  1
  O  O10  1  0.974330  0.312862  0.256130  1
  O  O11  1  0.881370  0.299053  0.286528  1
  O  O12  1  0.892907  0.289484  0.201081  1
  O  O13  1  0.749963  0.069621  0.201180  1
  O  O14  1  0.749971  0.094964  0.286436  1
  O  O15  1  -0.000000  0.499967  0.271198  1
  O  O16  1  0.663863  0.593058  0.286374  1
  O  O17  1  0.573731  0.632400  0.255063  1
  O  O18  1  0.655514  0.612971  0.201167  1
  O  O19  1  0.645733  0.771279  0.255926  1
  O  O20  1  0.600282  0.946744  0.269490  1
  O  O21  1  0.425663  0.860101  0.253297  1
  O  O22  1  0.474346  0.687056  0.256127  1
  O  O23  1  0.381392  0.700824  0.286537  1
  O  O24  1  0.392916  0.710412  0.201083  1
  O  O25  1  0.499975  -0.000000  0.265630  1
  O  O26  1  0.336080  0.406864  0.286373  1
  O  O27  1  0.426203  0.367477  0.255061  1
  O  O28  1  0.344424  0.386932  0.201165  1
  O  O29  1  0.354195  0.228622  0.255930  1
  O  O30  1  0.399666  0.053166  0.269491  1
  O  O31  1  0.574288  0.139807  0.253296  1
  O  O32  1  0.525588  0.312837  0.256118  1
  O  O33  1  0.618539  0.299106  0.286533  1
  O  O34  1  0.607026  0.289497  0.201079  1
  O  O35  1  0.499965  0.499942  0.271193  1
  O  O36  1  0.074289  0.860114  0.253299  1
  O  O37  1  0.025602  0.687070  0.256127  1
  O  O38  1  0.118554  0.700837  0.286539  1
  O  O39  1  0.107033  0.710429  0.201086  1
  O  O40  1  0.249970  0.930293  0.201187  1
  O  O41  1  0.249961  0.904956  0.286442  1
  O  O42  1  0.163841  0.406888  0.286375  1
  O  O43  1  0.073718  0.367488  0.255062  1
  O  O44  1  0.155502  0.386949  0.201167  1
  O  O45  1  0.145738  0.228648  0.255933  1
  O  O46  1  0.199821  0.057570  0.255531  1
  O  O47  1  0.300128  0.057534  0.255534  1
  O  O48  1  0.100282  0.053182  0.269491  1
  O  O49  1  0.836100  0.593038  0.372816  1
  O  O50  1  0.926214  0.632475  0.404129  1
  O  O51  1  0.844434  0.612987  0.458023  1
  O  O52  1  0.854182  0.771297  0.403255  1
  O  O53  1  0.800128  0.942412  0.403645  1
  O  O54  1  0.699822  0.942333  0.403659  1
  O  O55  1  0.839201  0.872344  0.329588  1
  O  O56  1  0.899664  0.946738  0.389701  1
  O  O57  1  0.749976  0.562682  0.329602  1
  O  O58  1  0.978180  0.636242  0.329598  1
  O  O59  1  0.000000  -0.000000  0.393558  1
  O  O60  1  0.925659  0.139807  0.405890  1
  O  O61  1  0.974336  0.312860  0.403063  1
  O  O62  1  0.881382  0.299070  0.372653  1
  O  O63  1  0.892905  0.289490  0.458103  1
  O  O64  1  0.822777  0.425461  0.329594  1
  O  O65  1  0.677161  0.425479  0.329593  1
  O  O66  1  0.800849  0.232349  0.329603  1
  O  O67  1  0.699076  0.232367  0.329569  1
  O  O68  1  0.749962  0.069634  0.457996  1
  O  O69  1  0.749935  0.094970  0.372741  1
  O  O70  1  0.941064  0.057288  0.329593  1
  O  O71  1  -0.000000  0.499968  0.388000  1
  O  O72  1  0.663853  0.593046  0.372819  1
  O  O73  1  0.573724  0.632396  0.404130  1
  O  O74  1  0.655509  0.612975  0.458026  1
  O  O75  1  0.645725  0.771275  0.403261  1
  O  O76  1  0.600282  0.946740  0.389700  1
  O  O77  1  0.425664  0.860104  0.405896  1
  O  O78  1  0.474339  0.687050  0.403059  1
  O  O79  1  0.381377  0.700842  0.372659  1
  O  O80  1  0.392913  0.710415  0.458106  1
  O  O81  1  0.660730  0.872322  0.329594  1
  O  O82  1  0.521766  0.636203  0.329594  1
  O  O83  1  0.499975  -0.000000  0.393561  1
  O  O84  1  0.441070  0.942617  0.329596  1
  O  O85  1  0.336084  0.406860  0.372816  1
  O  O86  1  0.426207  0.367455  0.404126  1
  O  O87  1  0.344428  0.386935  0.458023  1
  O  O88  1  0.354191  0.228619  0.403262  1
  O  O89  1  0.399663  0.053165  0.389701  1
  O  O90  1  0.574288  0.139804  0.405894  1
  O  O91  1  0.525599  0.312843  0.403058  1
  O  O92  1  0.618561  0.299074  0.372655  1
  O  O93  1  0.607029  0.289507  0.458103  1
  O  O94  1  0.478169  0.363667  0.329591  1
  O  O95  1  0.558878  0.057300  0.329595  1
  O  O96  1  0.339212  0.127565  0.329596  1
  O  O97  1  0.499958  0.499939  0.387992  1
  O  O98  1  0.074284  0.860123  0.405898  1
  O  O99  1  0.025603  0.687069  0.403067  1
  O  O100  1  0.118559  0.700854  0.372662  1
  O  O101  1  0.107033  0.710435  0.458110  1
  O  O102  1  0.177161  0.574449  0.329603  1
  O  O103  1  0.322777  0.574439  0.329597  1
  O  O104  1  0.199085  0.767555  0.329594  1
  O  O105  1  0.300858  0.767556  0.329583  1
  O  O106  1  0.249971  0.930282  0.458003  1
  O  O107  1  0.249973  0.904935  0.372748  1
  O  O108  1  0.058879  0.942624  0.329596  1
  O  O109  1  0.163846  0.406872  0.372819  1
  O  O110  1  0.073723  0.367484  0.404129  1
  O  O111  1  0.155504  0.386947  0.458026  1
  O  O112  1  0.145744  0.228636  0.403264  1
  O  O113  1  0.199818  0.057541  0.403657  1
  O  O114  1  0.300125  0.057530  0.403656  1
  O  O115  1  0.160735  0.127590  0.329596  1
  O  O116  1  0.100280  0.053188  0.389700  1
  O  O117  1  0.249965  0.437233  0.329596  1
  O  O118  1  0.021757  0.363701  0.329597  1
  Si  Si119  1  0.865754  0.653548  0.248228  1
  Si  Si120  1  0.847739  0.882062  0.276819  1
  Si  Si121  1  0.981981  0.614958  0.277009  1
  Si  Si122  1  0.919189  0.260396  0.247963  1
  Si  Si123  1  0.941630  0.035069  0.277038  1
  Si  Si124  1  0.749968  0.011162  0.248254  1
  Si  Si125  1  0.441633  0.964833  0.277040  1
  Si  Si126  1  0.634187  0.653543  0.248228  1
  Si  Si127  1  0.652200  0.882053  0.276825  1
  Si  Si128  1  0.419198  0.739501  0.247966  1
  Si  Si129  1  0.517961  0.614925  0.277005  1
  Si  Si130  1  0.365745  0.346355  0.248228  1
  Si  Si131  1  0.347743  0.117844  0.276826  1
  Si  Si132  1  0.580741  0.260408  0.247959  1
  Si  Si133  1  0.481972  0.384957  0.277003  1
  Si  Si134  1  0.558317  0.035077  0.277039  1
  Si  Si135  1  0.080750  0.739515  0.247966  1
  Si  Si136  1  0.058318  0.964846  0.277040  1
  Si  Si137  1  0.249969  0.988756  0.248260  1
  Si  Si138  1  0.134177  0.346377  0.248230  1
  Si  Si139  1  0.152202  0.117869  0.276826  1
  Si  Si140  1  0.017951  0.384979  0.277008  1
  Si  Si141  1  0.865753  0.653572  0.410961  1
  Si  Si142  1  0.847737  0.882076  0.382357  1
  Si  Si143  1  0.811049  0.544007  0.329597  1
  Si  Si144  1  0.688901  0.544019  0.329597  1
  Si  Si145  1  0.981980  0.614959  0.382187  1
  Si  Si146  1  0.919191  0.260404  0.411223  1
  Si  Si147  1  0.846238  0.313865  0.329594  1
  Si  Si148  1  0.749959  0.164499  0.329588  1
  Si  Si149  1  0.941629  0.035074  0.382149  1
  Si  Si150  1  0.749963  0.011171  0.410924  1
  Si  Si151  1  0.441632  0.964836  0.382152  1
  Si  Si152  1  0.634180  0.653540  0.410964  1
  Si  Si153  1  0.652199  0.882047  0.382365  1
  Si  Si154  1  0.419195  0.739506  0.411225  1
  Si  Si155  1  0.346245  0.686031  0.329594  1
  Si  Si156  1  0.517956  0.614921  0.382183  1
  Si  Si157  1  0.365748  0.346350  0.410962  1
  Si  Si158  1  0.347740  0.117841  0.382365  1
  Si  Si159  1  0.580748  0.260405  0.411223  1
  Si  Si160  1  0.653690  0.313891  0.329588  1
  Si  Si161  1  0.481974  0.384950  0.382180  1
  Si  Si162  1  0.558317  0.035074  0.382151  1
  Si  Si163  1  0.080747  0.739524  0.411230  1
  Si  Si164  1  0.153695  0.686041  0.329600  1
  Si  Si165  1  0.249971  0.835414  0.329592  1
  Si  Si166  1  0.058316  0.964851  0.382151  1
  Si  Si167  1  0.249970  0.988739  0.410929  1
  Si  Si168  1  0.134181  0.346366  0.410965  1
  Si  Si169  1  0.152204  0.117861  0.382365  1
  Si  Si170  1  0.188891  0.455905  0.329598  1
  Si  Si171  1  0.311039  0.455897  0.329596  1
  Si  Si172  1  0.017955  0.384982  0.382186  1
  H  H173  1  0.844437  0.612967  0.170492  1
  H  H174  1  0.892907  0.289484  0.170408  1
  H  H175  1  0.749963  0.069621  0.170507  1
  H  H176  1  0.655514  0.612971  0.170494  1
  H  H177  1  0.392916  0.710412  0.170410  1
  H  H178  1  0.344424  0.386932  0.170492  1
  H  H179  1  0.607026  0.289497  0.170406  1
  H  H180  1  0.107033  0.710429  0.170412  1
  H  H181  1  0.249970  0.930293  0.170514  1
  H  H182  1  0.155502  0.386949  0.170494  1
  H  H183  1  0.844434  0.612987  0.488696  1
  H  H184  1  0.892905  0.289490  0.488776  1
  H  H185  1  0.749962  0.069634  0.488669  1
  H  H186  1  0.655509  0.612975  0.488699  1
  H  H187  1  0.392913  0.710415  0.488779  1
  H  H188  1  0.344428  0.386935  0.488696  1
  H  H189  1  0.607029  0.289507  0.488776  1
  H  H190  1  0.107033  0.710435  0.488783  1
  H  H191  1  0.249971  0.930282  0.488676  1
  H  H192  1  0.155504  0.386947  0.488699  1
