# generated using pymatgen
data_Si36H2O73
_symmetry_space_group_name_H-M   'P 1'
_cell_length_a   5.06483519
_cell_length_b   14.10770455
_cell_length_c   79.54914050
_cell_angle_alpha   90.00000000
_cell_angle_beta   90.00000000
_cell_angle_gamma   90.00000000
_symmetry_Int_Tables_number   1
_chemical_formula_structural   Si36H2O73
_chemical_formula_sum   'Si72 H4 O146'
_cell_volume   5684.04052306
_cell_formula_units_Z   2
loop_
 _symmetry_equiv_pos_site_id
 _symmetry_equiv_pos_as_xyz
  1  'x, y, z'
loop_
 _atom_site_type_symbol
 _atom_site_label
 _atom_site_symmetry_multiplicity
 _atom_site_fract_x
 _atom_site_fract_y
 _atom_site_fract_z
 _atom_site_occupancy
  O  O1  1  0.239765  0.802925  0.074231  1
  O  O2  1  0.241022  0.803011  0.107206  1
  O  O3  1  0.742972  0.197522  0.245753  1
  O  O4  1  0.742913  0.197565  0.212828  1
  O  O5  1  0.026110  0.936984  0.090724  1
  O  O6  1  0.525128  0.918812  0.090689  1
  O  O7  1  0.955105  0.063176  0.229274  1
  O  O8  1  0.456198  0.081978  0.229300  1
  O  O9  1  0.740659  0.050982  0.107269  1
  O  O10  1  0.740736  0.051064  0.074168  1
  O  O11  1  0.242615  0.949333  0.212772  1
  O  O12  1  0.241604  0.949292  0.245801  1
  O  O13  1  0.246763  0.674449  0.131758  1
  O  O14  1  0.751212  0.325368  0.188188  1
  O  O15  1  0.749990  0.325297  0.270390  1
  O  O16  1  0.034790  0.837134  0.135634  1
  O  O17  1  0.533025  0.823222  0.132934  1
  O  O18  1  0.037832  0.177036  0.187217  1
  O  O19  1  0.539522  0.162360  0.184374  1
  O  O20  1  0.036936  0.177092  0.271396  1
  O  O21  1  0.538608  0.162128  0.274176  1
  O  O22  1  0.244191  0.485758  0.143067  1
  O  O23  1  0.744820  0.513887  0.176954  1
  O  O24  1  0.744285  0.513876  0.281619  1
  O  O25  1  -0.000000  0.619753  0.157403  1
  O  O26  1  0.499483  0.618784  0.156947  1
  O  O27  1  0.965854  0.379811  0.161389  1
  O  O28  1  0.467203  0.381915  0.164291  1
  O  O29  1  0.965293  0.379770  0.297162  1
  O  O30  1  0.466641  0.381894  0.294306  1
  O  O31  1  0.248129  0.016432  0.183315  1
  O  O32  1  0.246142  0.016347  0.275254  1
  O  O33  1  0.747599  0.983471  0.136728  1
  O  O34  1  0.500033  0.864617  0.189102  1
  O  O35  1  -0.000000  0.863049  0.188550  1
  O  O36  1  0.499581  0.865026  0.269442  1
  O  O37  1  -0.000000  0.862457  0.270117  1
  O  O38  1  0.506714  0.138035  0.131717  1
  O  O39  1  0.006487  0.134195  0.130808  1
  O  O40  1  0.744117  0.712731  0.178825  1
  O  O41  1  0.740389  0.712716  0.279806  1
  O  O42  1  0.248658  0.287033  0.141282  1
  O  O43  1  0.741255  0.863422  0.161218  1
  O  O44  1  0.739122  0.863459  0.297381  1
  O  O45  1  0.243171  0.136580  0.158871  1
  O  O46  1  0.239765  0.802925  0.351392  1
  O  O47  1  0.241022  0.803011  0.384367  1
  O  O48  1  0.742972  0.197522  0.522914  1
  O  O49  1  0.742913  0.197565  0.489989  1
  O  O50  1  0.026110  0.936984  0.367885  1
  O  O51  1  0.525128  0.918812  0.367850  1
  O  O52  1  0.955105  0.063176  0.506436  1
  O  O53  1  0.456198  0.081978  0.506461  1
  O  O54  1  0.740659  0.050982  0.384430  1
  O  O55  1  0.740736  0.051064  0.351329  1
  O  O56  1  0.242615  0.949333  0.489933  1
  O  O57  1  0.241604  0.949292  0.522962  1
  O  O58  1  0.246763  0.674449  0.408919  1
  O  O59  1  0.243731  0.674456  0.326797  1
  O  O60  1  0.751212  0.325368  0.465349  1
  O  O61  1  0.749990  0.325297  0.547551  1
  O  O62  1  0.034790  0.837134  0.412795  1
  O  O63  1  0.533025  0.823222  0.410095  1
  O  O64  1  0.032042  0.837056  0.322987  1
  O  O65  1  0.530238  0.823277  0.325633  1
  O  O66  1  0.037832  0.177036  0.464379  1
  O  O67  1  0.539522  0.162360  0.461536  1
  O  O68  1  0.036936  0.177092  0.548557  1
  O  O69  1  0.538608  0.162128  0.551337  1
  O  O70  1  0.244191  0.485758  0.420228  1
  O  O71  1  0.243291  0.485710  0.315515  1
  O  O72  1  0.744820  0.513887  0.454115  1
  O  O73  1  0.744285  0.513876  0.558780  1
  O  O74  1  -0.000000  0.619753  0.434565  1
  O  O75  1  0.499483  0.618784  0.434108  1
  O  O76  1  0.011959  0.620102  0.300544  1
  O  O77  1  0.510693  0.617874  0.302272  1
  O  O78  1  0.965854  0.379811  0.438550  1
  O  O79  1  0.467203  0.381915  0.441452  1
  O  O80  1  0.965293  0.379770  0.574323  1
  O  O81  1  0.466641  0.381894  0.571467  1
  O  O82  1  0.248129  0.016432  0.460476  1
  O  O83  1  0.246142  0.016347  0.552415  1
  O  O84  1  0.747599  0.983471  0.413889  1
  O  O85  1  0.745722  0.983497  0.321873  1
  O  O86  1  0.500033  0.864617  0.466263  1
  O  O87  1  -0.000000  0.863049  0.465711  1
  O  O88  1  0.499581  0.865026  0.546603  1
  O  O89  1  -0.000000  0.862457  0.547278  1
  O  O90  1  0.506714  0.138035  0.408878  1
  O  O91  1  0.006487  0.134195  0.407969  1
  O  O92  1  0.505568  0.138092  0.326910  1
  O  O93  1  0.005383  0.134147  0.327736  1
  O  O94  1  0.744117  0.712731  0.455987  1
  O  O95  1  0.740389  0.712716  0.556967  1
  O  O96  1  0.248658  0.287033  0.418443  1
  O  O97  1  0.247649  0.286975  0.317290  1
  O  O98  1  0.741255  0.863422  0.438379  1
  O  O99  1  0.739122  0.863459  0.574542  1
  O  O100  1  0.243171  0.136580  0.436032  1
  O  O101  1  0.243005  0.136436  0.299710  1
  O  O102  1  0.239765  0.802925  0.628553  1
  O  O103  1  0.241022  0.803011  0.661528  1
  O  O104  1  0.742972  0.197522  0.800075  1
  O  O105  1  0.742913  0.197565  0.767150  1
  O  O106  1  0.026110  0.936984  0.645046  1
  O  O107  1  0.525128  0.918812  0.645012  1
  O  O108  1  0.955105  0.063176  0.783597  1
  O  O109  1  0.456198  0.081978  0.783622  1
  O  O110  1  0.740659  0.050982  0.661591  1
  O  O111  1  0.740736  0.051064  0.628490  1
  O  O112  1  0.242615  0.949333  0.767095  1
  O  O113  1  0.241604  0.949292  0.800124  1
  O  O114  1  0.246763  0.674449  0.686080  1
  O  O115  1  0.243731  0.674456  0.603958  1
  O  O116  1  0.751212  0.325368  0.742510  1
  O  O117  1  0.034790  0.837134  0.689956  1
  O  O118  1  0.533025  0.823222  0.687256  1
  O  O119  1  0.032042  0.837056  0.600148  1
  O  O120  1  0.530238  0.823277  0.602794  1
  O  O121  1  0.037832  0.177036  0.741540  1
  O  O122  1  0.539522  0.162360  0.738697  1
  O  O123  1  0.244191  0.485758  0.697389  1
  O  O124  1  0.243291  0.485710  0.592676  1
  O  O125  1  0.744820  0.513887  0.731276  1
  O  O126  1  0.000000  0.619753  0.711726  1
  O  O127  1  0.499483  0.618784  0.711269  1
  O  O128  1  0.011959  0.620102  0.577705  1
  O  O129  1  0.510693  0.617874  0.579434  1
  O  O130  1  0.965854  0.379811  0.715712  1
  O  O131  1  0.467203  0.381915  0.718613  1
  O  O132  1  0.248129  0.016432  0.737638  1
  O  O133  1  0.747599  0.983471  0.691050  1
  O  O134  1  0.745722  0.983497  0.599035  1
  O  O135  1  0.500033  0.864617  0.743424  1
  O  O136  1  -0.000000  0.863049  0.742873  1
  O  O137  1  0.506714  0.138035  0.686039  1
  O  O138  1  0.006487  0.134195  0.685130  1
  O  O139  1  0.505568  0.138092  0.604071  1
  O  O140  1  0.005383  0.134147  0.604898  1
  O  O141  1  0.744117  0.712731  0.733148  1
  O  O142  1  0.248658  0.287033  0.695604  1
  O  O143  1  0.247649  0.286975  0.594451  1
  O  O144  1  0.741255  0.863422  0.715541  1
  O  O145  1  0.243171  0.136580  0.713194  1
  O  O146  1  0.243005  0.136436  0.576871  1
  Si  Si147  1  0.257402  0.863935  0.090712  1
  Si  Si148  1  0.724361  0.136531  0.229288  1
  Si  Si149  1  0.757697  0.991105  0.090714  1
  Si  Si150  1  0.224207  0.009418  0.229289  1
  Si  Si151  1  0.263336  0.783060  0.126554  1
  Si  Si152  1  0.767302  0.216959  0.193479  1
  Si  Si153  1  0.766446  0.216877  0.265105  1
  Si  Si154  1  0.247387  0.597406  0.146285  1
  Si  Si155  1  0.732909  0.402267  0.173692  1
  Si  Si156  1  0.732097  0.402262  0.284880  1
  Si  Si157  1  0.247200  0.922182  0.193668  1
  Si  Si158  1  0.245703  0.922068  0.264910  1
  Si  Si159  1  0.750658  0.077798  0.126390  1
  Si  Si160  1  0.747579  0.616734  0.168592  1
  Si  Si161  1  0.751557  0.616671  0.290006  1
  Si  Si162  1  0.232720  0.383002  0.151479  1
  Si  Si163  1  0.746733  0.824986  0.179690  1
  Si  Si164  1  0.745095  0.824945  0.278915  1
  Si  Si165  1  0.250594  0.174863  0.140391  1
  Si  Si166  1  0.763787  0.876655  0.141771  1
  Si  Si167  1  0.267339  0.123249  0.178310  1
  Si  Si168  1  0.266437  0.123128  0.280267  1
  Si  Si169  1  0.257402  0.863935  0.367873  1
  Si  Si170  1  0.724361  0.136531  0.506450  1
  Si  Si171  1  0.757697  0.991105  0.367875  1
  Si  Si172  1  0.224207  0.009418  0.506450  1
  Si  Si173  1  0.263336  0.783060  0.403715  1
  Si  Si174  1  0.260812  0.783006  0.332036  1
  Si  Si175  1  0.767302  0.216959  0.470640  1
  Si  Si176  1  0.766446  0.216877  0.542266  1
  Si  Si177  1  0.247387  0.597406  0.423446  1
  Si  Si178  1  0.251275  0.597336  0.312284  1
  Si  Si179  1  0.732909  0.402267  0.450853  1
  Si  Si180  1  0.732097  0.402262  0.562041  1
  Si  Si181  1  0.247200  0.922182  0.470829  1
  Si  Si182  1  0.245703  0.922068  0.542071  1
  Si  Si183  1  0.750658  0.077798  0.403552  1
  Si  Si184  1  0.749685  0.077835  0.332203  1
  Si  Si185  1  0.747579  0.616734  0.445753  1
  Si  Si186  1  0.751557  0.616671  0.567167  1
  Si  Si187  1  0.232720  0.383002  0.428640  1
  Si  Si188  1  0.231892  0.382976  0.307098  1
  Si  Si189  1  0.746733  0.824986  0.456851  1
  Si  Si190  1  0.745095  0.824945  0.556076  1
  Si  Si191  1  0.250594  0.174863  0.417552  1
  Si  Si192  1  0.249724  0.174811  0.318185  1
  Si  Si193  1  0.763787  0.876655  0.418932  1
  Si  Si194  1  0.761340  0.876677  0.316828  1
  Si  Si195  1  0.267339  0.123249  0.455471  1
  Si  Si196  1  0.266437  0.123128  0.557428  1
  Si  Si197  1  0.257402  0.863935  0.645034  1
  Si  Si198  1  0.724361  0.136531  0.783611  1
  Si  Si199  1  0.757697  0.991105  0.645036  1
  Si  Si200  1  0.224207  0.009418  0.783611  1
  Si  Si201  1  0.263336  0.783060  0.680877  1
  Si  Si202  1  0.260812  0.783006  0.609197  1
  Si  Si203  1  0.767302  0.216959  0.747802  1
  Si  Si204  1  0.247387  0.597406  0.700607  1
  Si  Si205  1  0.251275  0.597336  0.589445  1
  Si  Si206  1  0.732909  0.402267  0.728014  1
  Si  Si207  1  0.247200  0.922182  0.747991  1
  Si  Si208  1  0.750658  0.077798  0.680713  1
  Si  Si209  1  0.749685  0.077835  0.609365  1
  Si  Si210  1  0.747579  0.616734  0.722914  1
  Si  Si211  1  0.232720  0.383002  0.705801  1
  Si  Si212  1  0.231892  0.382976  0.584259  1
  Si  Si213  1  0.746733  0.824986  0.734013  1
  Si  Si214  1  0.250594  0.174863  0.694713  1
  Si  Si215  1  0.249724  0.174811  0.595346  1
  Si  Si216  1  0.763787  0.876655  0.696094  1
  Si  Si217  1  0.761340  0.876677  0.593990  1
  Si  Si218  1  0.267339  0.123249  0.732633  1
  H  H219  1  0.239765  0.802925  0.062917  1
  H  H220  1  0.740736  0.051064  0.062854  1
  H  H221  1  0.742972  0.197522  0.811389  1
  H  H222  1  0.241604  0.949292  0.811437  1
