# generated using pymatgen
data_Si27H2O55
_symmetry_space_group_name_H-M   'P 1'
_cell_length_a   7.17685991
_cell_length_b   41.18971782
_cell_length_c   48.75885255
_cell_angle_alpha   76.53100941
_cell_angle_beta   90.00000000
_cell_angle_gamma   90.00000000
_symmetry_Int_Tables_number   1
_chemical_formula_structural   Si27H2O55
_chemical_formula_sum   'Si108 H8 O220'
_cell_volume   14017.3087972
_cell_formula_units_Z   4
loop_
 _symmetry_equiv_pos_site_id
 _symmetry_equiv_pos_as_xyz
  1  'x, y, z'
loop_
 _atom_site_type_symbol
 _atom_site_label
 _atom_site_symmetry_multiplicity
 _atom_site_fract_x
 _atom_site_fract_y
 _atom_site_fract_z
 _atom_site_occupancy
  O  O1  1  0.493063  0.396042  0.218226  1
  O  O2  1  0.500393  0.103482  0.275695  1
  O  O3  1  0.500393  0.603482  0.177314  1
  O  O4  1  0.499890  0.646347  0.267268  1
  O  O5  1  0.499915  0.853872  0.226677  1
  O  O6  1  0.606468  0.435825  0.173258  1
  O  O7  1  0.606468  0.935825  0.271638  1
  O  O8  1  0.604037  0.063884  0.245727  1
  O  O9  1  0.604037  0.563884  0.147346  1
  O  O10  1  0.394363  0.685893  0.221781  1
  O  O11  1  0.394527  0.313809  0.295227  1
  O  O12  1  0.394527  0.813809  0.196846  1
  O  O13  1  0.393306  0.563946  0.222732  1
  O  O14  1  0.389060  0.435932  0.247834  1
  O  O15  1  0.606051  0.813964  0.272061  1
  O  O16  1  0.002369  0.415551  0.214290  1
  O  O17  1  0.000000  0.085377  0.279477  1
  O  O18  1  0.000000  0.585377  0.181097  1
  O  O19  1  0.000000  0.665048  0.263611  1
  O  O20  1  -0.000000  0.833921  0.230473  1
  O  O21  1  0.718897  0.414097  0.250137  1
  O  O22  1  0.723727  0.586528  0.217620  1
  O  O23  1  0.277433  0.836344  0.266443  1
  O  O24  1  0.275767  0.086788  0.242199  1
  O  O25  1  0.275767  0.586788  0.143819  1
  O  O26  1  0.277170  0.413560  0.177618  1
  O  O27  1  0.277170  0.913559  0.275998  1
  O  O28  1  0.723031  0.336564  0.292030  1
  O  O29  1  0.723031  0.836565  0.193649  1
  O  O30  1  0.723961  0.663440  0.227094  1
  O  O31  1  0.544595  0.375004  0.173378  1
  O  O32  1  0.544595  0.875004  0.271759  1
  O  O33  1  0.543179  0.124987  0.222285  1
  O  O34  1  0.543179  0.624987  0.123904  1
  O  O35  1  0.457019  0.624915  0.222261  1
  O  O36  1  0.454167  0.374979  0.271682  1
  O  O37  1  0.454167  0.874978  0.173301  1
  O  O38  1  0.958011  0.452062  0.167884  1
  O  O39  1  0.958011  0.952062  0.266265  1
  O  O40  1  0.956350  0.048180  0.247325  1
  O  O41  1  0.956350  0.548180  0.148944  1
  O  O42  1  0.042231  0.702760  0.216907  1
  O  O43  1  0.041722  0.796805  0.199683  1
  O  O44  1  0.041298  0.547211  0.227653  1
  O  O45  1  0.040537  0.453331  0.245502  1
  O  O46  1  0.958629  0.796768  0.275830  1
  O  O47  1  0.957611  0.702806  0.295446  1
  O  O48  1  0.221803  0.459352  0.203530  1
  O  O49  1  0.218987  0.041211  0.286273  1
  O  O50  1  0.218987  0.541211  0.187892  1
  O  O51  1  0.779565  0.708926  0.253323  1
  O  O52  1  0.773910  0.790795  0.237096  1
  O  O53  1  0.779174  0.041701  0.289368  1
  O  O54  1  0.779174  0.541701  0.190987  1
  O  O55  1  0.782154  0.458995  0.207656  1
  O  O56  1  0.226452  0.790645  0.240822  1
  O  O57  1  0.220312  0.708855  0.256616  1
  O  O58  1  0.296072  0.500192  0.233921  1
  O  O59  1  0.702192  0.749900  0.283323  1
  O  O60  1  0.711950  0.499798  0.161975  1
  O  O61  1  0.711950  0.000000  0.260356  1
  O  O62  1  0.297622  0.749820  0.210544  1
  O  O63  1  0.493063  0.396042  0.414987  1
  O  O64  1  0.493063  0.896042  0.316607  1
  O  O65  1  0.500393  0.103482  0.472457  1
  O  O66  1  0.500393  0.603482  0.374076  1
  O  O67  1  0.499890  0.146347  0.365649  1
  O  O68  1  0.499890  0.646347  0.464030  1
  O  O69  1  0.499915  0.353872  0.325058  1
  O  O70  1  0.499915  0.853871  0.423439  1
  O  O71  1  0.606468  0.435825  0.370019  1
  O  O72  1  0.606468  0.935826  0.468400  1
  O  O73  1  0.604037  0.063885  0.442489  1
  O  O74  1  0.604037  0.563884  0.344108  1
  O  O75  1  0.394363  0.185893  0.320161  1
  O  O76  1  0.394363  0.685893  0.418542  1
  O  O77  1  0.394527  0.313809  0.491989  1
  O  O78  1  0.394527  0.813809  0.393608  1
  O  O79  1  0.393306  0.063946  0.321113  1
  O  O80  1  0.393306  0.563946  0.419494  1
  O  O81  1  0.389060  0.435932  0.444596  1
  O  O82  1  0.389060  0.935933  0.346215  1
  O  O83  1  0.606051  0.313963  0.370442  1
  O  O84  1  0.606051  0.813964  0.468822  1
  O  O85  1  0.605432  0.185963  0.395542  1
  O  O86  1  0.605432  0.685963  0.297161  1
  O  O87  1  0.002369  0.415551  0.411052  1
  O  O88  1  0.002369  0.915551  0.312671  1
  O  O89  1  -0.000000  0.085377  0.476239  1
  O  O90  1  -0.000000  0.585376  0.377858  1
  O  O91  1  -0.000000  0.165048  0.361992  1
  O  O92  1  -0.000000  0.665048  0.460372  1
  O  O93  1  -0.000000  0.333921  0.328854  1
  O  O94  1  0.000000  0.833921  0.427234  1
  O  O95  1  0.718897  0.414097  0.446899  1
  O  O96  1  0.718897  0.914097  0.348518  1
  O  O97  1  0.723727  0.086528  0.316000  1
  O  O98  1  0.723727  0.586528  0.414381  1
  O  O99  1  0.275906  0.163442  0.399112  1
  O  O100  1  0.275906  0.663442  0.300731  1
  O  O101  1  0.277433  0.336344  0.364824  1
  O  O102  1  0.277433  0.836344  0.463205  1
  O  O103  1  0.275767  0.086788  0.438961  1
  O  O104  1  0.275767  0.586788  0.340580  1
  O  O105  1  0.277170  0.413559  0.374379  1
  O  O106  1  0.277170  0.913559  0.472760  1
  O  O107  1  0.723031  0.336564  0.488792  1
  O  O108  1  0.723031  0.836565  0.390411  1
  O  O109  1  0.723961  0.163440  0.325475  1
  O  O110  1  0.723961  0.663440  0.423856  1
  O  O111  1  0.544595  0.375004  0.370139  1
  O  O112  1  0.544595  0.875004  0.468520  1
  O  O113  1  0.543179  0.124987  0.419046  1
  O  O114  1  0.543179  0.624987  0.320665  1
  O  O115  1  0.457019  0.124915  0.320642  1
  O  O116  1  0.457019  0.624915  0.419023  1
  O  O117  1  0.454167  0.374978  0.468443  1
  O  O118  1  0.454167  0.874978  0.370062  1
  O  O119  1  0.958011  0.452062  0.364646  1
  O  O120  1  0.958011  0.952062  0.463027  1
  O  O121  1  0.956350  0.048180  0.444087  1
  O  O122  1  0.956350  0.548180  0.345706  1
  O  O123  1  0.042231  0.202760  0.315288  1
  O  O124  1  0.042231  0.702760  0.413669  1
  O  O125  1  0.041722  0.296806  0.298064  1
  O  O126  1  0.041722  0.796805  0.396445  1
  O  O127  1  0.041298  0.047211  0.326034  1
  O  O128  1  0.041298  0.547211  0.424415  1
  O  O129  1  0.040537  0.453331  0.442264  1
  O  O130  1  0.040537  0.953330  0.343883  1
  O  O131  1  0.958629  0.296768  0.374211  1
  O  O132  1  0.958629  0.796768  0.472591  1
  O  O133  1  0.957611  0.202806  0.393826  1
  O  O134  1  0.957611  0.702806  0.492207  1
  O  O135  1  0.221803  0.459352  0.400291  1
  O  O136  1  0.221803  0.959352  0.301910  1
  O  O137  1  0.218987  0.041211  0.483034  1
  O  O138  1  0.218987  0.541211  0.384653  1
  O  O139  1  0.779565  0.208926  0.351704  1
  O  O140  1  0.779565  0.708926  0.450085  1
  O  O141  1  0.773910  0.290795  0.335476  1
  O  O142  1  0.773910  0.790795  0.433857  1
  O  O143  1  0.779174  0.041701  0.486129  1
  O  O144  1  0.779174  0.541700  0.387748  1
  O  O145  1  0.782154  0.458995  0.404418  1
  O  O146  1  0.782154  0.958996  0.306037  1
  O  O147  1  0.226452  0.290644  0.339203  1
  O  O148  1  0.226452  0.790644  0.437584  1
  O  O149  1  0.220312  0.208856  0.354997  1
  O  O150  1  0.220312  0.708855  0.453378  1
  O  O151  1  0.296072  0.000000  0.332302  1
  O  O152  1  0.296072  0.500192  0.430683  1
  O  O153  1  0.702192  0.249899  0.381704  1
  O  O154  1  0.702192  0.749900  0.480085  1
  O  O155  1  0.711950  0.499798  0.358737  1
  O  O156  1  0.711950  0.000000  0.457118  1
  O  O157  1  0.297622  0.249820  0.308925  1
  O  O158  1  0.297622  0.749820  0.407305  1
  O  O159  1  0.493063  0.396042  0.611749  1
  O  O160  1  0.493063  0.896042  0.513368  1
  O  O161  1  0.500393  0.603482  0.570838  1
  O  O162  1  0.499890  0.146347  0.562410  1
  O  O163  1  0.499915  0.353872  0.521819  1
  O  O164  1  0.606468  0.435826  0.566781  1
  O  O165  1  0.604037  0.563885  0.540870  1
  O  O166  1  0.394363  0.185892  0.516923  1
  O  O167  1  0.393306  0.063946  0.517875  1
  O  O168  1  0.393306  0.563946  0.616255  1
  O  O169  1  0.389060  0.435932  0.641357  1
  O  O170  1  0.389060  0.935933  0.542977  1
  O  O171  1  0.606051  0.313964  0.567203  1
  O  O172  1  0.605432  0.185963  0.592304  1
  O  O173  1  0.605432  0.685963  0.493923  1
  O  O174  1  0.002369  0.415551  0.607813  1
  O  O175  1  0.002369  0.915551  0.509433  1
  O  O176  1  0.000000  0.585377  0.574620  1
  O  O177  1  -0.000000  0.165048  0.558753  1
  O  O178  1  -0.000000  0.333921  0.525615  1
  O  O179  1  0.718897  0.414097  0.643660  1
  O  O180  1  0.718897  0.914097  0.545279  1
  O  O181  1  0.723727  0.086528  0.512762  1
  O  O182  1  0.723727  0.586528  0.611143  1
  O  O183  1  0.275906  0.163442  0.595874  1
  O  O184  1  0.275906  0.663442  0.497493  1
  O  O185  1  0.277433  0.336344  0.561586  1
  O  O186  1  0.275767  0.586788  0.537342  1
  O  O187  1  0.277170  0.413560  0.571141  1
  O  O188  1  0.723961  0.163440  0.522237  1
  O  O189  1  0.544595  0.375004  0.566901  1
  O  O190  1  0.543179  0.124987  0.615808  1
  O  O191  1  0.543179  0.624986  0.517427  1
  O  O192  1  0.457019  0.124915  0.517403  1
  O  O193  1  0.457019  0.624915  0.615784  1
  O  O194  1  0.454167  0.374978  0.665205  1
  O  O195  1  0.454167  0.874978  0.566824  1
  O  O196  1  0.958011  0.452062  0.561407  1
  O  O197  1  0.956350  0.548180  0.542468  1
  O  O198  1  0.042231  0.202760  0.512050  1
  O  O199  1  0.041722  0.296806  0.494826  1
  O  O200  1  0.041298  0.047211  0.522796  1
  O  O201  1  0.041298  0.547211  0.621176  1
  O  O202  1  0.040537  0.453331  0.639026  1
  O  O203  1  0.040537  0.953330  0.540645  1
  O  O204  1  0.958629  0.296768  0.570972  1
  O  O205  1  0.957611  0.202806  0.590588  1
  O  O206  1  0.221803  0.459352  0.597053  1
  O  O207  1  0.221803  0.959352  0.498672  1
  O  O208  1  0.218987  0.541211  0.581415  1
  O  O209  1  0.779565  0.208926  0.548466  1
  O  O210  1  0.773910  0.290795  0.532238  1
  O  O211  1  0.779174  0.541701  0.584510  1
  O  O212  1  0.782154  0.458996  0.601179  1
  O  O213  1  0.782154  0.958996  0.502799  1
  O  O214  1  0.226452  0.290644  0.535965  1
  O  O215  1  0.220312  0.208856  0.551759  1
  O  O216  1  0.296072  0.000000  0.529064  1
  O  O217  1  0.296072  0.500192  0.627445  1
  O  O218  1  0.702192  0.249899  0.578466  1
  O  O219  1  0.711950  0.499798  0.555498  1
  O  O220  1  0.297622  0.249820  0.505686  1
  Si  Si221  1  0.510430  0.404266  0.247927  1
  Si  Si222  1  0.518814  0.595456  0.210461  1
  Si  Si223  1  0.482974  0.845753  0.259801  1
  Si  Si224  1  0.481099  0.095571  0.245669  1
  Si  Si225  1  0.481099  0.595571  0.147289  1
  Si  Si226  1  0.481227  0.404336  0.185095  1
  Si  Si227  1  0.481227  0.904336  0.283476  1
  Si  Si228  1  0.516923  0.345667  0.295138  1
  Si  Si229  1  0.516923  0.845667  0.196757  1
  Si  Si230  1  0.518947  0.654308  0.234141  1
  Si  Si231  1  0.243312  0.463998  0.235104  1
  Si  Si232  1  0.242798  0.536463  0.221275  1
  Si  Si233  1  0.755476  0.713545  0.284939  1
  Si  Si234  1  0.752032  0.786188  0.270172  1
  Si  Si235  1  0.755952  0.037193  0.257970  1
  Si  Si236  1  0.755952  0.537192  0.159589  1
  Si  Si237  1  0.758075  0.462595  0.174937  1
  Si  Si238  1  0.758075  0.962595  0.273318  1
  Si  Si239  1  0.248031  0.786081  0.209546  1
  Si  Si240  1  0.244432  0.713458  0.223188  1
  Si  Si241  1  0.882220  0.434587  0.233495  1
  Si  Si242  1  0.881376  0.566194  0.208328  1
  Si  Si243  1  0.118415  0.684006  0.283535  1
  Si  Si244  1  0.125142  0.815211  0.257021  1
  Si  Si245  1  0.118362  0.066404  0.259478  1
  Si  Si246  1  0.118362  0.566404  0.161097  1
  Si  Si247  1  0.121867  0.434281  0.186853  1
  Si  Si248  1  0.121867  0.934281  0.285234  1
  Si  Si249  1  0.875721  0.815334  0.211253  1
  Si  Si250  1  0.881275  0.684022  0.236217  1
  Si  Si251  1  0.510430  0.404266  0.444688  1
  Si  Si252  1  0.510430  0.904266  0.346308  1
  Si  Si253  1  0.518814  0.095456  0.308842  1
  Si  Si254  1  0.518814  0.595456  0.407223  1
  Si  Si255  1  0.480944  0.154355  0.395626  1
  Si  Si256  1  0.480944  0.654355  0.297246  1
  Si  Si257  1  0.482974  0.345753  0.358182  1
  Si  Si258  1  0.482974  0.845752  0.456563  1
  Si  Si259  1  0.481099  0.095571  0.442431  1
  Si  Si260  1  0.481099  0.595570  0.344050  1
  Si  Si261  1  0.481227  0.404336  0.381857  1
  Si  Si262  1  0.481227  0.904336  0.480238  1
  Si  Si263  1  0.516923  0.345666  0.491899  1
  Si  Si264  1  0.516923  0.845666  0.393519  1
  Si  Si265  1  0.518947  0.154308  0.332521  1
  Si  Si266  1  0.518947  0.654308  0.430902  1
  Si  Si267  1  0.243312  0.463998  0.431865  1
  Si  Si268  1  0.243312  0.963997  0.333485  1
  Si  Si269  1  0.242798  0.036463  0.319656  1
  Si  Si270  1  0.242798  0.536463  0.418036  1
  Si  Si271  1  0.755476  0.213545  0.383320  1
  Si  Si272  1  0.755476  0.713545  0.481701  1
  Si  Si273  1  0.752032  0.286189  0.368553  1
  Si  Si274  1  0.752032  0.786188  0.466934  1
  Si  Si275  1  0.755952  0.037193  0.454731  1
  Si  Si276  1  0.755952  0.537192  0.356351  1
  Si  Si277  1  0.758075  0.462595  0.371699  1
  Si  Si278  1  0.758075  0.962595  0.470080  1
  Si  Si279  1  0.248031  0.286081  0.307927  1
  Si  Si280  1  0.248031  0.786081  0.406308  1
  Si  Si281  1  0.244432  0.213458  0.321569  1
  Si  Si282  1  0.244432  0.713458  0.419950  1
  Si  Si283  1  0.882220  0.434587  0.430257  1
  Si  Si284  1  0.882220  0.934587  0.331876  1
  Si  Si285  1  0.881376  0.066195  0.306708  1
  Si  Si286  1  0.881376  0.566194  0.405089  1
  Si  Si287  1  0.118415  0.184006  0.381916  1
  Si  Si288  1  0.118415  0.684006  0.480296  1
  Si  Si289  1  0.125142  0.315211  0.355402  1
  Si  Si290  1  0.125142  0.815211  0.453782  1
  Si  Si291  1  0.118362  0.066404  0.456240  1
  Si  Si292  1  0.118362  0.566404  0.357859  1
  Si  Si293  1  0.121867  0.434281  0.383615  1
  Si  Si294  1  0.121867  0.934281  0.481996  1
  Si  Si295  1  0.875721  0.315334  0.309634  1
  Si  Si296  1  0.875721  0.815334  0.408015  1
  Si  Si297  1  0.881275  0.184022  0.334597  1
  Si  Si298  1  0.881275  0.684022  0.432978  1
  Si  Si299  1  0.510430  0.404266  0.641450  1
  Si  Si300  1  0.510430  0.904266  0.543069  1
  Si  Si301  1  0.518814  0.095456  0.505604  1
  Si  Si302  1  0.518814  0.595456  0.603984  1
  Si  Si303  1  0.480944  0.154355  0.592388  1
  Si  Si304  1  0.480944  0.654355  0.494007  1
  Si  Si305  1  0.482974  0.345753  0.554943  1
  Si  Si306  1  0.481099  0.595570  0.540812  1
  Si  Si307  1  0.481227  0.404336  0.578618  1
  Si  Si308  1  0.518947  0.154308  0.529283  1
  Si  Si309  1  0.243312  0.463997  0.628627  1
  Si  Si310  1  0.243312  0.963998  0.530246  1
  Si  Si311  1  0.242798  0.036463  0.516417  1
  Si  Si312  1  0.242798  0.536463  0.614798  1
  Si  Si313  1  0.755476  0.213545  0.580081  1
  Si  Si314  1  0.752032  0.286188  0.565314  1
  Si  Si315  1  0.755952  0.537192  0.553112  1
  Si  Si316  1  0.758075  0.462595  0.568460  1
  Si  Si317  1  0.248031  0.286081  0.504689  1
  Si  Si318  1  0.244432  0.213458  0.518330  1
  Si  Si319  1  0.882220  0.434587  0.627019  1
  Si  Si320  1  0.882220  0.934587  0.528638  1
  Si  Si321  1  0.881376  0.066194  0.503470  1
  Si  Si322  1  0.881376  0.566194  0.601851  1
  Si  Si323  1  0.118415  0.184006  0.578677  1
  Si  Si324  1  0.125142  0.315211  0.552163  1
  Si  Si325  1  0.118362  0.566404  0.554621  1
  Si  Si326  1  0.121867  0.434281  0.580377  1
  Si  Si327  1  0.875721  0.315335  0.506396  1
  Si  Si328  1  0.881275  0.184022  0.531359  1
  H  H329  1  0.544595  0.375004  0.154920  1
  H  H330  1  0.543179  0.124987  0.203826  1
  H  H331  1  0.543179  0.624987  0.105446  1
  H  H332  1  0.454167  0.874978  0.154843  1
  H  H333  1  0.543179  0.124987  0.634266  1
  H  H334  1  0.457019  0.624915  0.634242  1
  H  H335  1  0.454167  0.374979  0.683663  1
  H  H336  1  0.454167  0.874978  0.585282  1
