# generated using pymatgen
data_Si7H2O15
_symmetry_space_group_name_H-M   'P 1'
_cell_length_a   17.04919116
_cell_length_b   17.04860003
_cell_length_c   29.37248398
_cell_angle_alpha   90.00000000
_cell_angle_beta   90.00000000
_cell_angle_gamma   120.00000000
_symmetry_Int_Tables_number   1
_chemical_formula_structural   Si7H2O15
_chemical_formula_sum   'Si42 H12 O90'
_cell_volume   7393.73378598
_cell_formula_units_Z   6
loop_
 _symmetry_equiv_pos_site_id
 _symmetry_equiv_pos_as_xyz
  1  'x, y, z'
loop_
 _atom_site_type_symbol
 _atom_site_label
 _atom_site_symmetry_multiplicity
 _atom_site_fract_x
 _atom_site_fract_y
 _atom_site_fract_z
 _atom_site_occupancy
  O  O1  1  0.084211  0.395051  0.253104  1
  O  O2  1  0.310023  0.395109  0.253072  1
  O  O3  1  0.252695  0.253135  0.200909  1
  O  O4  1  0.235367  0.235992  0.286851  1
  O  O5  1  0.174396  0.087353  0.329674  1
  O  O6  1  0.252204  0.747144  0.270134  1
  O  O7  1  0.252302  0.505499  0.270142  1
  O  O8  1  0.310076  0.915276  0.253063  1
  O  O9  1  0.084103  0.689461  0.253121  1
  O  O10  1  0.143482  0.571926  0.265468  1
  O  O11  1  0.252826  -0.000000  0.200868  1
  O  O12  1  0.235585  0.000000  0.286810  1
  O  O13  1  0.086983  0.912517  0.329683  1
  O  O14  1  0.504988  0.252700  0.270139  1
  O  O15  1  0.394560  0.310372  0.253128  1
  O  O16  1  0.394736  0.084570  0.253068  1
  O  O17  1  0.571472  0.427917  0.265473  1
  O  O18  1  0.571617  0.144069  0.265465  1
  O  O19  1  0.494086  0.747160  0.270156  1
  O  O20  1  0.604491  0.689472  0.253130  1
  O  O21  1  0.604372  0.915295  0.253135  1
  O  O22  1  0.427568  0.571957  0.265468  1
  O  O23  1  0.427465  0.855787  0.265459  1
  O  O24  1  0.746864  0.252713  0.270162  1
  O  O25  1  0.746721  0.494355  0.270147  1
  O  O26  1  0.689030  0.084580  0.253140  1
  O  O27  1  0.914955  0.310403  0.253133  1
  O  O28  1  0.855545  0.427916  0.265474  1
  O  O29  1  0.000000  0.253095  0.200945  1
  O  O30  1  0.000000  0.235912  0.286893  1
  O  O31  1  0.914830  0.604762  0.253079  1
  O  O32  1  0.689068  0.604792  0.253106  1
  O  O33  1  0.746417  0.746751  0.200944  1
  O  O34  1  0.763640  0.763934  0.286892  1
  O  O35  1  0.746277  -0.000000  0.200953  1
  O  O36  1  -0.000000  0.746723  0.200909  1
  O  O37  1  0.763512  0.000000  0.286899  1
  O  O38  1  0.000000  0.763884  0.286851  1
  O  O39  1  0.084187  0.395057  0.406469  1
  O  O40  1  0.309959  0.395012  0.406427  1
  O  O41  1  0.134068  0.470111  0.329778  1
  O  O42  1  0.252654  0.253133  0.458635  1
  O  O43  1  0.235531  0.235821  0.372691  1
  O  O44  1  0.086889  0.174671  0.329861  1
  O  O45  1  0.252239  0.747177  0.389413  1
  O  O46  1  0.252284  0.505430  0.389405  1
  O  O47  1  0.309963  0.915288  0.406424  1
  O  O48  1  0.084134  0.689414  0.406478  1
  O  O49  1  0.134023  0.664279  0.329788  1
  O  O50  1  0.143550  0.571935  0.394098  1
  O  O51  1  0.252679  0.000000  0.458600  1
  O  O52  1  0.235474  -0.000000  0.372653  1
  O  O53  1  0.504989  0.252668  0.389420  1
  O  O54  1  0.394639  0.310425  0.406481  1
  O  O55  1  0.394616  0.084555  0.406431  1
  O  O56  1  0.469666  0.335560  0.329794  1
  O  O57  1  0.663907  0.134543  0.329802  1
  O  O58  1  0.335165  0.470121  0.329763  1
  O  O59  1  0.469726  0.134492  0.329767  1
  O  O60  1  0.571531  0.427909  0.394103  1
  O  O61  1  0.571534  0.143992  0.394105  1
  O  O62  1  0.494011  0.747147  0.389440  1
  O  O63  1  0.604402  0.689433  0.406488  1
  O  O64  1  0.604336  0.915284  0.406468  1
  O  O65  1  0.529387  0.664287  0.329803  1
  O  O66  1  0.335144  0.865354  0.329761  1
  O  O67  1  0.529285  0.865325  0.329797  1
  O  O68  1  0.663867  0.529738  0.329783  1
  O  O69  1  0.427517  0.571909  0.394098  1
  O  O70  1  0.427458  0.855867  0.394099  1
  O  O71  1  0.746805  0.252720  0.389446  1
  O  O72  1  0.746772  0.494430  0.389411  1
  O  O73  1  0.689001  0.084582  0.406470  1
  O  O74  1  0.914913  0.310450  0.406495  1
  O  O75  1  0.865039  0.335588  0.329808  1
  O  O76  1  0.855534  0.427960  0.394104  1
  O  O77  1  0.000000  0.235888  0.372736  1
  O  O78  1  0.000000  0.253146  0.458677  1
  O  O79  1  0.912067  0.087345  0.329807  1
  O  O80  1  0.914868  0.604856  0.406431  1
  O  O81  1  0.689035  0.604791  0.406473  1
  O  O82  1  0.864962  0.529744  0.329769  1
  O  O83  1  0.746315  0.746712  0.458676  1
  O  O84  1  0.746216  -0.000000  0.458672  1
  O  O85  1  0.763555  0.763956  0.372735  1
  O  O86  1  0.000000  0.764041  0.372692  1
  O  O87  1  0.824649  0.912500  0.329808  1
  O  O88  1  0.912158  0.825186  0.329856  1
  O  O89  1  0.763513  -0.000000  0.372737  1
  O  O90  1  0.000000  0.746734  0.458635  1
  Si  Si91  1  0.297407  0.297886  0.247719  1
  Si  Si92  1  0.332759  0.486283  0.277171  1
  Si  Si93  1  0.152624  0.486256  0.277183  1
  Si  Si94  1  0.297553  -0.000000  0.247679  1
  Si  Si95  1  0.152541  0.666700  0.277190  1
  Si  Si96  1  0.182101  -0.000000  0.329706  1
  Si  Si97  1  0.332717  0.846780  0.277168  1
  Si  Si98  1  0.485869  0.153064  0.277173  1
  Si  Si99  1  0.485762  0.333142  0.277195  1
  Si  Si100  1  0.666354  0.153081  0.277206  1
  Si  Si101  1  0.513295  0.666708  0.277204  1
  Si  Si102  1  0.513198  0.846790  0.277201  1
  Si  Si103  1  0.666278  0.513589  0.277188  1
  Si  Si104  1  0.846522  0.333164  0.277209  1
  Si  Si105  1  -0.000000  0.297845  0.247749  1
  Si  Si106  1  0.846398  0.513586  0.277176  1
  Si  Si107  1  0.701559  -0.000000  0.247765  1
  Si  Si108  1  0.701670  0.702008  0.247748  1
  Si  Si109  1  0.000000  0.701972  0.247719  1
  Si  Si110  1  0.182042  0.182451  0.329770  1
  Si  Si111  1  0.152622  0.486232  0.382374  1
  Si  Si112  1  0.297430  0.297836  0.411829  1
  Si  Si113  1  0.332738  0.486222  0.382361  1
  Si  Si114  1  0.152586  0.666700  0.382382  1
  Si  Si115  1  0.297416  0.000000  0.411794  1
  Si  Si116  1  0.332707  0.846830  0.382360  1
  Si  Si117  1  0.485808  0.333144  0.382388  1
  Si  Si118  1  0.485812  0.153016  0.382366  1
  Si  Si119  1  0.666316  0.153073  0.382397  1
  Si  Si120  1  0.513228  0.666694  0.382396  1
  Si  Si121  1  0.513165  0.846796  0.382393  1
  Si  Si122  1  0.666300  0.513616  0.382379  1
  Si  Si123  1  0.846470  0.333177  0.382401  1
  Si  Si124  1  0.000000  0.182446  0.329822  1
  Si  Si125  1  -0.000000  0.297880  0.411867  1
  Si  Si126  1  0.817001  0.817400  0.329820  1
  Si  Si127  1  0.000000  0.817417  0.329771  1
  Si  Si128  1  -0.000000  0.702022  0.411830  1
  Si  Si129  1  0.846436  0.513646  0.382367  1
  Si  Si130  1  0.701587  0.701980  0.411865  1
  Si  Si131  1  0.701517  -0.000000  0.411853  1
  Si  Si132  1  0.816949  0.000000  0.329817  1
  H  H133  1  0.252695  0.253135  0.170268  1
  H  H134  1  0.252826  -0.000000  0.170227  1
  H  H135  1  0.000000  0.253095  0.170304  1
  H  H136  1  0.746417  0.746751  0.170303  1
  H  H137  1  0.746277  -0.000000  0.170312  1
  H  H138  1  -0.000000  0.746723  0.170268  1
  H  H139  1  0.252654  0.253133  0.489276  1
  H  H140  1  0.252679  -0.000000  0.489241  1
  H  H141  1  0.000000  0.253146  0.489318  1
  H  H142  1  0.746315  0.746712  0.489317  1
  H  H143  1  0.746216  -0.000000  0.489313  1
  H  H144  1  0.000000  0.746734  0.489276  1
