# generated using pymatgen
data_Si10H2O21
_symmetry_space_group_name_H-M   'P 1'
_cell_length_a   17.25043091
_cell_length_b   17.25135508
_cell_length_c   40.93053889
_cell_angle_alpha   90.00000000
_cell_angle_beta   90.00000000
_cell_angle_gamma   120.00000000
_symmetry_Int_Tables_number   1
_chemical_formula_structural   Si10H2O21
_chemical_formula_sum   'Si60 H12 O126'
_cell_volume   10548.7562346
_cell_formula_units_Z   6
loop_
 _symmetry_equiv_pos_site_id
 _symmetry_equiv_pos_as_xyz
  1  'x, y, z'
loop_
 _atom_site_type_symbol
 _atom_site_label
 _atom_site_symmetry_multiplicity
 _atom_site_fract_x
 _atom_site_fract_y
 _atom_site_fract_z
 _atom_site_occupancy
  O  O1  1  0.100579  0.413729  0.144154  1
  O  O2  1  0.313200  0.413733  0.144153  1
  O  O3  1  0.332582  0.461629  0.208416  1
  O  O4  1  0.129117  0.461625  0.208419  1
  O  O5  1  0.997290  0.289562  0.436485  1
  O  O6  1  0.292369  0.289550  0.436480  1
  O  O7  1  0.289642  0.292293  0.319202  1
  O  O8  1  0.002754  0.292292  0.319207  1
  O  O9  1  0.000000  0.250792  0.377845  1
  O  O10  1  0.250869  0.250784  0.377838  1
  O  O11  1  0.144394  0.288691  0.412090  1
  O  O12  1  0.288779  0.144324  0.343595  1
  O  O13  1  0.855642  0.144328  0.343600  1
  O  O14  1  0.104884  0.408205  0.395105  1
  O  O15  1  0.303428  0.408200  0.395100  1
  O  O16  1  0.408280  0.303329  0.360579  1
  O  O17  1  0.696607  0.104788  0.360585  1
  O  O18  1  0.408280  0.104790  0.360583  1
  O  O19  1  0.895150  0.303335  0.360583  1
  O  O20  1  0.686814  0.100520  0.483003  1
  O  O21  1  0.413793  0.313132  0.483007  1
  O  O22  1  0.899426  0.313145  0.483015  1
  O  O23  1  0.413780  0.100522  0.483003  1
  O  O24  1  0.100605  0.413729  0.272681  1
  O  O25  1  0.313223  0.413736  0.272678  1
  O  O26  1  0.676343  0.123665  0.420854  1
  O  O27  1  0.447438  0.323600  0.420844  1
  O  O28  1  0.876260  0.323605  0.420847  1
  O  O29  1  0.447424  0.123671  0.420853  1
  O  O30  1  0.123769  0.447365  0.334849  1
  O  O31  1  0.323708  0.447366  0.334846  1
  O  O32  1  0.826554  0.173342  0.446722  1
  O  O33  1  0.346876  0.173346  0.446716  1
  O  O34  1  0.173459  0.346808  0.308973  1
  O  O35  1  0.570669  0.429289  0.379724  1
  O  O36  1  0.570661  0.141213  0.379727  1
  O  O37  1  0.858712  0.429281  0.379729  1
  O  O38  1  0.742656  0.485227  0.383757  1
  O  O39  1  0.514727  0.257283  0.383753  1
  O  O40  1  0.742651  0.257274  0.383756  1
  O  O41  1  0.292379  0.002683  0.436482  1
  O  O42  1  0.710407  0.002694  0.436485  1
  O  O43  1  0.686781  0.100514  0.611532  1
  O  O44  1  0.413774  0.313134  0.611528  1
  O  O45  1  0.899396  0.313136  0.611537  1
  O  O46  1  0.413763  0.100510  0.611532  1
  O  O47  1  0.848216  0.424037  0.502871  1
  O  O48  1  0.575898  0.424042  0.502868  1
  O  O49  1  0.575896  0.151715  0.502871  1
  O  O50  1  0.848198  0.424029  0.591673  1
  O  O51  1  0.575877  0.424031  0.591670  1
  O  O52  1  0.575875  0.151710  0.591674  1
  O  O53  1  0.870872  0.332502  0.547275  1
  O  O54  1  0.461685  0.129052  0.547269  1
  O  O55  1  0.667420  0.129052  0.547269  1
  O  O56  1  0.461682  0.332499  0.547273  1
  O  O57  1  0.745221  0.254699  0.506758  1
  O  O58  1  0.745226  0.490381  0.506759  1
  O  O59  1  0.509554  0.254703  0.506761  1
  O  O60  1  0.745210  0.254706  0.587783  1
  O  O61  1  0.745213  0.490377  0.587783  1
  O  O62  1  0.509535  0.254707  0.587783  1
  O  O63  1  0.313189  0.899339  0.144153  1
  O  O64  1  0.586193  0.686741  0.144150  1
  O  O65  1  0.100581  0.686723  0.144155  1
  O  O66  1  0.586203  0.899335  0.144147  1
  O  O67  1  0.151784  0.575823  0.164017  1
  O  O68  1  0.424108  0.575841  0.164016  1
  O  O69  1  0.424114  0.848156  0.164016  1
  O  O70  1  0.151798  0.575826  0.252819  1
  O  O71  1  0.424116  0.575837  0.252818  1
  O  O72  1  0.424122  0.848160  0.252820  1
  O  O73  1  0.129123  0.667361  0.208420  1
  O  O74  1  0.538321  0.870826  0.208415  1
  O  O75  1  0.332569  0.870819  0.208418  1
  O  O76  1  0.538313  0.667369  0.208413  1
  O  O77  1  0.254772  0.745161  0.167904  1
  O  O78  1  0.254768  0.509477  0.167905  1
  O  O79  1  0.490436  0.745157  0.167908  1
  O  O80  1  0.254785  0.745157  0.248929  1
  O  O81  1  0.254783  0.509480  0.248929  1
  O  O82  1  0.490461  0.745165  0.248932  1
  O  O83  1  0.710402  0.707572  0.436484  1
  O  O84  1  0.997272  0.707561  0.436485  1
  O  O85  1  0.002749  0.710293  0.319209  1
  O  O86  1  0.707653  0.710303  0.319204  1
  O  O87  1  0.749168  0.749073  0.377843  1
  O  O88  1  0.250857  0.000000  0.377843  1
  O  O89  1  -0.000000  0.749057  0.377845  1
  O  O90  1  0.711273  0.855568  0.412087  1
  O  O91  1  0.144396  0.855553  0.412086  1
  O  O92  1  0.855627  0.711151  0.343597  1
  O  O93  1  0.591754  0.696535  0.395103  1
  O  O94  1  0.303411  0.895073  0.395104  1
  O  O95  1  0.591768  0.895074  0.395105  1
  O  O96  1  0.104881  0.696524  0.395105  1
  O  O97  1  0.895149  0.591653  0.360587  1
  O  O98  1  0.696602  0.591657  0.360584  1
  O  O99  1  0.899420  0.586133  0.483012  1
  O  O100  1  0.686799  0.586137  0.483008  1
  O  O101  1  0.313206  0.899334  0.272679  1
  O  O102  1  0.586216  0.686734  0.272680  1
  O  O103  1  0.100606  0.686725  0.272683  1
  O  O104  1  0.586232  0.899347  0.272682  1
  O  O105  1  0.876269  0.552501  0.420848  1
  O  O106  1  0.676329  0.552508  0.420846  1
  O  O107  1  0.323702  0.876188  0.334847  1
  O  O108  1  0.552591  0.676274  0.334845  1
  O  O109  1  0.123779  0.676265  0.334848  1
  O  O110  1  0.552592  0.876189  0.334848  1
  O  O111  1  0.826575  0.653056  0.446720  1
  O  O112  1  0.173441  0.826488  0.308976  1
  O  O113  1  0.653157  0.826500  0.308971  1
  O  O114  1  0.429377  0.570585  0.375967  1
  O  O115  1  0.429383  0.858642  0.375973  1
  O  O116  1  0.141320  0.570578  0.375969  1
  O  O117  1  0.257371  0.514627  0.371940  1
  O  O118  1  0.485316  0.742588  0.371940  1
  O  O119  1  0.257376  0.742586  0.371940  1
  O  O120  1  0.707665  0.997194  0.319206  1
  O  O121  1  0.289630  0.997190  0.319203  1
  O  O122  1  0.749171  -0.000000  0.377846  1
  O  O123  1  0.899408  0.586133  0.611536  1
  O  O124  1  0.686779  0.586136  0.611530  1
  O  O125  1  0.667416  0.538230  0.547271  1
  O  O126  1  0.870877  0.538226  0.547273  1
  Si  Si127  1  0.154495  0.487522  0.245779  1
  Si  Si128  1  0.333114  0.487529  0.245777  1
  Si  Si129  1  0.154485  0.487520  0.171057  1
  Si  Si130  1  0.333100  0.487532  0.171054  1
  Si  Si131  1  0.667261  0.155207  0.385519  1
  Si  Si132  1  0.488057  0.332683  0.385509  1
  Si  Si133  1  0.844721  0.332683  0.385516  1
  Si  Si134  1  0.064415  0.307725  0.406940  1
  Si  Si135  1  0.243405  0.307718  0.406934  1
  Si  Si136  1  0.307807  0.243327  0.348739  1
  Si  Si137  1  0.756625  0.064333  0.348746  1
  Si  Si138  1  0.307799  0.064329  0.348743  1
  Si  Si139  1  0.935624  0.243328  0.348746  1
  Si  Si140  1  0.724452  0.097062  0.447982  1
  Si  Si141  1  0.372715  0.275469  0.447970  1
  Si  Si142  1  0.902847  0.275476  0.447976  1
  Si  Si143  1  0.372701  0.097064  0.447978  1
  Si  Si144  1  0.097171  0.372645  0.307717  1
  Si  Si145  1  0.275583  0.372647  0.307714  1
  Si  Si146  1  0.332780  0.487985  0.370178  1
  Si  Si147  1  0.155318  0.487984  0.370181  1
  Si  Si148  1  0.488049  0.155211  0.385520  1
  Si  Si149  1  0.845510  0.333026  0.509913  1
  Si  Si150  1  0.487579  0.154409  0.509906  1
  Si  Si151  1  0.666905  0.154405  0.509905  1
  Si  Si152  1  0.487585  0.333026  0.509910  1
  Si  Si153  1  0.845502  0.333024  0.584636  1
  Si  Si154  1  0.487572  0.154425  0.584633  1
  Si  Si155  1  0.666892  0.154420  0.584631  1
  Si  Si156  1  0.487573  0.333026  0.584633  1
  Si  Si157  1  0.154485  0.666831  0.171058  1
  Si  Si158  1  0.512420  0.845450  0.171054  1
  Si  Si159  1  0.333097  0.845447  0.171056  1
  Si  Si160  1  0.512414  0.666844  0.171056  1
  Si  Si161  1  0.154504  0.666832  0.245780  1
  Si  Si162  1  0.512425  0.845446  0.245778  1
  Si  Si163  1  0.333103  0.845439  0.245778  1
  Si  Si164  1  0.512420  0.666844  0.245777  1
  Si  Si165  1  0.844717  0.511879  0.385516  1
  Si  Si166  1  0.667258  0.511890  0.385514  1
  Si  Si167  1  0.692232  0.756547  0.406941  1
  Si  Si168  1  0.243404  0.935535  0.406944  1
  Si  Si169  1  0.692231  0.935543  0.406947  1
  Si  Si170  1  0.064413  0.756535  0.406942  1
  Si  Si171  1  0.935611  0.692123  0.348745  1
  Si  Si172  1  0.756614  0.692126  0.348742  1
  Si  Si173  1  0.902859  0.627215  0.447978  1
  Si  Si174  1  0.724449  0.627217  0.447975  1
  Si  Si175  1  0.275566  0.902776  0.307716  1
  Si  Si176  1  0.627313  0.724381  0.307714  1
  Si  Si177  1  0.097165  0.724373  0.307717  1
  Si  Si178  1  0.627315  0.902784  0.307717  1
  Si  Si179  1  0.511985  0.844648  0.370180  1
  Si  Si180  1  0.155317  0.667178  0.370180  1
  Si  Si181  1  0.511969  0.667187  0.370179  1
  Si  Si182  1  0.332776  0.844649  0.370179  1
  Si  Si183  1  0.845506  0.512342  0.584635  1
  Si  Si184  1  0.666885  0.512341  0.584633  1
  Si  Si185  1  0.845511  0.512342  0.509911  1
  Si  Si186  1  0.666910  0.512352  0.509909  1
  H  H187  1  0.100579  0.413729  0.122166  1
  H  H188  1  0.313200  0.413733  0.122164  1
  H  H189  1  0.686781  0.100514  0.633521  1
  H  H190  1  0.413774  0.313134  0.633517  1
  H  H191  1  0.899396  0.313136  0.633525  1
  H  H192  1  0.413763  0.100510  0.633521  1
  H  H193  1  0.313189  0.899339  0.122165  1
  H  H194  1  0.586193  0.686741  0.122162  1
  H  H195  1  0.100581  0.686723  0.122167  1
  H  H196  1  0.586203  0.899335  0.122158  1
  H  H197  1  0.899408  0.586133  0.633525  1
  H  H198  1  0.686779  0.586136  0.633518  1
