# generated using pymatgen
data_Si21H2O43
_symmetry_space_group_name_H-M   'P 1'
_cell_length_a   19.96193813
_cell_length_b   15.95154717
_cell_length_c   63.61589590
_cell_angle_alpha   57.66780087
_cell_angle_beta   90.00000000
_cell_angle_gamma   90.00000000
_symmetry_Int_Tables_number   1
_chemical_formula_structural   Si21H2O43
_chemical_formula_sum   'Si168 H16 O344'
_cell_volume   17116.2269838
_cell_formula_units_Z   8
loop_
 _symmetry_equiv_pos_site_id
 _symmetry_equiv_pos_as_xyz
  1  'x, y, z'
loop_
 _atom_site_type_symbol
 _atom_site_label
 _atom_site_symmetry_multiplicity
 _atom_site_fract_x
 _atom_site_fract_y
 _atom_site_fract_z
 _atom_site_occupancy
  O  O1  1  0.950859  0.349413  0.107166  1
  O  O2  1  0.351063  0.344862  0.107683  1
  O  O3  1  0.549663  0.349228  0.107214  1
  O  O4  1  0.149181  0.344923  0.107798  1
  O  O5  1  0.844177  0.640159  0.278143  1
  O  O6  1  0.750183  0.567247  0.265358  1
  O  O7  1  0.844925  0.665698  0.235453  1
  O  O8  1  0.849728  0.812807  0.270799  1
  O  O9  1  0.951752  0.701040  0.286379  1
  O  O10  1  0.851089  0.654941  0.120737  1
  O  O11  1  0.849585  0.834240  0.195879  1
  O  O12  1  0.847573  0.668407  0.195466  1
  O  O13  1  0.951094  0.719963  0.209925  1
  O  O14  1  0.750135  0.549544  0.146413  1
  O  O15  1  0.838590  0.590729  0.168300  1
  O  O16  1  0.749616  0.554383  0.200826  1
  O  O17  1  0.834319  0.899193  0.224043  1
  O  O18  1  0.750150  0.950439  0.189671  1
  O  O19  1  0.750141  0.931264  0.248484  1
  O  O20  1  0.998938  0.500858  0.211243  1
  O  O21  1  0.372314  0.523602  0.269462  1
  O  O22  1  0.655434  0.665513  0.235346  1
  O  O23  1  0.650351  0.813180  0.270755  1
  O  O24  1  0.548444  0.701081  0.286299  1
  O  O25  1  0.649204  0.654906  0.120608  1
  O  O26  1  0.650584  0.834446  0.195863  1
  O  O27  1  0.651968  0.669020  0.195264  1
  O  O28  1  0.548967  0.720309  0.209937  1
  O  O29  1  0.443888  0.664406  0.235041  1
  O  O30  1  0.499583  0.513789  0.270737  1
  O  O31  1  0.443201  0.638534  0.278181  1
  O  O32  1  0.450846  0.650356  0.121257  1
  O  O33  1  0.445846  0.581082  0.169452  1
  O  O34  1  0.665972  0.899356  0.224033  1
  O  O35  1  0.374593  0.978950  0.242855  1
  O  O36  1  0.374170  0.997174  0.183395  1
  O  O37  1  0.448263  0.836297  0.195305  1
  O  O38  1  0.448525  0.666109  0.195331  1
  O  O39  1  0.446745  0.813439  0.270693  1
  O  O40  1  0.500142  0.989379  0.242191  1
  O  O41  1  0.444056  0.906089  0.222999  1
  O  O42  1  0.374899  0.500906  0.151327  1
  O  O43  1  0.656200  0.640894  0.277931  1
  O  O44  1  0.661318  0.591349  0.168063  1
  O  O45  1  0.372978  0.512505  0.209275  1
  O  O46  1  0.127987  0.523773  0.269509  1
  O  O47  1  0.056285  0.664573  0.235023  1
  O  O48  1  0.000000  0.514233  0.270819  1
  O  O49  1  0.057181  0.639225  0.278098  1
  O  O50  1  0.049652  0.650573  0.121199  1
  O  O51  1  0.055700  0.582126  0.169250  1
  O  O52  1  0.125826  0.511517  0.209694  1
  O  O53  1  0.125670  0.978941  0.242828  1
  O  O54  1  0.126063  0.996909  0.183435  1
  O  O55  1  0.051608  0.836422  0.195276  1
  O  O56  1  0.051684  0.665991  0.195390  1
  O  O57  1  0.053236  0.813894  0.270664  1
  O  O58  1  0.055951  0.906244  0.222962  1
  O  O59  1  0.125516  0.500829  0.151227  1
  O  O60  1  0.000000  0.989872  0.242103  1
  O  O61  1  0.872322  0.476179  0.154125  1
  O  O62  1  0.943870  0.335398  0.188560  1
  O  O63  1  0.000000  0.485968  0.152852  1
  O  O64  1  0.943194  0.361162  0.145432  1
  O  O65  1  0.950859  0.349413  0.302346  1
  O  O66  1  0.945865  0.418644  0.254158  1
  O  O67  1  0.874885  0.498829  0.272277  1
  O  O68  1  0.874590  0.020753  0.180726  1
  O  O69  1  0.874167  0.002564  0.240188  1
  O  O70  1  0.948243  0.163450  0.228277  1
  O  O71  1  0.948588  0.333577  0.228284  1
  O  O72  1  0.946751  0.186290  0.152895  1
  O  O73  1  0.944027  0.093649  0.200582  1
  O  O74  1  0.872993  0.487139  0.214341  1
  O  O75  1  0.628005  0.476045  0.154076  1
  O  O76  1  0.344909  0.334043  0.188156  1
  O  O77  1  0.349759  0.186952  0.152789  1
  O  O78  1  0.451750  0.298793  0.137208  1
  O  O79  1  0.351063  0.344862  0.302864  1
  O  O80  1  0.349634  0.165452  0.227714  1
  O  O81  1  0.347577  0.331234  0.228154  1
  O  O82  1  0.451109  0.279818  0.213664  1
  O  O83  1  0.556316  0.335218  0.188570  1
  O  O84  1  0.500777  0.485561  0.152781  1
  O  O85  1  0.557187  0.360580  0.145495  1
  O  O86  1  0.549663  0.349228  0.302394  1
  O  O87  1  0.555736  0.417621  0.254349  1
  O  O88  1  0.625822  0.488244  0.213896  1
  O  O89  1  0.625663  0.020859  0.180750  1
  O  O90  1  0.626059  0.002893  0.240137  1
  O  O91  1  0.551600  0.163340  0.228310  1
  O  O92  1  0.551696  0.333755  0.228207  1
  O  O93  1  0.553223  0.185911  0.152921  1
  O  O94  1  0.498932  0.498872  0.212366  1
  O  O95  1  0.500092  0.009906  0.181472  1
  O  O96  1  0.555919  0.093532  0.200619  1
  O  O97  1  0.625513  0.498985  0.272364  1
  O  O98  1  0.344168  0.359564  0.145469  1
  O  O99  1  0.338565  0.408966  0.255312  1
  O  O100  1  0.334333  0.100547  0.199540  1
  O  O101  1  0.156209  0.358925  0.145656  1
  O  O102  1  0.250191  0.432545  0.158240  1
  O  O103  1  0.155437  0.334295  0.188242  1
  O  O104  1  0.150380  0.186636  0.152825  1
  O  O105  1  0.048452  0.298675  0.137305  1
  O  O106  1  0.149181  0.344923  0.302979  1
  O  O107  1  0.150625  0.165337  0.227717  1
  O  O108  1  0.151922  0.330729  0.228334  1
  O  O109  1  0.048969  0.279383  0.213648  1
  O  O110  1  0.250117  0.450264  0.277176  1
  O  O111  1  0.161298  0.408438  0.255529  1
  O  O112  1  0.249608  0.445282  0.222781  1
  O  O113  1  0.165987  0.100426  0.199545  1
  O  O114  1  0.250165  0.049315  0.233909  1
  O  O115  1  0.250150  0.068513  0.175093  1
  O  O116  1  0.000000  0.010360  0.181395  1
  O  O117  1  0.844177  0.640159  0.473324  1
  O  O118  1  0.750183  0.567247  0.460538  1
  O  O119  1  0.844925  0.665698  0.430634  1
  O  O120  1  0.849728  0.812807  0.465979  1
  O  O121  1  0.951752  0.701040  0.481560  1
  O  O122  1  0.851089  0.654941  0.315917  1
  O  O123  1  0.849585  0.834240  0.391059  1
  O  O124  1  0.847573  0.668407  0.390647  1
  O  O125  1  0.951094  0.719963  0.405105  1
  O  O126  1  0.750135  0.549544  0.341593  1
  O  O127  1  0.838590  0.590729  0.363480  1
  O  O128  1  0.749616  0.554383  0.396006  1
  O  O129  1  0.834319  0.899193  0.419224  1
  O  O130  1  0.750150  0.950439  0.384852  1
  O  O131  1  0.750141  0.931264  0.443664  1
  O  O132  1  0.998938  0.500858  0.406423  1
  O  O133  1  0.372314  0.523602  0.464642  1
  O  O134  1  0.655434  0.665513  0.430527  1
  O  O135  1  0.650351  0.813180  0.465935  1
  O  O136  1  0.548444  0.701081  0.481479  1
  O  O137  1  0.649204  0.654906  0.315789  1
  O  O138  1  0.650584  0.834446  0.391044  1
  O  O139  1  0.651968  0.669020  0.390444  1
  O  O140  1  0.548967  0.720309  0.405117  1
  O  O141  1  0.443888  0.664406  0.430222  1
  O  O142  1  0.499583  0.513789  0.465918  1
  O  O143  1  0.443201  0.638534  0.473361  1
  O  O144  1  0.450846  0.650356  0.316437  1
  O  O145  1  0.445846  0.581082  0.364633  1
  O  O146  1  0.665972  0.899356  0.419214  1
  O  O147  1  0.374593  0.978950  0.438035  1
  O  O148  1  0.374170  0.997174  0.378576  1
  O  O149  1  0.448263  0.836297  0.390486  1
  O  O150  1  0.448525  0.666109  0.390511  1
  O  O151  1  0.446745  0.813439  0.465873  1
  O  O152  1  0.500142  0.989379  0.437371  1
  O  O153  1  0.444056  0.906089  0.418179  1
  O  O154  1  0.374899  0.500906  0.346508  1
  O  O155  1  0.656200  0.640894  0.473112  1
  O  O156  1  0.661318  0.591349  0.363244  1
  O  O157  1  0.372978  0.512505  0.404456  1
  O  O158  1  0.127987  0.523773  0.464689  1
  O  O159  1  0.056285  0.664573  0.430203  1
  O  O160  1  0.000000  0.514233  0.465999  1
  O  O161  1  0.057181  0.639225  0.473278  1
  O  O162  1  0.049652  0.650573  0.316380  1
  O  O163  1  0.055700  0.582126  0.364430  1
  O  O164  1  0.125826  0.511517  0.404875  1
  O  O165  1  0.125670  0.978941  0.438008  1
  O  O166  1  0.126063  0.996909  0.378615  1
  O  O167  1  0.051608  0.836422  0.390456  1
  O  O168  1  0.051684  0.665991  0.390570  1
  O  O169  1  0.053236  0.813894  0.465844  1
  O  O170  1  0.055951  0.906244  0.418142  1
  O  O171  1  0.125516  0.500829  0.346408  1
  O  O172  1  0.000000  0.989872  0.437283  1
  O  O173  1  0.872322  0.476179  0.349305  1
  O  O174  1  0.943870  0.335398  0.383740  1
  O  O175  1  0.000000  0.485968  0.348032  1
  O  O176  1  0.943194  0.361162  0.340612  1
  O  O177  1  0.950859  0.349413  0.497526  1
  O  O178  1  0.945865  0.418644  0.449338  1
  O  O179  1  0.874885  0.498829  0.467458  1
  O  O180  1  0.874590  0.020753  0.375907  1
  O  O181  1  0.874167  0.002564  0.435368  1
  O  O182  1  0.948243  0.163450  0.423458  1
  O  O183  1  0.948588  0.333577  0.423465  1
  O  O184  1  0.946751  0.186290  0.348075  1
  O  O185  1  0.944027  0.093649  0.395762  1
  O  O186  1  0.872993  0.487139  0.409521  1
  O  O187  1  0.628005  0.476045  0.349257  1
  O  O188  1  0.344909  0.334043  0.383337  1
  O  O189  1  0.349759  0.186952  0.347969  1
  O  O190  1  0.451750  0.298793  0.332389  1
  O  O191  1  0.351063  0.344862  0.498044  1
  O  O192  1  0.349634  0.165452  0.422895  1
  O  O193  1  0.347577  0.331234  0.423334  1
  O  O194  1  0.451109  0.279818  0.408845  1
  O  O195  1  0.556316  0.335218  0.383750  1
  O  O196  1  0.500777  0.485561  0.347962  1
  O  O197  1  0.557187  0.360580  0.340675  1
  O  O198  1  0.549663  0.349228  0.497574  1
  O  O199  1  0.555736  0.417621  0.449529  1
  O  O200  1  0.625822  0.488244  0.409077  1
  O  O201  1  0.625663  0.020859  0.375931  1
  O  O202  1  0.626059  0.002893  0.435318  1
  O  O203  1  0.551600  0.163340  0.423490  1
  O  O204  1  0.551696  0.333755  0.423387  1
  O  O205  1  0.553223  0.185911  0.348102  1
  O  O206  1  0.498932  0.498872  0.407547  1
  O  O207  1  0.500092  0.009906  0.376652  1
  O  O208  1  0.555919  0.093532  0.395800  1
  O  O209  1  0.625513  0.498985  0.467544  1
  O  O210  1  0.344168  0.359564  0.340650  1
  O  O211  1  0.338565  0.408966  0.450493  1
  O  O212  1  0.334333  0.100547  0.394720  1
  O  O213  1  0.156209  0.358925  0.340837  1
  O  O214  1  0.250191  0.432545  0.353420  1
  O  O215  1  0.155437  0.334295  0.383423  1
  O  O216  1  0.150380  0.186636  0.348006  1
  O  O217  1  0.048452  0.298675  0.332486  1
  O  O218  1  0.149181  0.344923  0.498159  1
  O  O219  1  0.150625  0.165337  0.422898  1
  O  O220  1  0.151922  0.330729  0.423514  1
  O  O221  1  0.048969  0.279383  0.408829  1
  O  O222  1  0.250117  0.450264  0.472357  1
  O  O223  1  0.161298  0.408438  0.450709  1
  O  O224  1  0.249608  0.445282  0.417962  1
  O  O225  1  0.165987  0.100426  0.394725  1
  O  O226  1  0.250165  0.049315  0.429089  1
  O  O227  1  0.250150  0.068513  0.370273  1
  O  O228  1  0.000000  0.010360  0.376576  1
  O  O229  1  0.844177  0.640159  0.668504  1
  O  O230  1  0.750183  0.567247  0.655718  1
  O  O231  1  0.844925  0.665698  0.625814  1
  O  O232  1  0.849728  0.812807  0.661160  1
  O  O233  1  0.951752  0.701040  0.676740  1
  O  O234  1  0.851089  0.654941  0.511098  1
  O  O235  1  0.849585  0.834240  0.586240  1
  O  O236  1  0.847573  0.668407  0.585827  1
  O  O237  1  0.951094  0.719963  0.600286  1
  O  O238  1  0.750135  0.549544  0.536774  1
  O  O239  1  0.838590  0.590729  0.558661  1
  O  O240  1  0.749616  0.554383  0.591186  1
  O  O241  1  0.834319  0.899193  0.614404  1
  O  O242  1  0.750150  0.950439  0.580032  1
  O  O243  1  0.750141  0.931264  0.638845  1
  O  O244  1  0.998938  0.500858  0.601604  1
  O  O245  1  0.372314  0.523602  0.659823  1
  O  O246  1  0.655434  0.665513  0.625707  1
  O  O247  1  0.650351  0.813180  0.661116  1
  O  O248  1  0.548444  0.701081  0.676660  1
  O  O249  1  0.649204  0.654906  0.510969  1
  O  O250  1  0.650584  0.834446  0.586224  1
  O  O251  1  0.651968  0.669020  0.585624  1
  O  O252  1  0.548967  0.720309  0.600297  1
  O  O253  1  0.443888  0.664406  0.625402  1
  O  O254  1  0.499583  0.513789  0.661098  1
  O  O255  1  0.443201  0.638534  0.668542  1
  O  O256  1  0.450846  0.650356  0.511618  1
  O  O257  1  0.445846  0.581082  0.559813  1
  O  O258  1  0.665972  0.899356  0.614394  1
  O  O259  1  0.374593  0.978950  0.633216  1
  O  O260  1  0.374170  0.997174  0.573756  1
  O  O261  1  0.448263  0.836297  0.585666  1
  O  O262  1  0.448525  0.666109  0.585692  1
  O  O263  1  0.446745  0.813439  0.661054  1
  O  O264  1  0.500142  0.989379  0.632551  1
  O  O265  1  0.444056  0.906089  0.613360  1
  O  O266  1  0.374899  0.500906  0.541688  1
  O  O267  1  0.656200  0.640894  0.668292  1
  O  O268  1  0.661318  0.591349  0.558424  1
  O  O269  1  0.372978  0.512505  0.599636  1
  O  O270  1  0.127987  0.523773  0.659870  1
  O  O271  1  0.056285  0.664573  0.625384  1
  O  O272  1  -0.000000  0.514233  0.661180  1
  O  O273  1  0.057181  0.639225  0.668459  1
  O  O274  1  0.049652  0.650573  0.511560  1
  O  O275  1  0.055700  0.582126  0.559611  1
  O  O276  1  0.125826  0.511517  0.600055  1
  O  O277  1  0.125670  0.978941  0.633189  1
  O  O278  1  0.126063  0.996909  0.573796  1
  O  O279  1  0.051608  0.836422  0.585637  1
  O  O280  1  0.051684  0.665991  0.585751  1
  O  O281  1  0.053236  0.813894  0.661025  1
  O  O282  1  0.055951  0.906244  0.613323  1
  O  O283  1  0.125516  0.500829  0.541588  1
  O  O284  1  -0.000000  0.989872  0.632464  1
  O  O285  1  0.872322  0.476179  0.544485  1
  O  O286  1  0.943870  0.335398  0.578921  1
  O  O287  1  0.000000  0.485968  0.543213  1
  O  O288  1  0.943194  0.361162  0.535793  1
  O  O289  1  0.950859  0.349413  0.692707  1
  O  O290  1  0.945865  0.418644  0.644519  1
  O  O291  1  0.874885  0.498829  0.662638  1
  O  O292  1  0.874590  0.020753  0.571087  1
  O  O293  1  0.874167  0.002564  0.630549  1
  O  O294  1  0.948243  0.163450  0.618638  1
  O  O295  1  0.948588  0.333577  0.618645  1
  O  O296  1  0.946751  0.186290  0.543256  1
  O  O297  1  0.944027  0.093649  0.590943  1
  O  O298  1  0.872993  0.487139  0.604702  1
  O  O299  1  0.628005  0.476045  0.544437  1
  O  O300  1  0.344909  0.334043  0.578517  1
  O  O301  1  0.349759  0.186952  0.543150  1
  O  O302  1  0.451750  0.298793  0.527569  1
  O  O303  1  0.351063  0.344862  0.693225  1
  O  O304  1  0.349634  0.165452  0.618075  1
  O  O305  1  0.347577  0.331234  0.618515  1
  O  O306  1  0.451109  0.279818  0.604025  1
  O  O307  1  0.556316  0.335218  0.578930  1
  O  O308  1  0.500777  0.485561  0.543142  1
  O  O309  1  0.557187  0.360580  0.535856  1
  O  O310  1  0.549663  0.349228  0.692755  1
  O  O311  1  0.555736  0.417621  0.644710  1
  O  O312  1  0.625822  0.488244  0.604257  1
  O  O313  1  0.625663  0.020859  0.571111  1
  O  O314  1  0.626059  0.002893  0.630498  1
  O  O315  1  0.551600  0.163340  0.618671  1
  O  O316  1  0.551696  0.333755  0.618568  1
  O  O317  1  0.553223  0.185911  0.543282  1
  O  O318  1  0.498932  0.498872  0.602727  1
  O  O319  1  0.500092  0.009906  0.571833  1
  O  O320  1  0.555919  0.093532  0.590980  1
  O  O321  1  0.625513  0.498985  0.662725  1
  O  O322  1  0.344168  0.359564  0.535830  1
  O  O323  1  0.338565  0.408966  0.645673  1
  O  O324  1  0.334333  0.100547  0.589901  1
  O  O325  1  0.156209  0.358925  0.536017  1
  O  O326  1  0.250191  0.432545  0.548601  1
  O  O327  1  0.155437  0.334295  0.578603  1
  O  O328  1  0.150380  0.186636  0.543186  1
  O  O329  1  0.048452  0.298675  0.527666  1
  O  O330  1  0.149181  0.344923  0.693340  1
  O  O331  1  0.150625  0.165337  0.618078  1
  O  O332  1  0.151922  0.330729  0.618695  1
  O  O333  1  0.048969  0.279383  0.604009  1
  O  O334  1  0.250117  0.450264  0.667537  1
  O  O335  1  0.161298  0.408438  0.645890  1
  O  O336  1  0.249608  0.445282  0.613142  1
  O  O337  1  0.165987  0.100426  0.589906  1
  O  O338  1  0.250165  0.049315  0.624270  1
  O  O339  1  0.250150  0.068513  0.565454  1
  O  O340  1  0.000000  0.010360  0.571756  1
  O  O341  1  0.851089  0.654941  0.706278  1
  O  O342  1  0.649204  0.654906  0.706149  1
  O  O343  1  0.450846  0.650356  0.706798  1
  O  O344  1  0.049652  0.650573  0.706741  1
  Si  Si345  1  0.827465  0.590294  0.263316  1
  Si  Si346  1  0.672929  0.590537  0.263231  1
  Si  Si347  1  0.673439  0.912586  0.246771  1
  Si  Si348  1  0.826805  0.912276  0.246800  1
  Si  Si349  1  0.673442  0.928531  0.196182  1
  Si  Si350  1  0.873982  0.702970  0.288111  1
  Si  Si351  1  0.873130  0.723441  0.208360  1
  Si  Si352  1  0.827305  0.568369  0.147243  1
  Si  Si353  1  0.672920  0.568422  0.147121  1
  Si  Si354  1  0.826881  0.574440  0.194754  1
  Si  Si355  1  0.672489  0.575048  0.194535  1
  Si  Si356  1  0.826847  0.928401  0.196190  1
  Si  Si357  1  0.440536  0.935376  0.195096  1
  Si  Si358  1  0.440369  0.918444  0.245908  1
  Si  Si359  1  0.626209  0.703239  0.287995  1
  Si  Si360  1  0.626913  0.723747  0.208298  1
  Si  Si361  1  0.438647  0.585413  0.263491  1
  Si  Si362  1  0.441992  0.557538  0.148530  1
  Si  Si363  1  0.470978  0.724813  0.207726  1
  Si  Si364  1  0.470579  0.702888  0.288163  1
  Si  Si365  1  0.440137  0.566493  0.195807  1
  Si  Si366  1  0.059758  0.918742  0.245849  1
  Si  Si367  1  0.061736  0.585817  0.263482  1
  Si  Si368  1  0.058630  0.557799  0.148458  1
  Si  Si369  1  0.029081  0.724854  0.207724  1
  Si  Si370  1  0.029623  0.703262  0.288140  1
  Si  Si371  1  0.059601  0.566647  0.195737  1
  Si  Si372  1  0.059513  0.935492  0.195062  1
  Si  Si373  1  0.940356  0.081275  0.177675  1
  Si  Si374  1  0.938648  0.414347  0.160106  1
  Si  Si375  1  0.941992  0.442222  0.275074  1
  Si  Si376  1  0.970983  0.274916  0.215871  1
  Si  Si377  1  0.970587  0.296851  0.135440  1
  Si  Si378  1  0.940166  0.433192  0.227807  1
  Si  Si379  1  0.940525  0.064378  0.228482  1
  Si  Si380  1  0.559495  0.064280  0.228519  1
  Si  Si381  1  0.559745  0.081047  0.177729  1
  Si  Si382  1  0.373980  0.296812  0.135487  1
  Si  Si383  1  0.373147  0.276259  0.215245  1
  Si  Si384  1  0.561756  0.413988  0.160110  1
  Si  Si385  1  0.558642  0.441987  0.275134  1
  Si  Si386  1  0.529096  0.274914  0.215866  1
  Si  Si387  1  0.529622  0.296551  0.135451  1
  Si  Si388  1  0.559611  0.433097  0.227861  1
  Si  Si389  1  0.173450  0.087205  0.176806  1
  Si  Si390  1  0.172934  0.409278  0.160359  1
  Si  Si391  1  0.326817  0.087474  0.176781  1
  Si  Si392  1  0.173461  0.071251  0.227396  1
  Si  Si393  1  0.327468  0.409453  0.160292  1
  Si  Si394  1  0.326866  0.071323  0.227394  1
  Si  Si395  1  0.126216  0.296571  0.135595  1
  Si  Si396  1  0.126914  0.276014  0.215290  1
  Si  Si397  1  0.327286  0.431410  0.276354  1
  Si  Si398  1  0.172902  0.431395  0.276465  1
  Si  Si399  1  0.326867  0.425207  0.228862  1
  Si  Si400  1  0.172472  0.424692  0.229063  1
  Si  Si401  1  0.827465  0.590294  0.458497  1
  Si  Si402  1  0.672929  0.590537  0.458411  1
  Si  Si403  1  0.673439  0.912586  0.441951  1
  Si  Si404  1  0.826805  0.912276  0.441981  1
  Si  Si405  1  0.673442  0.928531  0.391362  1
  Si  Si406  1  0.873982  0.702970  0.483291  1
  Si  Si407  1  0.873130  0.723441  0.403540  1
  Si  Si408  1  0.827305  0.568369  0.342424  1
  Si  Si409  1  0.672920  0.568422  0.342302  1
  Si  Si410  1  0.826881  0.574440  0.389935  1
  Si  Si411  1  0.672489  0.575048  0.389715  1
  Si  Si412  1  0.826847  0.928401  0.391371  1
  Si  Si413  1  0.440536  0.935376  0.390277  1
  Si  Si414  1  0.440369  0.918444  0.441088  1
  Si  Si415  1  0.626209  0.703239  0.483175  1
  Si  Si416  1  0.626913  0.723747  0.403479  1
  Si  Si417  1  0.438647  0.585413  0.458671  1
  Si  Si418  1  0.441992  0.557538  0.343711  1
  Si  Si419  1  0.470978  0.724813  0.402907  1
  Si  Si420  1  0.470579  0.702888  0.483343  1
  Si  Si421  1  0.440137  0.566493  0.390988  1
  Si  Si422  1  0.059758  0.918742  0.441030  1
  Si  Si423  1  0.061736  0.585817  0.458663  1
  Si  Si424  1  0.058630  0.557799  0.343639  1
  Si  Si425  1  0.029081  0.724854  0.402905  1
  Si  Si426  1  0.029623  0.703262  0.483321  1
  Si  Si427  1  0.059601  0.566647  0.390918  1
  Si  Si428  1  0.059513  0.935492  0.390242  1
  Si  Si429  1  0.940356  0.081275  0.372856  1
  Si  Si430  1  0.938648  0.414347  0.355287  1
  Si  Si431  1  0.941992  0.442222  0.470254  1
  Si  Si432  1  0.970983  0.274916  0.411051  1
  Si  Si433  1  0.970587  0.296851  0.330621  1
  Si  Si434  1  0.940166  0.433192  0.422988  1
  Si  Si435  1  0.940525  0.064378  0.423663  1
  Si  Si436  1  0.559495  0.064280  0.423700  1
  Si  Si437  1  0.559745  0.081047  0.372910  1
  Si  Si438  1  0.373980  0.296812  0.330667  1
  Si  Si439  1  0.373147  0.276259  0.410426  1
  Si  Si440  1  0.561756  0.413988  0.355290  1
  Si  Si441  1  0.558642  0.441987  0.470314  1
  Si  Si442  1  0.529096  0.274914  0.411047  1
  Si  Si443  1  0.529622  0.296551  0.330632  1
  Si  Si444  1  0.559611  0.433097  0.423042  1
  Si  Si445  1  0.173450  0.087205  0.371986  1
  Si  Si446  1  0.172934  0.409278  0.355539  1
  Si  Si447  1  0.326817  0.087474  0.371961  1
  Si  Si448  1  0.173461  0.071251  0.422576  1
  Si  Si449  1  0.327468  0.409453  0.355472  1
  Si  Si450  1  0.326866  0.071323  0.422574  1
  Si  Si451  1  0.126216  0.296571  0.330776  1
  Si  Si452  1  0.126914  0.276014  0.410470  1
  Si  Si453  1  0.327286  0.431410  0.471535  1
  Si  Si454  1  0.172902  0.431395  0.471646  1
  Si  Si455  1  0.326867  0.425207  0.424043  1
  Si  Si456  1  0.172472  0.424692  0.424243  1
  Si  Si457  1  0.827465  0.590294  0.653677  1
  Si  Si458  1  0.672929  0.590537  0.653592  1
  Si  Si459  1  0.673439  0.912586  0.637132  1
  Si  Si460  1  0.826805  0.912276  0.637161  1
  Si  Si461  1  0.673442  0.928531  0.586543  1
  Si  Si462  1  0.873982  0.702970  0.678472  1
  Si  Si463  1  0.873130  0.723441  0.598721  1
  Si  Si464  1  0.827305  0.568369  0.537604  1
  Si  Si465  1  0.672920  0.568422  0.537482  1
  Si  Si466  1  0.826881  0.574440  0.585115  1
  Si  Si467  1  0.672489  0.575048  0.584896  1
  Si  Si468  1  0.826847  0.928401  0.586551  1
  Si  Si469  1  0.440536  0.935376  0.585457  1
  Si  Si470  1  0.440369  0.918444  0.636269  1
  Si  Si471  1  0.626209  0.703239  0.678356  1
  Si  Si472  1  0.626913  0.723747  0.598659  1
  Si  Si473  1  0.438647  0.585413  0.653852  1
  Si  Si474  1  0.441992  0.557538  0.538891  1
  Si  Si475  1  0.470978  0.724813  0.598087  1
  Si  Si476  1  0.470579  0.702888  0.678523  1
  Si  Si477  1  0.440137  0.566493  0.586168  1
  Si  Si478  1  0.059758  0.918742  0.636210  1
  Si  Si479  1  0.061736  0.585817  0.653843  1
  Si  Si480  1  0.058630  0.557799  0.538819  1
  Si  Si481  1  0.029081  0.724854  0.598085  1
  Si  Si482  1  0.029623  0.703262  0.678501  1
  Si  Si483  1  0.059601  0.566647  0.586098  1
  Si  Si484  1  0.059513  0.935492  0.585422  1
  Si  Si485  1  0.940356  0.081275  0.568036  1
  Si  Si486  1  0.938648  0.414347  0.550467  1
  Si  Si487  1  0.941992  0.442222  0.665435  1
  Si  Si488  1  0.970983  0.274916  0.606232  1
  Si  Si489  1  0.970587  0.296851  0.525801  1
  Si  Si490  1  0.940166  0.433192  0.618168  1
  Si  Si491  1  0.940525  0.064378  0.618843  1
  Si  Si492  1  0.559495  0.064280  0.618880  1
  Si  Si493  1  0.559745  0.081047  0.568090  1
  Si  Si494  1  0.373980  0.296812  0.525847  1
  Si  Si495  1  0.373147  0.276259  0.605606  1
  Si  Si496  1  0.561756  0.413988  0.550471  1
  Si  Si497  1  0.558642  0.441987  0.665495  1
  Si  Si498  1  0.529096  0.274914  0.606227  1
  Si  Si499  1  0.529622  0.296551  0.525812  1
  Si  Si500  1  0.559611  0.433097  0.618222  1
  Si  Si501  1  0.173450  0.087205  0.567167  1
  Si  Si502  1  0.172934  0.409278  0.550720  1
  Si  Si503  1  0.326817  0.087474  0.567142  1
  Si  Si504  1  0.173461  0.071251  0.617757  1
  Si  Si505  1  0.327468  0.409453  0.550653  1
  Si  Si506  1  0.326866  0.071323  0.617755  1
  Si  Si507  1  0.126216  0.296571  0.525956  1
  Si  Si508  1  0.126914  0.276014  0.605651  1
  Si  Si509  1  0.327286  0.431410  0.666715  1
  Si  Si510  1  0.172902  0.431395  0.666826  1
  Si  Si511  1  0.326867  0.425207  0.619223  1
  Si  Si512  1  0.172472  0.424692  0.619423  1
  H  H513  1  0.950859  0.349413  0.093018  1
  H  H514  1  0.351063  0.344862  0.093536  1
  H  H515  1  0.549663  0.349228  0.093066  1
  H  H516  1  0.149181  0.344923  0.093651  1
  H  H517  1  0.851089  0.654941  0.106589  1
  H  H518  1  0.649204  0.654906  0.106461  1
  H  H519  1  0.450846  0.650356  0.107110  1
  H  H520  1  0.049652  0.650573  0.107052  1
  H  H521  1  0.950859  0.349413  0.706854  1
  H  H522  1  0.351063  0.344862  0.707372  1
  H  H523  1  0.549663  0.349228  0.706902  1
  H  H524  1  0.149181  0.344923  0.707487  1
  H  H525  1  0.851089  0.654941  0.720426  1
  H  H526  1  0.649204  0.654906  0.720297  1
  H  H527  1  0.450846  0.650356  0.720946  1
  H  H528  1  0.049652  0.650573  0.720888  1
