# generated using pymatgen
data_Si12H2O25
_symmetry_space_group_name_H-M   'P 1'
_cell_length_a   12.26407606
_cell_length_b   30.74240839
_cell_length_c   50.40894803
_cell_angle_alpha   90.00000000
_cell_angle_beta   120.00000000
_cell_angle_gamma   90.00000000
_symmetry_Int_Tables_number   1
_chemical_formula_structural   Si12H2O25
_chemical_formula_sum   'Si144 H24 O300'
_cell_volume   16459.285893
_cell_formula_units_Z   12
loop_
 _symmetry_equiv_pos_site_id
 _symmetry_equiv_pos_as_xyz
  1  'x, y, z'
loop_
 _atom_site_type_symbol
 _atom_site_label
 _atom_site_symmetry_multiplicity
 _atom_site_fract_x
 _atom_site_fract_y
 _atom_site_fract_z
 _atom_site_occupancy
  O  O1  1  0.775596  0.249787  0.155765  1
  O  O2  1  0.918868  0.248608  0.132390  1
  O  O3  1  0.536923  0.248226  0.132834  1
  O  O4  1  0.978757  0.208476  0.182478  1
  O  O5  1  0.684770  0.209311  0.183549  1
  O  O6  1  0.886909  0.166839  0.209628  1
  O  O7  1  0.745039  0.165227  0.233030  1
  O  O8  1  0.124883  0.168498  0.232948  1
  O  O9  1  0.683053  0.125439  0.182409  1
  O  O10  1  0.981638  0.124586  0.183367  1
  O  O11  1  0.776885  0.083996  0.155843  1
  O  O12  1  0.920567  0.084858  0.132798  1
  O  O13  1  0.537793  0.084742  0.132387  1
  O  O14  1  0.978476  0.040962  0.182231  1
  O  O15  1  0.682532  0.041686  0.182245  1
  O  O16  1  0.116149  0.006077  0.235004  1
  O  O17  1  0.760099  0.006513  0.234851  1
  O  O18  1  0.312965  0.375008  0.259248  1
  O  O19  1  0.666539  0.375561  0.187647  1
  O  O20  1  0.665912  0.375440  0.259241  1
  O  O21  1  0.018170  0.374958  0.187484  1
  O  O22  1  0.881128  0.338967  0.206523  1
  O  O23  1  0.682035  0.292824  0.182067  1
  O  O24  1  0.978604  0.292171  0.182143  1
  O  O25  1  0.117822  0.326890  0.234934  1
  O  O26  1  0.761146  0.327249  0.234979  1
  O  O27  1  0.221179  0.416748  0.209886  1
  O  O28  1  0.554212  0.417031  0.209817  1
  O  O29  1  0.074861  0.416450  0.151516  1
  O  O30  1  0.460989  0.416577  0.245522  1
  O  O31  1  0.461131  0.416365  0.151447  1
  O  O32  1  0.313474  0.458485  0.259316  1
  O  O33  1  0.664400  0.458941  0.187273  1
  O  O34  1  0.664683  0.458837  0.259227  1
  O  O35  1  0.018153  0.458443  0.187380  1
  O  O36  1  0.880666  0.494234  0.206338  1
  O  O37  1  0.980504  0.624611  0.183269  1
  O  O38  1  0.685394  0.625065  0.182955  1
  O  O39  1  0.116630  0.661410  0.235389  1
  O  O40  1  0.763506  0.661458  0.235244  1
  O  O41  1  0.019454  0.707299  0.186839  1
  O  O42  1  0.662208  0.707686  0.258973  1
  O  O43  1  0.315687  0.707470  0.258928  1
  O  O44  1  0.662272  0.707764  0.186878  1
  O  O45  1  0.879808  0.673411  0.205914  1
  O  O46  1  0.776970  0.583394  0.155790  1
  O  O47  1  0.923055  0.584597  0.132996  1
  O  O48  1  0.537065  0.584008  0.133032  1
  O  O49  1  0.979499  0.541230  0.182374  1
  O  O50  1  0.684155  0.541673  0.182612  1
  O  O51  1  0.117550  0.506136  0.235084  1
  O  O52  1  0.762378  0.506199  0.235173  1
  O  O53  1  0.220557  0.750732  0.209895  1
  O  O54  1  0.555214  0.750821  0.209907  1
  O  O55  1  0.077383  0.752217  0.151755  1
  O  O56  1  0.459454  0.752340  0.244731  1
  O  O57  1  0.459428  0.752364  0.151780  1
  O  O58  1  0.312015  0.790934  0.259830  1
  O  O59  1  0.668177  0.791275  0.187551  1
  O  O60  1  0.668369  0.791173  0.259790  1
  O  O61  1  0.014939  0.790738  0.187564  1
  O  O62  1  0.109638  0.833328  0.236698  1
  O  O63  1  0.776059  0.833622  0.236792  1
  O  O64  1  0.871682  0.835107  0.202099  1
  O  O65  1  0.018236  0.874472  0.186944  1
  O  O66  1  0.663681  0.874976  0.259106  1
  O  O67  1  0.664054  0.875112  0.187212  1
  O  O68  1  0.313485  0.874699  0.259017  1
  O  O69  1  0.220464  0.916438  0.209672  1
  O  O70  1  0.553539  0.916552  0.209752  1
  O  O71  1  0.075067  0.916983  0.151490  1
  O  O72  1  0.459509  0.916442  0.245021  1
  O  O73  1  0.459007  0.915975  0.151609  1
  O  O74  1  0.311922  0.958339  0.259172  1
  O  O75  1  0.663474  0.958862  0.187158  1
  O  O76  1  0.664618  0.958698  0.259171  1
  O  O77  1  0.016713  0.958126  0.187474  1
  O  O78  1  0.879296  0.994423  0.206315  1
  O  O79  1  0.775596  0.249787  0.399148  1
  O  O80  1  0.777079  0.249624  0.317712  1
  O  O81  1  0.442846  0.249653  0.318118  1
  O  O82  1  0.918868  0.248608  0.375773  1
  O  O83  1  0.538584  0.248468  0.283174  1
  O  O84  1  0.536923  0.248226  0.376217  1
  O  O85  1  0.978757  0.208476  0.425861  1
  O  O86  1  0.684402  0.209143  0.267863  1
  O  O87  1  0.328552  0.209210  0.340180  1
  O  O88  1  0.332240  0.208572  0.268569  1
  O  O89  1  0.981433  0.208926  0.340335  1
  O  O90  1  0.684770  0.209311  0.426932  1
  O  O91  1  0.886909  0.166839  0.453010  1
  O  O92  1  0.886870  0.166875  0.290949  1
  O  O93  1  0.220515  0.166956  0.290879  1
  O  O94  1  0.745039  0.165227  0.476413  1
  O  O95  1  0.124852  0.165372  0.325539  1
  O  O96  1  0.124883  0.168498  0.476331  1
  O  O97  1  0.683053  0.125439  0.425792  1
  O  O98  1  0.978843  0.125036  0.340373  1
  O  O99  1  0.328583  0.124713  0.267853  1
  O  O100  1  0.332193  0.125356  0.340406  1
  O  O101  1  0.683364  0.125265  0.268548  1
  O  O102  1  0.981638  0.124586  0.426750  1
  O  O103  1  0.776885  0.083996  0.399226  1
  O  O104  1  0.775336  0.083814  0.317983  1
  O  O105  1  0.441533  0.083972  0.317606  1
  O  O106  1  0.920567  0.084858  0.376181  1
  O  O107  1  0.536107  0.084873  0.282614  1
  O  O108  1  0.537793  0.084742  0.375770  1
  O  O109  1  0.978476  0.040962  0.425614  1
  O  O110  1  0.682321  0.041557  0.268591  1
  O  O111  1  0.332904  0.041608  0.340510  1
  O  O112  1  0.332734  0.041108  0.268507  1
  O  O113  1  0.978002  0.041322  0.340621  1
  O  O114  1  0.682532  0.041686  0.425628  1
  O  O115  1  0.116657  0.006440  0.321604  1
  O  O116  1  0.116149  0.006077  0.478387  1
  O  O117  1  0.760099  0.006513  0.478234  1
  O  O118  1  0.018066  0.375273  0.345010  1
  O  O119  1  0.312965  0.375008  0.502631  1
  O  O120  1  0.666539  0.375561  0.431030  1
  O  O121  1  0.665912  0.375440  0.502624  1
  O  O122  1  0.018170  0.374958  0.430867  1
  O  O123  1  0.312504  0.375467  0.344827  1
  O  O124  1  0.880889  0.339201  0.292605  1
  O  O125  1  0.234489  0.339026  0.292534  1
  O  O126  1  0.881128  0.338967  0.449906  1
  O  O127  1  0.978999  0.292530  0.340776  1
  O  O128  1  0.334708  0.292234  0.268814  1
  O  O129  1  0.682035  0.292824  0.425450  1
  O  O130  1  0.682467  0.292714  0.268678  1
  O  O131  1  0.978604  0.292171  0.425525  1
  O  O132  1  0.334769  0.292721  0.340882  1
  O  O133  1  0.117642  0.327262  0.321739  1
  O  O134  1  0.117822  0.326890  0.478317  1
  O  O135  1  0.761146  0.327249  0.478362  1
  O  O136  1  0.221299  0.416877  0.372145  1
  O  O137  1  0.221179  0.416748  0.453269  1
  O  O138  1  0.554212  0.417031  0.453200  1
  O  O139  1  0.074861  0.416450  0.394899  1
  O  O140  1  0.460989  0.416577  0.488905  1
  O  O141  1  0.461131  0.416365  0.394830  1
  O  O142  1  0.018334  0.458681  0.345326  1
  O  O143  1  0.313474  0.458485  0.502699  1
  O  O144  1  0.664400  0.458941  0.430656  1
  O  O145  1  0.664683  0.458837  0.502610  1
  O  O146  1  0.018153  0.458443  0.430763  1
  O  O147  1  0.313948  0.458860  0.345345  1
  O  O148  1  0.880713  0.494273  0.292818  1
  O  O149  1  0.235331  0.494281  0.292749  1
  O  O150  1  0.880666  0.494234  0.449721  1
  O  O151  1  0.980504  0.624611  0.426652  1
  O  O152  1  0.685490  0.625002  0.268528  1
  O  O153  1  0.331816  0.625018  0.340274  1
  O  O154  1  0.331198  0.624743  0.268519  1
  O  O155  1  0.980334  0.624805  0.340088  1
  O  O156  1  0.685394  0.625065  0.426338  1
  O  O157  1  0.116630  0.661410  0.478772  1
  O  O158  1  0.763506  0.661458  0.478627  1
  O  O159  1  0.116824  0.661462  0.321129  1
  O  O160  1  0.019454  0.707299  0.430222  1
  O  O161  1  0.662208  0.707686  0.502356  1
  O  O162  1  0.315535  0.707745  0.345875  1
  O  O163  1  0.315687  0.707470  0.502311  1
  O  O164  1  0.019294  0.707484  0.345881  1
  O  O165  1  0.662272  0.707764  0.430261  1
  O  O166  1  0.879808  0.673411  0.449297  1
  O  O167  1  0.879889  0.673419  0.292872  1
  O  O168  1  0.237916  0.673436  0.292987  1
  O  O169  1  0.776970  0.583394  0.399173  1
  O  O170  1  0.776743  0.583525  0.318022  1
  O  O171  1  0.443666  0.583411  0.318039  1
  O  O172  1  0.923055  0.584597  0.376379  1
  O  O173  1  0.536886  0.584088  0.282362  1
  O  O174  1  0.537065  0.584008  0.376415  1
  O  O175  1  0.979499  0.541230  0.425757  1
  O  O176  1  0.684040  0.541599  0.268686  1
  O  O177  1  0.333554  0.541606  0.340624  1
  O  O178  1  0.333919  0.541309  0.268743  1
  O  O179  1  0.979299  0.541419  0.340781  1
  O  O180  1  0.684155  0.541673  0.425995  1
  O  O181  1  0.117550  0.506136  0.478467  1
  O  O182  1  0.762378  0.506199  0.478555  1
  O  O183  1  0.117502  0.506281  0.321722  1
  O  O184  1  0.220509  0.750857  0.371830  1
  O  O185  1  0.220557  0.750732  0.453278  1
  O  O186  1  0.555214  0.750821  0.453290  1
  O  O187  1  0.077383  0.752217  0.395138  1
  O  O188  1  0.459454  0.752340  0.488114  1
  O  O189  1  0.459428  0.752364  0.395163  1
  O  O190  1  0.014997  0.790940  0.344206  1
  O  O191  1  0.312015  0.790934  0.503213  1
  O  O192  1  0.668177  0.791275  0.430934  1
  O  O193  1  0.668369  0.791173  0.503173  1
  O  O194  1  0.014939  0.790738  0.430947  1
  O  O195  1  0.312300  0.791253  0.344295  1
  O  O196  1  0.109604  0.833439  0.318057  1
  O  O197  1  0.109638  0.833328  0.480080  1
  O  O198  1  0.776059  0.833622  0.480175  1
  O  O199  1  0.251523  0.835008  0.294639  1
  O  O200  1  0.871682  0.835107  0.445482  1
  O  O201  1  0.871641  0.835130  0.294740  1
  O  O202  1  0.312963  0.875094  0.345138  1
  O  O203  1  0.018236  0.874472  0.430327  1
  O  O204  1  0.663681  0.874976  0.502489  1
  O  O205  1  0.664054  0.875112  0.430595  1
  O  O206  1  0.313485  0.874699  0.502400  1
  O  O207  1  0.017850  0.874721  0.345451  1
  O  O208  1  0.220102  0.916591  0.371979  1
  O  O209  1  0.220464  0.916438  0.453055  1
  O  O210  1  0.553539  0.916552  0.453135  1
  O  O211  1  0.075067  0.916983  0.394873  1
  O  O212  1  0.459509  0.916442  0.488403  1
  O  O213  1  0.459007  0.915975  0.394992  1
  O  O214  1  0.016560  0.958449  0.344705  1
  O  O215  1  0.311922  0.958339  0.502555  1
  O  O216  1  0.663474  0.958862  0.430541  1
  O  O217  1  0.664618  0.958698  0.502554  1
  O  O218  1  0.016713  0.958126  0.430857  1
  O  O219  1  0.312833  0.958827  0.345174  1
  O  O220  1  0.879296  0.994423  0.449698  1
  O  O221  1  0.879864  0.994708  0.292445  1
  O  O222  1  0.234149  0.994330  0.292635  1
  O  O223  1  0.777079  0.249624  0.561095  1
  O  O224  1  0.442846  0.249653  0.561501  1
  O  O225  1  0.918868  0.248608  0.619156  1
  O  O226  1  0.538584  0.248468  0.526557  1
  O  O227  1  0.536923  0.248226  0.619600  1
  O  O228  1  0.684402  0.209143  0.511246  1
  O  O229  1  0.328552  0.209210  0.583563  1
  O  O230  1  0.332240  0.208572  0.511952  1
  O  O231  1  0.981433  0.208926  0.583718  1
  O  O232  1  0.886870  0.166875  0.534332  1
  O  O233  1  0.220515  0.166956  0.534262  1
  O  O234  1  0.124852  0.165372  0.568922  1
  O  O235  1  0.978843  0.125036  0.583756  1
  O  O236  1  0.328583  0.124713  0.511236  1
  O  O237  1  0.332193  0.125356  0.583789  1
  O  O238  1  0.683364  0.125265  0.511931  1
  O  O239  1  0.775336  0.083814  0.561366  1
  O  O240  1  0.441533  0.083972  0.560989  1
  O  O241  1  0.920567  0.084858  0.619564  1
  O  O242  1  0.536107  0.084873  0.525997  1
  O  O243  1  0.537793  0.084742  0.619153  1
  O  O244  1  0.682321  0.041557  0.511974  1
  O  O245  1  0.332904  0.041608  0.583893  1
  O  O246  1  0.332734  0.041108  0.511890  1
  O  O247  1  0.978002  0.041322  0.584004  1
  O  O248  1  0.116657  0.006440  0.564987  1
  O  O249  1  0.018066  0.375273  0.588393  1
  O  O250  1  0.312504  0.375467  0.588210  1
  O  O251  1  0.880889  0.339201  0.535988  1
  O  O252  1  0.234489  0.339026  0.535917  1
  O  O253  1  0.978999  0.292530  0.584159  1
  O  O254  1  0.334708  0.292234  0.512197  1
  O  O255  1  0.682467  0.292714  0.512061  1
  O  O256  1  0.334769  0.292721  0.584265  1
  O  O257  1  0.117642  0.327262  0.565122  1
  O  O258  1  0.221299  0.416877  0.615527  1
  O  O259  1  0.074861  0.416450  0.638282  1
  O  O260  1  0.461131  0.416365  0.638213  1
  O  O261  1  0.018334  0.458681  0.588709  1
  O  O262  1  0.313948  0.458860  0.588728  1
  O  O263  1  0.880713  0.494273  0.536201  1
  O  O264  1  0.235331  0.494281  0.536132  1
  O  O265  1  0.685490  0.625002  0.511911  1
  O  O266  1  0.331816  0.625018  0.583657  1
  O  O267  1  0.331198  0.624743  0.511902  1
  O  O268  1  0.980334  0.624805  0.583471  1
  O  O269  1  0.116824  0.661462  0.564511  1
  O  O270  1  0.315535  0.707745  0.589258  1
  O  O271  1  0.019294  0.707484  0.589264  1
  O  O272  1  0.879889  0.673419  0.536255  1
  O  O273  1  0.237916  0.673436  0.536370  1
  O  O274  1  0.776743  0.583525  0.561405  1
  O  O275  1  0.443666  0.583411  0.561422  1
  O  O276  1  0.923055  0.584597  0.619762  1
  O  O277  1  0.536886  0.584088  0.525745  1
  O  O278  1  0.537065  0.584008  0.619798  1
  O  O279  1  0.684040  0.541599  0.512069  1
  O  O280  1  0.333554  0.541606  0.584007  1
  O  O281  1  0.333919  0.541309  0.512126  1
  O  O282  1  0.979299  0.541419  0.584164  1
  O  O283  1  0.117502  0.506281  0.565105  1
  O  O284  1  0.220509  0.750857  0.615213  1
  O  O285  1  0.077383  0.752217  0.638521  1
  O  O286  1  0.459428  0.752364  0.638546  1
  O  O287  1  0.014997  0.790940  0.587589  1
  O  O288  1  0.312300  0.791253  0.587678  1
  O  O289  1  0.109604  0.833439  0.561440  1
  O  O290  1  0.251523  0.835008  0.538022  1
  O  O291  1  0.871641  0.835130  0.538123  1
  O  O292  1  0.312963  0.875094  0.588521  1
  O  O293  1  0.017850  0.874721  0.588834  1
  O  O294  1  0.220102  0.916591  0.615362  1
  O  O295  1  0.075067  0.916983  0.638256  1
  O  O296  1  0.459007  0.915975  0.638375  1
  O  O297  1  0.016560  0.958449  0.588088  1
  O  O298  1  0.312833  0.958827  0.588557  1
  O  O299  1  0.879864  0.994708  0.535828  1
  O  O300  1  0.234149  0.994330  0.536018  1
  Si  Si301  1  0.745209  -0.000000  0.202373  1
  Si  Si302  1  0.666076  0.083632  0.162938  1
  Si  Si303  1  0.746554  0.166860  0.202324  1
  Si  Si304  1  0.997077  0.166929  0.202265  1
  Si  Si305  1  0.917318  0.083324  0.163277  1
  Si  Si306  1  0.745629  0.000000  0.263767  1
  Si  Si307  1  0.251011  0.333317  0.263874  1
  Si  Si308  1  0.746776  0.333690  0.202558  1
  Si  Si309  1  0.746640  0.333693  0.263883  1
  Si  Si310  1  0.998945  0.333257  0.202512  1
  Si  Si311  1  0.915650  0.250171  0.162879  1
  Si  Si312  1  0.331109  0.416729  0.244050  1
  Si  Si313  1  0.584780  0.417014  0.183077  1
  Si  Si314  1  0.584648  0.417007  0.243983  1
  Si  Si315  1  0.080826  0.416658  0.183104  1
  Si  Si316  1  0.665753  0.250361  0.163231  1
  Si  Si317  1  -0.000000  0.666641  0.202612  1
  Si  Si318  1  0.746805  0.666857  0.263901  1
  Si  Si319  1  0.746735  0.666902  0.202518  1
  Si  Si320  1  0.917357  0.583343  0.163175  1
  Si  Si321  1  0.666918  0.583519  0.163166  1
  Si  Si322  1  0.746915  0.500265  0.202609  1
  Si  Si323  1  0.080396  0.749900  0.183002  1
  Si  Si324  1  0.000000  0.500018  0.202557  1
  Si  Si325  1  0.584180  0.916931  0.243936  1
  Si  Si326  1  0.583882  0.916916  0.182971  1
  Si  Si327  1  0.079933  0.916715  0.182943  1
  Si  Si328  1  0.330271  0.916750  0.243875  1
  Si  Si329  1  0.000000  0.833272  0.202521  1
  Si  Si330  1  0.745713  0.833602  0.263590  1
  Si  Si331  1  0.745744  0.833650  0.202615  1
  Si  Si332  1  0.249981  0.833346  0.263556  1
  Si  Si333  1  0.584880  0.750199  0.183022  1
  Si  Si334  1  0.331047  0.750037  0.244003  1
  Si  Si335  1  0.584915  0.750143  0.244013  1
  Si  Si336  1  0.997639  0.000000  0.202499  1
  Si  Si337  1  0.249758  0.000000  0.263841  1
  Si  Si338  1  0.745209  0.000000  0.445756  1
  Si  Si339  1  0.666076  0.083632  0.406321  1
  Si  Si340  1  0.915873  0.083405  0.344742  1
  Si  Si341  1  0.410912  0.083394  0.283435  1
  Si  Si342  1  0.746554  0.166860  0.445707  1
  Si  Si343  1  0.997011  0.166687  0.325117  1
  Si  Si344  1  0.250839  0.167032  0.264080  1
  Si  Si345  1  0.250803  0.166893  0.325052  1
  Si  Si346  1  0.746523  0.166772  0.264101  1
  Si  Si347  1  0.997077  0.166929  0.445648  1
  Si  Si348  1  0.917318  0.083324  0.406660  1
  Si  Si349  1  0.665395  0.083546  0.283787  1
  Si  Si350  1  0.412284  0.083566  0.344552  1
  Si  Si351  1  0.997784  0.000000  0.325113  1
  Si  Si352  1  0.250194  0.000000  0.325245  1
  Si  Si353  1  0.745629  0.000000  0.507150  1
  Si  Si354  1  0.998842  0.333611  0.325275  1
  Si  Si355  1  0.251011  0.333317  0.507257  1
  Si  Si356  1  0.746776  0.333690  0.445941  1
  Si  Si357  1  0.746640  0.333693  0.507266  1
  Si  Si358  1  0.998945  0.333257  0.445895  1
  Si  Si359  1  0.250877  0.333675  0.325226  1
  Si  Si360  1  0.915650  0.250171  0.406262  1
  Si  Si361  1  0.412120  0.250254  0.344839  1
  Si  Si362  1  0.080931  0.416838  0.364779  1
  Si  Si363  1  0.331109  0.416729  0.487433  1
  Si  Si364  1  0.584780  0.417014  0.426460  1
  Si  Si365  1  0.584648  0.417007  0.487366  1
  Si  Si366  1  0.080826  0.416658  0.426487  1
  Si  Si367  1  0.331212  0.416927  0.364714  1
  Si  Si368  1  0.666479  0.250314  0.283649  1
  Si  Si369  1  0.413410  0.250119  0.284025  1
  Si  Si370  1  0.917001  0.250247  0.344663  1
  Si  Si371  1  0.665753  0.250361  0.406614  1
  Si  Si372  1  0.000000  0.666641  0.445995  1
  Si  Si373  1  0.746805  0.666857  0.507284  1
  Si  Si374  1  0.251528  0.666872  0.325320  1
  Si  Si375  1  0.251398  0.666719  0.263959  1
  Si  Si376  1  0.000000  0.666759  0.325219  1
  Si  Si377  1  0.746735  0.666902  0.445901  1
  Si  Si378  1  0.251083  0.500257  0.325342  1
  Si  Si379  1  0.917357  0.583343  0.406558  1
  Si  Si380  1  0.666794  0.583536  0.283855  1
  Si  Si381  1  0.413289  0.583495  0.344807  1
  Si  Si382  1  0.413141  0.583335  0.283869  1
  Si  Si383  1  0.917120  0.583537  0.344802  1
  Si  Si384  1  0.666918  0.583519  0.406549  1
  Si  Si385  1  0.251086  0.500052  0.263974  1
  Si  Si386  1  0.746981  0.500224  0.263980  1
  Si  Si387  1  0.746915  0.500265  0.445992  1
  Si  Si388  1  0.080396  0.749900  0.426385  1
  Si  Si389  1  0.998982  0.500167  0.325407  1
  Si  Si390  1  -0.000000  0.500018  0.445940  1
  Si  Si391  1  0.330170  0.916931  0.364593  1
  Si  Si392  1  0.584180  0.916931  0.487319  1
  Si  Si393  1  0.583882  0.916916  0.426353  1
  Si  Si394  1  0.079933  0.916715  0.426326  1
  Si  Si395  1  0.330271  0.916750  0.487258  1
  Si  Si396  1  0.249945  0.833547  0.325348  1
  Si  Si397  1  0.000000  0.833272  0.445904  1
  Si  Si398  1  0.745713  0.833602  0.506973  1
  Si  Si399  1  0.745744  0.833650  0.445998  1
  Si  Si400  1  0.249981  0.833346  0.506939  1
  Si  Si401  1  0.000000  0.833418  0.325428  1
  Si  Si402  1  0.079613  0.916920  0.364541  1
  Si  Si403  1  0.331066  0.750229  0.364629  1
  Si  Si404  1  0.584880  0.750199  0.426405  1
  Si  Si405  1  0.331047  0.750037  0.487386  1
  Si  Si406  1  0.584915  0.750143  0.487396  1
  Si  Si407  1  0.997639  0.000000  0.445882  1
  Si  Si408  1  0.080338  0.750026  0.364612  1
  Si  Si409  1  0.249758  0.000000  0.507224  1
  Si  Si410  1  0.915873  0.083405  0.588125  1
  Si  Si411  1  0.410912  0.083394  0.526818  1
  Si  Si412  1  0.997011  0.166687  0.568500  1
  Si  Si413  1  0.250839  0.167032  0.507463  1
  Si  Si414  1  0.250803  0.166893  0.568435  1
  Si  Si415  1  0.746523  0.166772  0.507484  1
  Si  Si416  1  0.665395  0.083546  0.527170  1
  Si  Si417  1  0.412284  0.083566  0.587935  1
  Si  Si418  1  0.997784  0.000000  0.568496  1
  Si  Si419  1  0.250194  0.000000  0.568628  1
  Si  Si420  1  0.998842  0.333611  0.568658  1
  Si  Si421  1  0.250877  0.333675  0.568609  1
  Si  Si422  1  0.412120  0.250254  0.588222  1
  Si  Si423  1  0.080931  0.416838  0.608162  1
  Si  Si424  1  0.331212  0.416927  0.608097  1
  Si  Si425  1  0.666479  0.250314  0.527032  1
  Si  Si426  1  0.413410  0.250119  0.527408  1
  Si  Si427  1  0.917001  0.250247  0.588046  1
  Si  Si428  1  0.251528  0.666872  0.568703  1
  Si  Si429  1  0.251398  0.666719  0.507342  1
  Si  Si430  1  0.000000  0.666759  0.568602  1
  Si  Si431  1  0.251083  0.500257  0.568725  1
  Si  Si432  1  0.666794  0.583536  0.527238  1
  Si  Si433  1  0.413289  0.583495  0.588189  1
  Si  Si434  1  0.413141  0.583335  0.527252  1
  Si  Si435  1  0.917120  0.583537  0.588185  1
  Si  Si436  1  0.251086  0.500052  0.507357  1
  Si  Si437  1  0.746981  0.500224  0.507363  1
  Si  Si438  1  0.998982  0.500167  0.568790  1
  Si  Si439  1  0.330170  0.916931  0.607976  1
  Si  Si440  1  0.249945  0.833547  0.568731  1
  Si  Si441  1  0.000000  0.833418  0.568811  1
  Si  Si442  1  0.079613  0.916920  0.607924  1
  Si  Si443  1  0.331066  0.750229  0.608012  1
  Si  Si444  1  0.080338  0.750026  0.607995  1
  H  H445  1  0.918868  0.248608  0.114536  1
  H  H446  1  0.536923  0.248226  0.114980  1
  H  H447  1  0.920567  0.084858  0.114944  1
  H  H448  1  0.537793  0.084742  0.114533  1
  H  H449  1  0.074861  0.416450  0.133662  1
  H  H450  1  0.461131  0.416365  0.133593  1
  H  H451  1  0.923055  0.584597  0.115142  1
  H  H452  1  0.537065  0.584008  0.115178  1
  H  H453  1  0.077383  0.752217  0.133901  1
  H  H454  1  0.459428  0.752364  0.133926  1
  H  H455  1  0.075067  0.916983  0.133636  1
  H  H456  1  0.459007  0.915975  0.133755  1
  H  H457  1  0.918868  0.248608  0.637010  1
  H  H458  1  0.536923  0.248226  0.637454  1
  H  H459  1  0.920567  0.084858  0.637418  1
  H  H460  1  0.537793  0.084742  0.637007  1
  H  H461  1  0.074861  0.416450  0.656136  1
  H  H462  1  0.461131  0.416365  0.656067  1
  H  H463  1  0.923055  0.584597  0.637616  1
  H  H464  1  0.537065  0.584008  0.637652  1
  H  H465  1  0.077383  0.752217  0.656375  1
  H  H466  1  0.459428  0.752364  0.656400  1
  H  H467  1  0.075067  0.916983  0.656110  1
  H  H468  1  0.459007  0.915975  0.656229  1
