# generated using pymatgen
data_Si20H2O41
_symmetry_space_group_name_H-M   'P 1'
_cell_length_a   9.74974582
_cell_length_b   23.37288685
_cell_length_c   51.52758315
_cell_angle_alpha   90.00000000
_cell_angle_beta   90.00000000
_cell_angle_gamma   90.00000000
_symmetry_Int_Tables_number   1
_chemical_formula_structural   Si20H2O41
_chemical_formula_sum   'Si120 H12 O246'
_cell_volume   11742.0904927
_cell_formula_units_Z   6
loop_
 _symmetry_equiv_pos_site_id
 _symmetry_equiv_pos_as_xyz
  1  'x, y, z'
loop_
 _atom_site_type_symbol
 _atom_site_label
 _atom_site_symmetry_multiplicity
 _atom_site_fract_x
 _atom_site_fract_y
 _atom_site_fract_z
 _atom_site_occupancy
  O  O1  1  0.634509  0.355481  0.151514  1
  O  O2  1  0.135135  0.855459  0.151496  1
  O  O3  1  0.365049  0.355579  0.151566  1
  O  O4  1  0.865687  0.855596  0.151594  1
  O  O5  1  0.634662  0.644502  0.343792  1
  O  O6  1  0.134581  0.144405  0.343810  1
  O  O7  1  0.365196  0.644194  0.343914  1
  O  O8  1  0.865127  0.144314  0.343894  1
  O  O9  1  0.365119  0.644318  0.269747  1
  O  O10  1  0.865601  0.144315  0.269724  1
  O  O11  1  0.634578  0.644426  0.269800  1
  O  O12  1  0.135054  0.144446  0.269813  1
  O  O13  1  0.871453  0.308600  0.151310  1
  O  O14  1  0.371914  0.808474  0.151655  1
  O  O15  1  0.128469  0.308547  0.151798  1
  O  O16  1  0.628945  0.808677  0.151456  1
  O  O17  1  0.871742  0.691459  0.343666  1
  O  O18  1  0.371484  0.191418  0.343778  1
  O  O19  1  0.128766  0.691172  0.344050  1
  O  O20  1  0.628514  0.191246  0.343929  1
  O  O21  1  0.128545  0.691354  0.269495  1
  O  O22  1  0.628849  0.191238  0.269860  1
  O  O23  1  0.871530  0.691308  0.269998  1
  O  O24  1  0.371823  0.191440  0.269638  1
  O  O25  1  0.869455  0.415262  0.150826  1
  O  O26  1  0.370060  0.915128  0.150696  1
  O  O27  1  0.129953  0.415204  0.150691  1
  O  O28  1  0.630572  0.915337  0.150820  1
  O  O29  1  0.869532  0.584774  0.343062  1
  O  O30  1  0.369663  0.084729  0.343031  1
  O  O31  1  0.130033  0.584536  0.343059  1
  O  O32  1  0.630157  0.084607  0.343095  1
  O  O33  1  0.130013  0.584698  0.270627  1
  O  O34  1  0.630486  0.084575  0.270501  1
  O  O35  1  0.869516  0.584648  0.270490  1
  O  O36  1  0.369982  0.084783  0.270626  1
  O  O37  1  0.795625  0.362162  0.191099  1
  O  O38  1  0.295162  0.863118  0.191174  1
  O  O39  1  0.205087  0.363440  0.191235  1
  O  O40  1  0.704537  0.862502  0.191166  1
  O  O41  1  0.795497  0.637711  0.383372  1
  O  O42  1  0.295316  0.137393  0.383391  1
  O  O43  1  0.204876  0.636479  0.383582  1
  O  O44  1  0.704638  0.136832  0.383552  1
  O  O45  1  0.205187  0.636405  0.230075  1
  O  O46  1  0.704469  0.137408  0.230154  1
  O  O47  1  0.795675  0.637741  0.230214  1
  O  O48  1  0.295075  0.136736  0.230136  1
  O  O49  1  0.636010  0.644582  0.191246  1
  O  O50  1  0.134539  0.145204  0.191347  1
  O  O51  1  0.365487  0.645203  0.191273  1
  O  O52  1  0.864024  0.144576  0.191182  1
  O  O53  1  0.635403  0.354999  0.383682  1
  O  O54  1  0.135397  0.855045  0.383672  1
  O  O55  1  0.364897  0.354993  0.383474  1
  O  O56  1  0.864879  0.854938  0.383475  1
  O  O57  1  0.365469  0.354726  0.230030  1
  O  O58  1  0.864030  0.855351  0.230148  1
  O  O59  1  0.636001  0.355349  0.230072  1
  O  O60  1  0.134557  0.854715  0.229959  1
  O  O61  1  0.870134  0.581963  0.190764  1
  O  O62  1  0.369054  0.083306  0.189949  1
  O  O63  1  0.130834  0.583355  0.189841  1
  O  O64  1  0.629772  0.081997  0.190660  1
  O  O65  1  0.869346  0.417653  0.382997  1
  O  O66  1  0.369466  0.917644  0.382890  1
  O  O67  1  0.130077  0.416821  0.382212  1
  O  O68  1  0.630209  0.916812  0.382278  1
  O  O69  1  0.130833  0.416580  0.231453  1
  O  O70  1  0.629766  0.917926  0.230653  1
  O  O71  1  0.870132  0.417968  0.230537  1
  O  O72  1  0.369050  0.916614  0.231351  1
  O  O73  1  0.872148  0.690593  0.190457  1
  O  O74  1  0.370513  0.191764  0.190904  1
  O  O75  1  0.129565  0.691816  0.190941  1
  O  O76  1  0.627936  0.190642  0.190484  1
  O  O77  1  0.871637  0.308969  0.382912  1
  O  O78  1  0.371526  0.808974  0.382949  1
  O  O79  1  0.129080  0.308409  0.383083  1
  O  O80  1  0.628978  0.808392  0.383048  1
  O  O81  1  0.129533  0.308116  0.230394  1
  O  O82  1  0.627956  0.809277  0.230836  1
  O  O83  1  0.872123  0.309331  0.230857  1
  O  O84  1  0.370540  0.808157  0.230427  1
  O  O85  1  0.000000  0.466006  0.114505  1
  O  O86  1  0.500311  0.966007  0.114507  1
  O  O87  1  0.000000  0.533882  0.306807  1
  O  O88  1  0.500230  0.033887  0.306810  1
  O  O89  1  0.000000  0.507354  0.161945  1
  O  O90  1  0.499827  0.007353  0.161946  1
  O  O91  1  0.998858  0.492536  0.354248  1
  O  O92  1  0.499295  0.992555  0.354250  1
  O  O93  1  0.000000  0.492555  0.259364  1
  O  O94  1  0.499762  0.992557  0.259368  1
  O  O95  1  0.006445  0.499978  0.210656  1
  O  O96  1  0.493972  0.000000  0.210658  1
  O  O97  1  -0.000000  0.766288  0.161878  1
  O  O98  1  0.499647  0.266293  0.161881  1
  O  O99  1  0.000000  0.233583  0.354195  1
  O  O100  1  0.499564  0.733574  0.354197  1
  O  O101  1  0.000000  0.233622  0.259438  1
  O  O102  1  0.499702  0.733611  0.259436  1
  O  O103  1  0.997307  0.773475  0.211185  1
  O  O104  1  0.502356  0.273457  0.211193  1
  O  O105  1  0.997367  0.226461  0.210129  1
  O  O106  1  0.502334  0.726474  0.210121  1
  O  O107  1  -0.000000  0.773376  0.402411  1
  O  O108  1  0.499167  0.273369  0.402413  1
  O  O109  1  0.001864  0.259529  0.114504  1
  O  O110  1  0.500406  0.759542  0.114502  1
  O  O111  1  0.002013  0.740344  0.306804  1
  O  O112  1  0.500222  0.240370  0.306804  1
  O  O113  1  -0.000000  0.216271  0.161985  1
  O  O114  1  0.501148  0.716271  0.161981  1
  O  O115  1  0.000000  0.783631  0.354281  1
  O  O116  1  0.500544  0.283642  0.354284  1
  O  O117  1  0.000000  0.783641  0.259329  1
  O  O118  1  0.501082  0.283653  0.259329  1
  O  O119  1  0.000000  0.807735  0.114502  1
  O  O120  1  0.499303  0.307724  0.114502  1
  O  O121  1  0.000000  0.192165  0.306812  1
  O  O122  1  0.499358  0.692159  0.306815  1
  O  O123  1  0.634509  0.355481  0.536126  1
  O  O124  1  0.135135  0.855459  0.536108  1
  O  O125  1  0.365049  0.355579  0.536178  1
  O  O126  1  0.865687  0.855596  0.536207  1
  O  O127  1  0.365119  0.644318  0.654359  1
  O  O128  1  0.865601  0.144315  0.654337  1
  O  O129  1  0.634578  0.644426  0.654412  1
  O  O130  1  0.135054  0.144446  0.654425  1
  O  O131  1  0.365106  0.355663  0.462015  1
  O  O132  1  0.865222  0.855575  0.462025  1
  O  O133  1  0.634572  0.355368  0.462132  1
  O  O134  1  0.134672  0.855473  0.462118  1
  O  O135  1  0.871453  0.308600  0.535922  1
  O  O136  1  0.371914  0.808474  0.536267  1
  O  O137  1  0.128469  0.308547  0.536411  1
  O  O138  1  0.628945  0.808677  0.536068  1
  O  O139  1  0.128545  0.691354  0.654108  1
  O  O140  1  0.628849  0.191238  0.654473  1
  O  O141  1  0.871530  0.691308  0.654610  1
  O  O142  1  0.371823  0.191440  0.654251  1
  O  O143  1  0.128668  0.308675  0.461871  1
  O  O144  1  0.628620  0.808642  0.461973  1
  O  O145  1  0.871644  0.308402  0.462246  1
  O  O146  1  0.371591  0.808458  0.462140  1
  O  O147  1  0.869455  0.415262  0.535439  1
  O  O148  1  0.370060  0.915128  0.535309  1
  O  O149  1  0.129953  0.415204  0.535304  1
  O  O150  1  0.630572  0.915337  0.535433  1
  O  O151  1  0.130013  0.584698  0.655239  1
  O  O152  1  0.630486  0.084575  0.655113  1
  O  O153  1  0.869516  0.584648  0.655103  1
  O  O154  1  0.369982  0.084783  0.655238  1
  O  O155  1  0.129949  0.415317  0.462875  1
  O  O156  1  0.630249  0.915281  0.462836  1
  O  O157  1  0.869459  0.415093  0.462871  1
  O  O158  1  0.369751  0.915149  0.462905  1
  O  O159  1  0.795625  0.362162  0.575711  1
  O  O160  1  0.295162  0.863118  0.575787  1
  O  O161  1  0.205087  0.363440  0.575848  1
  O  O162  1  0.704537  0.862502  0.575779  1
  O  O163  1  0.205187  0.636405  0.614687  1
  O  O164  1  0.704469  0.137408  0.614767  1
  O  O165  1  0.795675  0.637741  0.614826  1
  O  O166  1  0.295075  0.136736  0.614748  1
  O  O167  1  0.204791  0.363402  0.422349  1
  O  O168  1  0.704754  0.863115  0.422366  1
  O  O169  1  0.795430  0.362213  0.422556  1
  O  O170  1  0.295391  0.862517  0.422538  1
  O  O171  1  0.636010  0.644582  0.575858  1
  O  O172  1  0.134539  0.145204  0.575959  1
  O  O173  1  0.365487  0.645203  0.575886  1
  O  O174  1  0.864024  0.144576  0.575794  1
  O  O175  1  0.365469  0.354726  0.614642  1
  O  O176  1  0.864030  0.855351  0.614760  1
  O  O177  1  0.636001  0.355349  0.614685  1
  O  O178  1  0.134557  0.854715  0.614571  1
  O  O179  1  0.364949  0.644852  0.422465  1
  O  O180  1  0.864816  0.144904  0.422441  1
  O  O181  1  0.635469  0.644852  0.422249  1
  O  O182  1  0.135337  0.144791  0.422261  1
  O  O183  1  0.870134  0.581963  0.575377  1
  O  O184  1  0.369054  0.083306  0.574561  1
  O  O185  1  0.130834  0.583355  0.574454  1
  O  O186  1  0.629772  0.081997  0.575273  1
  O  O187  1  0.130833  0.416580  0.616065  1
  O  O188  1  0.629766  0.917926  0.615266  1
  O  O189  1  0.870132  0.417968  0.615150  1
  O  O190  1  0.369050  0.916614  0.615964  1
  O  O191  1  0.130122  0.583026  0.423707  1
  O  O192  1  0.630170  0.083022  0.423615  1
  O  O193  1  0.869397  0.582202  0.422918  1
  O  O194  1  0.369422  0.082179  0.423007  1
  O  O195  1  0.872148  0.690593  0.575070  1
  O  O196  1  0.370513  0.191764  0.575516  1
  O  O197  1  0.129565  0.691816  0.575553  1
  O  O198  1  0.627936  0.190642  0.575096  1
  O  O199  1  0.129533  0.308116  0.615007  1
  O  O200  1  0.627956  0.809277  0.615448  1
  O  O201  1  0.872123  0.309331  0.615470  1
  O  O202  1  0.370540  0.808157  0.615039  1
  O  O203  1  0.129145  0.691444  0.422854  1
  O  O204  1  0.628907  0.191448  0.422898  1
  O  O205  1  0.871710  0.690886  0.423033  1
  O  O206  1  0.371470  0.190860  0.422996  1
  O  O207  1  -0.000000  0.466006  0.499118  1
  O  O208  1  0.500311  0.966007  0.499119  1
  O  O209  1  -0.000000  0.533882  0.691420  1
  O  O210  1  0.500230  0.033887  0.691422  1
  O  O211  1  0.000000  0.507354  0.546558  1
  O  O212  1  0.499827  0.007353  0.546558  1
  O  O213  1  0.000000  0.492555  0.643977  1
  O  O214  1  0.499762  0.992557  0.643981  1
  O  O215  1  0.998842  0.507321  0.451672  1
  O  O216  1  0.499325  0.007334  0.451678  1
  O  O217  1  0.006445  0.499978  0.595269  1
  O  O218  1  0.493972  0.000000  0.595271  1
  O  O219  1  0.004541  0.499922  0.402960  1
  O  O220  1  0.504338  -0.000000  0.402971  1
  O  O221  1  0.000000  0.766288  0.546491  1
  O  O222  1  0.499647  0.266293  0.546494  1
  O  O223  1  0.000000  0.233622  0.644050  1
  O  O224  1  0.499702  0.733611  0.644049  1
  O  O225  1  0.000000  0.766293  0.451736  1
  O  O226  1  0.499488  0.266287  0.451737  1
  O  O227  1  0.997307  0.773475  0.595798  1
  O  O228  1  0.502356  0.273457  0.595805  1
  O  O229  1  0.000000  0.226468  0.403518  1
  O  O230  1  0.499217  0.726465  0.403519  1
  O  O231  1  0.997367  0.226461  0.594741  1
  O  O232  1  0.502334  0.726474  0.594734  1
  O  O233  1  0.001864  0.259529  0.499117  1
  O  O234  1  0.500406  0.759542  0.499115  1
  O  O235  1  0.002013  0.740344  0.691417  1
  O  O236  1  0.500222  0.240370  0.691416  1
  O  O237  1  -0.000000  0.216271  0.546598  1
  O  O238  1  0.501148  0.716271  0.546594  1
  O  O239  1  0.000000  0.783641  0.643941  1
  O  O240  1  0.501082  0.283653  0.643942  1
  O  O241  1  -0.000000  0.216212  0.451645  1
  O  O242  1  0.500637  0.716225  0.451646  1
  O  O243  1  -0.000000  0.807735  0.499114  1
  O  O244  1  0.499303  0.307724  0.499114  1
  O  O245  1  0.000000  0.192165  0.691424  1
  O  O246  1  0.499358  0.692159  0.691427  1
  Si  Si247  1  0.787460  0.361839  0.160878  1
  Si  Si248  1  0.287888  0.861937  0.160946  1
  Si  Si249  1  0.212297  0.362116  0.161009  1
  Si  Si250  1  0.712730  0.862021  0.160949  1
  Si  Si251  1  0.787607  0.638177  0.353153  1
  Si  Si252  1  0.287509  0.138027  0.353174  1
  Si  Si253  1  0.212414  0.637641  0.353353  1
  Si  Si254  1  0.712322  0.137824  0.353323  1
  Si  Si255  1  0.212375  0.637773  0.260300  1
  Si  Si256  1  0.712642  0.137892  0.260372  1
  Si  Si257  1  0.787526  0.638068  0.260434  1
  Si  Si258  1  0.287806  0.137962  0.260363  1
  Si  Si259  1  0.789562  0.636690  0.199929  1
  Si  Si260  1  0.288224  0.137342  0.199851  1
  Si  Si261  1  0.211827  0.637309  0.199791  1
  Si  Si262  1  0.710483  0.136654  0.199869  1
  Si  Si263  1  0.788994  0.362949  0.392279  1
  Si  Si264  1  0.288995  0.863031  0.392257  1
  Si  Si265  1  0.211250  0.362836  0.392056  1
  Si  Si266  1  0.711247  0.862754  0.392072  1
  Si  Si267  1  0.211795  0.362604  0.221519  1
  Si  Si268  1  0.710496  0.863267  0.221452  1
  Si  Si269  1  0.789548  0.363235  0.221383  1
  Si  Si270  1  0.288252  0.862563  0.221459  1
  Si  Si271  1  0.000000  0.452658  0.144315  1
  Si  Si272  1  0.500216  0.952656  0.144317  1
  Si  Si273  1  -0.000000  0.547230  0.336617  1
  Si  Si274  1  0.499852  0.047244  0.336619  1
  Si  Si275  1  0.000000  0.547245  0.276999  1
  Si  Si276  1  0.500135  0.047250  0.277001  1
  Si  Si277  1  0.001402  0.543197  0.187629  1
  Si  Si278  1  0.498501  0.043193  0.187631  1
  Si  Si279  1  -0.000000  0.456695  0.379933  1
  Si  Si280  1  0.500386  0.956692  0.379926  1
  Si  Si281  1  0.001401  0.456732  0.233674  1
  Si  Si282  1  0.498488  0.956727  0.233679  1
  Si  Si283  1  0.000000  0.730971  0.187832  1
  Si  Si284  1  0.500105  0.230971  0.187831  1
  Si  Si285  1  -0.000000  0.268918  0.380141  1
  Si  Si286  1  0.499771  0.768914  0.380142  1
  Si  Si287  1  0.000000  0.268952  0.233488  1
  Si  Si288  1  0.500132  0.768944  0.233489  1
  Si  Si289  1  0.000000  0.271214  0.144495  1
  Si  Si290  1  0.500478  0.771220  0.144494  1
  Si  Si291  1  0.000000  0.728672  0.336797  1
  Si  Si292  1  0.500268  0.228692  0.336796  1
  Si  Si293  1  0.000000  0.728686  0.276812  1
  Si  Si294  1  0.500366  0.228696  0.276811  1
  Si  Si295  1  0.998969  0.180890  0.187885  1
  Si  Si296  1  0.501112  0.680891  0.187882  1
  Si  Si297  1  0.000000  0.818995  0.380187  1
  Si  Si298  1  0.500232  0.318998  0.380193  1
  Si  Si299  1  0.998987  0.819036  0.233433  1
  Si  Si300  1  0.501092  0.319042  0.233431  1
  Si  Si301  1  0.000000  0.821546  0.144385  1
  Si  Si302  1  0.499658  0.321545  0.144384  1
  Si  Si303  1  0.000000  0.178341  0.336694  1
  Si  Si304  1  0.499631  0.678330  0.336697  1
  Si  Si305  1  0.000000  0.178361  0.276928  1
  Si  Si306  1  0.499721  0.678355  0.276931  1
  Si  Si307  1  0.787460  0.361839  0.545491  1
  Si  Si308  1  0.287888  0.861937  0.545559  1
  Si  Si309  1  0.212297  0.362116  0.545622  1
  Si  Si310  1  0.712730  0.862021  0.545561  1
  Si  Si311  1  0.212375  0.637773  0.644913  1
  Si  Si312  1  0.712642  0.137892  0.644984  1
  Si  Si313  1  0.787526  0.638068  0.645047  1
  Si  Si314  1  0.287806  0.137962  0.644975  1
  Si  Si315  1  0.212322  0.362213  0.452577  1
  Si  Si316  1  0.712422  0.862078  0.452594  1
  Si  Si317  1  0.787520  0.361698  0.452775  1
  Si  Si318  1  0.287602  0.861855  0.452755  1
  Si  Si319  1  0.789562  0.636690  0.584542  1
  Si  Si320  1  0.288224  0.137342  0.584464  1
  Si  Si321  1  0.211827  0.637309  0.584404  1
  Si  Si322  1  0.710483  0.136654  0.584481  1
  Si  Si323  1  0.211795  0.362604  0.606132  1
  Si  Si324  1  0.710496  0.863267  0.606065  1
  Si  Si325  1  0.789548  0.363235  0.605995  1
  Si  Si326  1  0.288252  0.862563  0.606071  1
  Si  Si327  1  0.211308  0.637018  0.413875  1
  Si  Si328  1  0.711175  0.137107  0.413846  1
  Si  Si329  1  0.789061  0.636920  0.413650  1
  Si  Si330  1  0.288938  0.136815  0.413671  1
  Si  Si331  1  0.000000  0.452658  0.528928  1
  Si  Si332  1  0.500216  0.952656  0.528929  1
  Si  Si333  1  0.000000  0.547245  0.661611  1
  Si  Si334  1  0.500135  0.047250  0.661613  1
  Si  Si335  1  -0.000000  0.452638  0.469309  1
  Si  Si336  1  0.499936  0.952643  0.469311  1
  Si  Si337  1  0.001402  0.543197  0.572242  1
  Si  Si338  1  0.498501  0.043193  0.572244  1
  Si  Si339  1  0.001401  0.456732  0.618286  1
  Si  Si340  1  0.498488  0.956727  0.618292  1
  Si  Si341  1  0.000000  0.543156  0.425985  1
  Si  Si342  1  0.500357  0.043147  0.425985  1
  Si  Si343  1  -0.000000  0.730971  0.572444  1
  Si  Si344  1  0.500105  0.230971  0.572444  1
  Si  Si345  1  0.000000  0.268952  0.618100  1
  Si  Si346  1  0.500132  0.768944  0.618101  1
  Si  Si347  1  0.000000  0.730941  0.425794  1
  Si  Si348  1  0.499702  0.230931  0.425796  1
  Si  Si349  1  0.000000  0.271214  0.529107  1
  Si  Si350  1  0.500478  0.771220  0.529107  1
  Si  Si351  1  0.000000  0.728686  0.661424  1
  Si  Si352  1  0.500366  0.228696  0.661424  1
  Si  Si353  1  -0.000000  0.271183  0.469123  1
  Si  Si354  1  0.500397  0.771196  0.469121  1
  Si  Si355  1  0.998969  0.180890  0.572497  1
  Si  Si356  1  0.501112  0.680891  0.572494  1
  Si  Si357  1  0.998987  0.819036  0.618045  1
  Si  Si358  1  0.501092  0.319042  0.618044  1
  Si  Si359  1  -0.000000  0.180843  0.425740  1
  Si  Si360  1  0.500291  0.680847  0.425743  1
  Si  Si361  1  0.000000  0.821546  0.528997  1
  Si  Si362  1  0.499658  0.321545  0.528996  1
  Si  Si363  1  0.000000  0.178361  0.661541  1
  Si  Si364  1  0.499721  0.678355  0.661543  1
  Si  Si365  1  0.000000  0.821544  0.469231  1
  Si  Si366  1  0.499553  0.321538  0.469231  1
  H  H367  1  0.000000  0.466006  0.097039  1
  H  H368  1  0.500311  0.966007  0.097040  1
  H  H369  1  0.001864  0.259529  0.097038  1
  H  H370  1  0.500406  0.759542  0.097036  1
  H  H371  1  0.000000  0.807735  0.097035  1
  H  H372  1  0.499303  0.307724  0.097035  1
  H  H373  1  0.000000  0.533882  0.708886  1
  H  H374  1  0.500230  0.033887  0.708889  1
  H  H375  1  0.002013  0.740344  0.708883  1
  H  H376  1  0.500222  0.240370  0.708883  1
  H  H377  1  0.000000  0.192165  0.708891  1
  H  H378  1  0.499358  0.692159  0.708894  1
