# generated using pymatgen
data_Si30H2O61
_symmetry_space_group_name_H-M   'P 1'
_cell_length_a   6.90782100
_cell_length_b   6.31952572
_cell_length_c   63.19245227
_cell_angle_alpha   90.00000000
_cell_angle_beta   90.00000000
_cell_angle_gamma   90.00000000
_symmetry_Int_Tables_number   1
_chemical_formula_structural   Si30H2O61
_chemical_formula_sum   'Si30 H2 O61'
_cell_volume   2758.61294689
_cell_formula_units_Z   1
loop_
 _symmetry_equiv_pos_site_id
 _symmetry_equiv_pos_as_xyz
  1  'x, y, z'
loop_
 _atom_site_type_symbol
 _atom_site_label
 _atom_site_symmetry_multiplicity
 _atom_site_fract_x
 _atom_site_fract_y
 _atom_site_fract_z
 _atom_site_occupancy
  O  O1  1  0.002979  0.505324  0.093366  1
  O  O2  1  0.002979  0.505324  0.311706  1
  O  O3  1  0.996715  0.494146  0.202536  1
  O  O4  1  0.180631  0.385206  0.128216  1
  O  O5  1  0.180472  0.385369  0.167697  1
  O  O6  1  0.819441  0.384916  0.128046  1
  O  O7  1  0.818781  0.385691  0.167525  1
  O  O8  1  0.819226  0.614098  0.276868  1
  O  O9  1  0.819058  0.614266  0.237387  1
  O  O10  1  0.180909  0.613776  0.276696  1
  O  O11  1  0.180258  0.614557  0.237216  1
  O  O12  1  -0.000000  0.733802  0.128103  1
  O  O13  1  -0.000000  0.733886  0.168143  1
  O  O14  1  -0.000000  0.265589  0.277313  1
  O  O15  1  0.000000  0.265661  0.237274  1
  O  O16  1  0.499827  0.274402  0.147865  1
  O  O17  1  0.499868  0.725068  0.257036  1
  O  O18  1  0.183559  0.036887  0.148046  1
  O  O19  1  0.816098  0.036896  0.147975  1
  O  O20  1  0.816136  0.962582  0.257216  1
  O  O21  1  0.183596  0.962572  0.257145  1
  O  O22  1  0.002979  0.505324  0.530047  1
  O  O23  1  0.996715  0.494146  0.420877  1
  O  O24  1  0.180631  0.385206  0.346557  1
  O  O25  1  0.180472  0.385369  0.386038  1
  O  O26  1  0.819441  0.384916  0.346386  1
  O  O27  1  0.818781  0.385691  0.385866  1
  O  O28  1  0.819226  0.614098  0.495209  1
  O  O29  1  0.819058  0.614266  0.455728  1
  O  O30  1  0.180909  0.613776  0.495037  1
  O  O31  1  0.180258  0.614557  0.455557  1
  O  O32  1  0.000000  0.733802  0.346444  1
  O  O33  1  -0.000000  0.733886  0.386484  1
  O  O34  1  0.000000  0.265589  0.495654  1
  O  O35  1  -0.000000  0.265661  0.455615  1
  O  O36  1  0.499827  0.274402  0.366206  1
  O  O37  1  0.499868  0.725068  0.475376  1
  O  O38  1  0.183559  0.036887  0.366387  1
  O  O39  1  0.816098  0.036896  0.366315  1
  O  O40  1  0.816136  0.962582  0.475557  1
  O  O41  1  0.183596  0.962572  0.475486  1
  O  O42  1  0.002979  0.505324  0.748388  1
  O  O43  1  0.996715  0.494146  0.639217  1
  O  O44  1  0.180631  0.385206  0.564898  1
  O  O45  1  0.180472  0.385369  0.604379  1
  O  O46  1  0.819441  0.384916  0.564727  1
  O  O47  1  0.818781  0.385691  0.604207  1
  O  O48  1  0.819226  0.614098  0.713549  1
  O  O49  1  0.819058  0.614266  0.674068  1
  O  O50  1  0.180909  0.613776  0.713377  1
  O  O51  1  0.180258  0.614557  0.673897  1
  O  O52  1  -0.000000  0.733802  0.564785  1
  O  O53  1  0.000000  0.733886  0.604824  1
  O  O54  1  -0.000000  0.265589  0.713995  1
  O  O55  1  -0.000000  0.265661  0.673955  1
  O  O56  1  0.499827  0.274402  0.584547  1
  O  O57  1  0.499868  0.725068  0.693717  1
  O  O58  1  0.183559  0.036887  0.584728  1
  O  O59  1  0.816098  0.036896  0.584656  1
  O  O60  1  0.816136  0.962582  0.693898  1
  O  O61  1  0.183596  0.962572  0.693826  1
  Si  Si62  1  -0.000000  0.504165  0.118077  1
  Si  Si63  1  0.000000  0.502653  0.177854  1
  Si  Si64  1  -0.000000  0.496816  0.287024  1
  Si  Si65  1  -0.000000  0.495304  0.227248  1
  Si  Si66  1  0.273678  0.267378  0.147966  1
  Si  Si67  1  0.725986  0.267385  0.147816  1
  Si  Si68  1  0.726015  0.732091  0.257137  1
  Si  Si69  1  0.273705  0.732085  0.256987  1
  Si  Si70  1  -0.000000  0.885696  0.148097  1
  Si  Si71  1  0.000000  0.113781  0.257268  1
  Si  Si72  1  -0.000000  0.504165  0.336418  1
  Si  Si73  1  0.000000  0.502653  0.396195  1
  Si  Si74  1  0.000000  0.496816  0.505365  1
  Si  Si75  1  -0.000000  0.495304  0.445589  1
  Si  Si76  1  0.273678  0.267378  0.366307  1
  Si  Si77  1  0.725986  0.267385  0.366157  1
  Si  Si78  1  0.726015  0.732091  0.475478  1
  Si  Si79  1  0.273705  0.732085  0.475328  1
  Si  Si80  1  -0.000000  0.885696  0.366438  1
  Si  Si81  1  -0.000000  0.113781  0.475609  1
  Si  Si82  1  -0.000000  0.504165  0.554759  1
  Si  Si83  1  -0.000000  0.502653  0.614535  1
  Si  Si84  1  0.000000  0.496816  0.723706  1
  Si  Si85  1  -0.000000  0.495304  0.663930  1
  Si  Si86  1  0.273678  0.267378  0.584648  1
  Si  Si87  1  0.725986  0.267385  0.584498  1
  Si  Si88  1  0.726015  0.732091  0.693818  1
  Si  Si89  1  0.273705  0.732085  0.693668  1
  Si  Si90  1  0.000000  0.885696  0.584779  1
  Si  Si91  1  -0.000000  0.113781  0.693949  1
  H  H92  1  0.002979  0.505324  0.079123  1
  H  H93  1  0.002979  0.505324  0.762630  1
