# generated using pymatgen
data_Si6H2O13
_symmetry_space_group_name_H-M   'P 1'
_cell_length_a   12.26407606
_cell_length_b   30.74240839
_cell_length_c   38.14026968
_cell_angle_alpha   90.00000000
_cell_angle_beta   120.00000000
_cell_angle_gamma   90.00000000
_symmetry_Int_Tables_number   1
_chemical_formula_structural   Si6H2O13
_chemical_formula_sum   'Si72 H24 O156'
_cell_volume   12453.376379
_cell_formula_units_Z   12
loop_
 _symmetry_equiv_pos_site_id
 _symmetry_equiv_pos_as_xyz
  1  'x, y, z'
loop_
 _atom_site_type_symbol
 _atom_site_label
 _atom_site_symmetry_multiplicity
 _atom_site_fract_x
 _atom_site_fract_y
 _atom_site_fract_z
 _atom_site_occupancy
  O  O1  1  0.775596  0.249787  0.205870  1
  O  O2  1  0.918868  0.248608  0.174976  1
  O  O3  1  0.536923  0.248226  0.175564  1
  O  O4  1  0.978757  0.208476  0.241176  1
  O  O5  1  0.684770  0.209311  0.242592  1
  O  O6  1  0.886909  0.166839  0.277059  1
  O  O7  1  0.745039  0.165227  0.307989  1
  O  O8  1  0.124883  0.168498  0.307881  1
  O  O9  1  0.683053  0.125439  0.241085  1
  O  O10  1  0.981638  0.124586  0.242351  1
  O  O11  1  0.776885  0.083996  0.205973  1
  O  O12  1  0.920567  0.084858  0.175515  1
  O  O13  1  0.537793  0.084742  0.174973  1
  O  O14  1  0.978476  0.040962  0.240850  1
  O  O15  1  0.682532  0.041686  0.240868  1
  O  O16  1  0.116149  0.006077  0.310598  1
  O  O17  1  0.760099  0.006513  0.310397  1
  O  O18  1  0.312965  0.375008  0.342641  1
  O  O19  1  0.666539  0.375561  0.248008  1
  O  O20  1  0.665912  0.375440  0.342631  1
  O  O21  1  0.018170  0.374958  0.247793  1
  O  O22  1  0.881128  0.338967  0.272956  1
  O  O23  1  0.682035  0.292824  0.240633  1
  O  O24  1  0.978604  0.292171  0.240733  1
  O  O25  1  0.117822  0.326890  0.310506  1
  O  O26  1  0.761146  0.327249  0.310565  1
  O  O27  1  0.221179  0.416748  0.277401  1
  O  O28  1  0.554212  0.417031  0.277309  1
  O  O29  1  0.074861  0.416450  0.200255  1
  O  O30  1  0.460989  0.416577  0.324500  1
  O  O31  1  0.461131  0.416365  0.200163  1
  O  O32  1  0.313474  0.458485  0.342731  1
  O  O33  1  0.664400  0.458941  0.247514  1
  O  O34  1  0.664683  0.458837  0.342613  1
  O  O35  1  0.018153  0.458443  0.247655  1
  O  O36  1  0.880666  0.494234  0.272712  1
  O  O37  1  0.980504  0.624611  0.242221  1
  O  O38  1  0.685394  0.625065  0.241806  1
  O  O39  1  0.116630  0.661410  0.311108  1
  O  O40  1  0.763506  0.661458  0.310915  1
  O  O41  1  0.019454  0.707299  0.246940  1
  O  O42  1  0.662208  0.707686  0.342278  1
  O  O43  1  0.315687  0.707470  0.342219  1
  O  O44  1  0.662272  0.707764  0.246992  1
  O  O45  1  0.879808  0.673411  0.272152  1
  O  O46  1  0.776970  0.583394  0.205903  1
  O  O47  1  0.923055  0.584597  0.175777  1
  O  O48  1  0.537065  0.584008  0.175825  1
  O  O49  1  0.979499  0.541230  0.241038  1
  O  O50  1  0.684155  0.541673  0.241354  1
  O  O51  1  0.117550  0.506136  0.310704  1
  O  O52  1  0.762378  0.506199  0.310821  1
  O  O53  1  0.220557  0.750732  0.277413  1
  O  O54  1  0.555214  0.750821  0.277429  1
  O  O55  1  0.077383  0.752217  0.200570  1
  O  O56  1  0.459454  0.752340  0.323454  1
  O  O57  1  0.459428  0.752364  0.200604  1
  O  O58  1  0.312015  0.790934  0.343411  1
  O  O59  1  0.668177  0.791275  0.247881  1
  O  O60  1  0.668369  0.791173  0.343358  1
  O  O61  1  0.014939  0.790738  0.247898  1
  O  O62  1  0.109638  0.833328  0.312837  1
  O  O63  1  0.776059  0.833622  0.312962  1
  O  O64  1  0.871682  0.835107  0.267109  1
  O  O65  1  0.018236  0.874472  0.247079  1
  O  O66  1  0.663681  0.874976  0.342453  1
  O  O67  1  0.664054  0.875112  0.247433  1
  O  O68  1  0.313485  0.874699  0.342336  1
  O  O69  1  0.220464  0.916438  0.277117  1
  O  O70  1  0.553539  0.916552  0.277223  1
  O  O71  1  0.075067  0.916983  0.200221  1
  O  O72  1  0.459509  0.916442  0.323837  1
  O  O73  1  0.459007  0.915975  0.200377  1
  O  O74  1  0.311922  0.958339  0.342541  1
  O  O75  1  0.663474  0.958862  0.247362  1
  O  O76  1  0.664618  0.958698  0.342539  1
  O  O77  1  0.016713  0.958126  0.247779  1
  O  O78  1  0.879296  0.994423  0.272681  1
  O  O79  1  0.777079  0.249624  0.419911  1
  O  O80  1  0.442846  0.249653  0.420448  1
  O  O81  1  0.918868  0.248608  0.496648  1
  O  O82  1  0.538584  0.248468  0.374263  1
  O  O83  1  0.536923  0.248226  0.497236  1
  O  O84  1  0.684402  0.209143  0.354028  1
  O  O85  1  0.328552  0.209210  0.449607  1
  O  O86  1  0.332240  0.208572  0.354960  1
  O  O87  1  0.981433  0.208926  0.449811  1
  O  O88  1  0.886870  0.166875  0.384539  1
  O  O89  1  0.220515  0.166956  0.384447  1
  O  O90  1  0.124852  0.165372  0.430256  1
  O  O91  1  0.978843  0.125036  0.449862  1
  O  O92  1  0.328583  0.124713  0.354015  1
  O  O93  1  0.332193  0.125356  0.449906  1
  O  O94  1  0.683364  0.125265  0.354932  1
  O  O95  1  0.775336  0.083814  0.420269  1
  O  O96  1  0.441533  0.083972  0.419771  1
  O  O97  1  0.920567  0.084858  0.497188  1
  O  O98  1  0.536107  0.084873  0.373523  1
  O  O99  1  0.537793  0.084742  0.496645  1
  O  O100  1  0.682321  0.041557  0.354990  1
  O  O101  1  0.332904  0.041608  0.450043  1
  O  O102  1  0.332734  0.041108  0.354879  1
  O  O103  1  0.978002  0.041322  0.450189  1
  O  O104  1  0.116657  0.006440  0.425056  1
  O  O105  1  0.018066  0.375273  0.455990  1
  O  O106  1  0.312504  0.375467  0.455749  1
  O  O107  1  0.880889  0.339201  0.386728  1
  O  O108  1  0.234489  0.339026  0.386635  1
  O  O109  1  0.978999  0.292530  0.450395  1
  O  O110  1  0.334708  0.292234  0.355285  1
  O  O111  1  0.682467  0.292714  0.355104  1
  O  O112  1  0.334769  0.292721  0.450535  1
  O  O113  1  0.117642  0.327262  0.425234  1
  O  O114  1  0.221299  0.416877  0.491853  1
  O  O115  1  0.074861  0.416450  0.521928  1
  O  O116  1  0.461131  0.416365  0.521836  1
  O  O117  1  0.018334  0.458681  0.456408  1
  O  O118  1  0.313948  0.458860  0.456433  1
  O  O119  1  0.880713  0.494273  0.387009  1
  O  O120  1  0.235331  0.494281  0.386918  1
  O  O121  1  0.685490  0.625002  0.354906  1
  O  O122  1  0.331816  0.625018  0.449731  1
  O  O123  1  0.331198  0.624743  0.354894  1
  O  O124  1  0.980334  0.624805  0.449485  1
  O  O125  1  0.116824  0.661462  0.424427  1
  O  O126  1  0.315535  0.707745  0.457134  1
  O  O127  1  0.019294  0.707484  0.457142  1
  O  O128  1  0.879889  0.673419  0.387081  1
  O  O129  1  0.237916  0.673436  0.387233  1
  O  O130  1  0.776743  0.583525  0.420321  1
  O  O131  1  0.443666  0.583411  0.420343  1
  O  O132  1  0.923055  0.584597  0.497450  1
  O  O133  1  0.536886  0.584088  0.373190  1
  O  O134  1  0.537065  0.584008  0.497498  1
  O  O135  1  0.684040  0.541599  0.355115  1
  O  O136  1  0.333554  0.541606  0.450193  1
  O  O137  1  0.333919  0.541309  0.355190  1
  O  O138  1  0.979299  0.541419  0.450401  1
  O  O139  1  0.117502  0.506281  0.425211  1
  O  O140  1  0.220509  0.750857  0.491437  1
  O  O141  1  0.077383  0.752217  0.522243  1
  O  O142  1  0.459428  0.752364  0.522276  1
  O  O143  1  0.014997  0.790940  0.454928  1
  O  O144  1  0.312300  0.791253  0.455046  1
  O  O145  1  0.109604  0.833439  0.420367  1
  O  O146  1  0.251523  0.835008  0.389417  1
  O  O147  1  0.871641  0.835130  0.389550  1
  O  O148  1  0.312963  0.875094  0.456160  1
  O  O149  1  0.017850  0.874721  0.456573  1
  O  O150  1  0.220102  0.916591  0.491634  1
  O  O151  1  0.075067  0.916983  0.521893  1
  O  O152  1  0.459007  0.915975  0.522050  1
  O  O153  1  0.016560  0.958449  0.455587  1
  O  O154  1  0.312833  0.958827  0.456207  1
  O  O155  1  0.879864  0.994708  0.386517  1
  O  O156  1  0.234149  0.994330  0.386768  1
  Si  Si157  1  0.745209  0.000000  0.267471  1
  Si  Si158  1  0.666076  0.083632  0.215350  1
  Si  Si159  1  0.746554  0.166860  0.267406  1
  Si  Si160  1  0.997077  0.166929  0.267328  1
  Si  Si161  1  0.917318  0.083324  0.215799  1
  Si  Si162  1  0.745629  -0.000000  0.348613  1
  Si  Si163  1  0.251011  0.333317  0.348755  1
  Si  Si164  1  0.746776  0.333690  0.267716  1
  Si  Si165  1  0.746640  0.333693  0.348767  1
  Si  Si166  1  0.998945  0.333257  0.267655  1
  Si  Si167  1  0.915650  0.250171  0.215273  1
  Si  Si168  1  0.331109  0.416729  0.322554  1
  Si  Si169  1  0.584780  0.417014  0.241968  1
  Si  Si170  1  0.584648  0.417007  0.322466  1
  Si  Si171  1  0.080826  0.416658  0.242004  1
  Si  Si172  1  0.665753  0.250361  0.215738  1
  Si  Si173  1  -0.000000  0.666641  0.267787  1
  Si  Si174  1  0.746805  0.666857  0.348791  1
  Si  Si175  1  0.746735  0.666902  0.267662  1
  Si  Si176  1  0.917357  0.583343  0.215664  1
  Si  Si177  1  0.666918  0.583519  0.215652  1
  Si  Si178  1  0.746915  0.500265  0.267783  1
  Si  Si179  1  0.080396  0.749900  0.241869  1
  Si  Si180  1  -0.000000  0.500018  0.267714  1
  Si  Si181  1  0.584180  0.916931  0.322403  1
  Si  Si182  1  0.583882  0.916916  0.241827  1
  Si  Si183  1  0.079933  0.916715  0.241790  1
  Si  Si184  1  0.330271  0.916750  0.322323  1
  Si  Si185  1  -0.000000  0.833272  0.267667  1
  Si  Si186  1  0.745713  0.833602  0.348380  1
  Si  Si187  1  0.745744  0.833650  0.267790  1
  Si  Si188  1  0.249981  0.833346  0.348335  1
  Si  Si189  1  0.584880  0.750199  0.241895  1
  Si  Si190  1  0.331047  0.750037  0.322492  1
  Si  Si191  1  0.584915  0.750143  0.322506  1
  Si  Si192  1  0.997639  0.000000  0.267637  1
  Si  Si193  1  0.249758  -0.000000  0.348711  1
  Si  Si194  1  0.915873  0.083405  0.455636  1
  Si  Si195  1  0.410912  0.083394  0.374608  1
  Si  Si196  1  0.997011  0.166687  0.429698  1
  Si  Si197  1  0.250839  0.167032  0.349028  1
  Si  Si198  1  0.250803  0.166893  0.429613  1
  Si  Si199  1  0.746523  0.166772  0.349056  1
  Si  Si200  1  0.665395  0.083546  0.375073  1
  Si  Si201  1  0.412284  0.083566  0.455385  1
  Si  Si202  1  0.997784  0.000000  0.429693  1
  Si  Si203  1  0.250194  -0.000000  0.429867  1
  Si  Si204  1  0.998842  0.333611  0.429907  1
  Si  Si205  1  0.250877  0.333675  0.429843  1
  Si  Si206  1  0.412120  0.250254  0.455764  1
  Si  Si207  1  0.080931  0.416838  0.482118  1
  Si  Si208  1  0.331212  0.416927  0.482033  1
  Si  Si209  1  0.666479  0.250314  0.374891  1
  Si  Si210  1  0.413410  0.250119  0.375387  1
  Si  Si211  1  0.917001  0.250247  0.455531  1
  Si  Si212  1  0.251528  0.666872  0.429967  1
  Si  Si213  1  0.251398  0.666719  0.348868  1
  Si  Si214  1  0.000000  0.666759  0.429833  1
  Si  Si215  1  0.251083  0.500257  0.429995  1
  Si  Si216  1  0.666794  0.583536  0.375164  1
  Si  Si217  1  0.413289  0.583495  0.455721  1
  Si  Si218  1  0.413141  0.583335  0.375182  1
  Si  Si219  1  0.917120  0.583537  0.455715  1
  Si  Si220  1  0.251086  0.500052  0.348887  1
  Si  Si221  1  0.746981  0.500224  0.348895  1
  Si  Si222  1  0.998982  0.500167  0.430081  1
  Si  Si223  1  0.330170  0.916931  0.481873  1
  Si  Si224  1  0.249945  0.833547  0.430003  1
  Si  Si225  1  0.000000  0.833418  0.430110  1
  Si  Si226  1  0.079613  0.916920  0.481804  1
  Si  Si227  1  0.331066  0.750229  0.481920  1
  Si  Si228  1  0.080338  0.750026  0.481898  1
  H  H229  1  0.918868  0.248608  0.151379  1
  H  H230  1  0.536923  0.248226  0.151966  1
  H  H231  1  0.920567  0.084858  0.151918  1
  H  H232  1  0.537793  0.084742  0.151376  1
  H  H233  1  0.074861  0.416450  0.176658  1
  H  H234  1  0.461131  0.416365  0.176566  1
  H  H235  1  0.923055  0.584597  0.152180  1
  H  H236  1  0.537065  0.584008  0.152228  1
  H  H237  1  0.077383  0.752217  0.176973  1
  H  H238  1  0.459428  0.752364  0.177007  1
  H  H239  1  0.075067  0.916983  0.176624  1
  H  H240  1  0.459007  0.915975  0.176780  1
  H  H241  1  0.918868  0.248608  0.520246  1
  H  H242  1  0.536923  0.248226  0.520833  1
  H  H243  1  0.920567  0.084858  0.520785  1
  H  H244  1  0.537793  0.084742  0.520242  1
  H  H245  1  0.074861  0.416450  0.545525  1
  H  H246  1  0.461131  0.416365  0.545433  1
  H  H247  1  0.923055  0.584597  0.521047  1
  H  H248  1  0.537065  0.584008  0.521095  1
  H  H249  1  0.077383  0.752217  0.545840  1
  H  H250  1  0.459428  0.752364  0.545873  1
  H  H251  1  0.075067  0.916983  0.545490  1
  H  H252  1  0.459007  0.915975  0.545647  1
