# generated using pymatgen
data_Si5H2O11
_symmetry_space_group_name_H-M   'P 1'
_cell_length_a   5.06832013
_cell_length_b   22.33998399
_cell_length_c   37.98306726
_cell_angle_alpha   128.16912066
_cell_angle_beta   90.00000000
_cell_angle_gamma   90.00000000
_symmetry_Int_Tables_number   1
_chemical_formula_structural   Si5H2O11
_chemical_formula_sum   'Si20 H8 O44'
_cell_volume   3381.15033772
_cell_formula_units_Z   4
loop_
 _symmetry_equiv_pos_site_id
 _symmetry_equiv_pos_as_xyz
  1  'x, y, z'
loop_
 _atom_site_type_symbol
 _atom_site_label
 _atom_site_symmetry_multiplicity
 _atom_site_fract_x
 _atom_site_fract_y
 _atom_site_fract_z
 _atom_site_occupancy
  O  O1  1  0.998663  -0.000000  0.412474  1
  O  O2  1  0.000000  0.500039  0.412776  1
  O  O3  1  0.001117  0.000000  0.252642  1
  O  O4  1  -0.000000  0.500102  0.252349  1
  O  O5  1  0.498653  -0.000000  0.412692  1
  O  O6  1  0.499901  0.500123  0.412404  1
  O  O7  1  0.501115  -0.000000  0.252442  1
  O  O8  1  0.499747  0.500019  0.252721  1
  O  O9  1  0.747463  0.925137  0.339415  1
  O  O10  1  0.751952  0.425130  0.339426  1
  O  O11  1  0.747900  0.925126  0.271217  1
  O  O12  1  0.752027  0.425133  0.271234  1
  O  O13  1  0.251787  0.075016  0.393908  1
  O  O14  1  0.247626  0.575009  0.393891  1
  O  O15  1  0.252221  0.075005  0.325710  1
  O  O16  1  0.247699  0.575011  0.325698  1
  O  O17  1  0.752593  0.874857  0.382958  1
  O  O18  1  0.747100  0.374889  0.382991  1
  O  O19  1  0.752109  0.874896  0.191132  1
  O  O20  1  0.747484  0.374860  0.191142  1
  O  O21  1  0.247531  0.125247  0.473993  1
  O  O22  1  0.252161  0.625281  0.473983  1
  O  O23  1  0.247049  0.125285  0.282168  1
  O  O24  1  0.252546  0.625252  0.282134  1
  O  O25  1  0.745811  0.774136  0.397434  1
  O  O26  1  0.753787  0.274147  0.397455  1
  O  O27  1  0.745730  0.774146  0.466909  1
  O  O28  1  0.754005  0.274137  0.466923  1
  O  O29  1  0.253932  0.225995  0.198216  1
  O  O30  1  0.245667  0.726006  0.198202  1
  O  O31  1  0.253853  0.226006  0.267691  1
  O  O32  1  0.245886  0.725996  0.267671  1
  O  O33  1  0.965192  0.744033  0.328582  1
  O  O34  1  0.034467  0.256111  0.336542  1
  O  O35  1  0.534473  0.244065  0.328612  1
  O  O36  1  0.465180  0.756074  0.336514  1
  O  O37  1  0.457644  0.683039  0.399060  1
  O  O38  1  0.543665  0.166492  0.393079  1
  O  O39  1  0.043658  0.333649  0.272078  1
  O  O40  1  0.957670  0.817104  0.266073  1
  O  O41  1  0.542008  0.317101  0.266064  1
  O  O42  1  0.456023  0.833648  0.272045  1
  O  O43  1  0.956005  0.666492  0.393047  1
  O  O44  1  0.042023  0.183040  0.399053  1
  Si  Si45  1  0.749161  0.950033  0.388056  1
  Si  Si46  1  0.749896  0.450047  0.388071  1
  Si  Si47  1  0.750353  0.950046  0.240689  1
  Si  Si48  1  0.749954  0.450033  0.240694  1
  Si  Si49  1  0.249363  0.050096  0.424436  1
  Si  Si50  1  0.249695  0.550110  0.424431  1
  Si  Si51  1  0.250554  0.050110  0.277070  1
  Si  Si52  1  0.249752  0.550096  0.277055  1
  Si  Si53  1  0.732588  0.788765  0.362005  1
  Si  Si54  1  0.767068  0.288794  0.362036  1
  Si  Si55  1  0.267069  0.211376  0.303120  1
  Si  Si56  1  0.232590  0.711346  0.303088  1
  Si  Si57  1  0.727151  0.725993  0.414674  1
  Si  Si58  1  0.772517  0.225992  0.414684  1
  Si  Si59  1  0.272507  0.274147  0.250451  1
  Si  Si60  1  0.227169  0.774147  0.250440  1
  Si  Si61  1  0.727084  0.875737  0.287362  1
  Si  Si62  1  0.772592  0.375738  0.287377  1
  Si  Si63  1  0.272602  0.124402  0.377762  1
  Si  Si64  1  0.227066  0.624403  0.377748  1
  H  H65  1  0.752109  0.874896  0.167437  1
  H  H66  1  0.747484  0.374860  0.167447  1
  H  H67  1  0.247531  0.125247  0.497688  1
  H  H68  1  0.252161  0.625281  0.497678  1
  H  H69  1  0.745730  0.774146  0.490604  1
  H  H70  1  0.754005  0.274137  0.490618  1
  H  H71  1  0.253932  0.225995  0.174521  1
  H  H72  1  0.245667  0.726006  0.174507  1
