# generated using pymatgen
data_Si17H2O35
_symmetry_space_group_name_H-M   'P 1'
_cell_length_a   5.06832013
_cell_length_b   22.33998399
_cell_length_c   65.59460704
_cell_angle_alpha   128.16912066
_cell_angle_beta   90.00000000
_cell_angle_gamma   90.00000000
_symmetry_Int_Tables_number   1
_chemical_formula_structural   Si17H2O35
_chemical_formula_sum   'Si68 H8 O140'
_cell_volume   5839.05523573
_cell_formula_units_Z   4
loop_
 _symmetry_equiv_pos_site_id
 _symmetry_equiv_pos_as_xyz
  1  'x, y, z'
loop_
 _atom_site_type_symbol
 _atom_site_label
 _atom_site_symmetry_multiplicity
 _atom_site_fract_x
 _atom_site_fract_y
 _atom_site_fract_z
 _atom_site_occupancy
  O  O1  1  0.998663  0.000000  0.238846  1
  O  O2  1  0.000000  0.500039  0.239021  1
  O  O3  1  0.001117  0.000000  0.146295  1
  O  O4  1  -0.000000  0.500102  0.146125  1
  O  O5  1  0.498653  0.000000  0.238973  1
  O  O6  1  0.499901  0.500123  0.238806  1
  O  O7  1  0.501115  0.000000  0.146178  1
  O  O8  1  0.499747  0.500019  0.146340  1
  O  O9  1  0.747463  0.925137  0.196541  1
  O  O10  1  0.751952  0.425130  0.196548  1
  O  O11  1  0.747900  0.925126  0.157050  1
  O  O12  1  0.752027  0.425133  0.157060  1
  O  O13  1  0.251787  0.075016  0.228095  1
  O  O14  1  0.247626  0.575009  0.228086  1
  O  O15  1  0.252221  0.075005  0.188605  1
  O  O16  1  0.247699  0.575011  0.188598  1
  O  O17  1  0.752593  0.874857  0.221755  1
  O  O18  1  0.747100  0.374889  0.221774  1
  O  O19  1  0.752109  0.874896  0.110677  1
  O  O20  1  0.747484  0.374860  0.110682  1
  O  O21  1  0.247531  0.125247  0.274469  1
  O  O22  1  0.252161  0.625281  0.274463  1
  O  O23  1  0.247049  0.125285  0.163392  1
  O  O24  1  0.252546  0.625252  0.163372  1
  O  O25  1  0.745811  0.774136  0.230137  1
  O  O26  1  0.753787  0.274147  0.230150  1
  O  O27  1  0.745730  0.774146  0.270367  1
  O  O28  1  0.754005  0.274137  0.270376  1
  O  O29  1  0.253932  0.225995  0.114778  1
  O  O30  1  0.245667  0.726006  0.114770  1
  O  O31  1  0.253853  0.226006  0.155009  1
  O  O32  1  0.245886  0.725996  0.154997  1
  O  O33  1  0.965192  0.744033  0.190268  1
  O  O34  1  0.034467  0.256111  0.194877  1
  O  O35  1  0.964928  0.744106  0.297585  1
  O  O36  1  0.534713  0.244066  0.297585  1
  O  O37  1  0.534473  0.244065  0.190285  1
  O  O38  1  0.465180  0.756074  0.194861  1
  O  O39  1  0.457644  0.683039  0.231079  1
  O  O40  1  0.543665  0.166492  0.227616  1
  O  O41  1  0.043658  0.333649  0.157549  1
  O  O42  1  0.957670  0.817104  0.154072  1
  O  O43  1  0.542008  0.317101  0.154067  1
  O  O44  1  0.456023  0.833648  0.157530  1
  O  O45  1  0.956005  0.666492  0.227597  1
  O  O46  1  0.042023  0.183040  0.231075  1
  O  O47  1  0.998663  0.000000  0.449317  1
  O  O48  1  0.000000  0.500039  0.449492  1
  O  O49  1  0.001117  0.000000  0.356766  1
  O  O50  1  0.000000  0.500102  0.356596  1
  O  O51  1  0.498653  0.000000  0.449444  1
  O  O52  1  0.499901  0.500123  0.449277  1
  O  O53  1  0.501115  0.000000  0.356650  1
  O  O54  1  0.499747  0.500019  0.356811  1
  O  O55  1  0.747463  0.925137  0.407012  1
  O  O56  1  0.751952  0.425130  0.407019  1
  O  O57  1  0.747900  0.925126  0.367522  1
  O  O58  1  0.752027  0.425133  0.367531  1
  O  O59  1  0.251787  0.075016  0.438567  1
  O  O60  1  0.247626  0.575009  0.438557  1
  O  O61  1  0.252221  0.075005  0.399076  1
  O  O62  1  0.247699  0.575011  0.399069  1
  O  O63  1  0.752593  0.874857  0.432226  1
  O  O64  1  0.747100  0.374889  0.432245  1
  O  O65  1  0.752109  0.874896  0.321148  1
  O  O66  1  0.747484  0.374860  0.321153  1
  O  O67  1  0.247531  0.125247  0.484940  1
  O  O68  1  0.252161  0.625281  0.484935  1
  O  O69  1  0.247049  0.125285  0.373863  1
  O  O70  1  0.252546  0.625252  0.373843  1
  O  O71  1  0.745811  0.774136  0.440608  1
  O  O72  1  0.753787  0.274147  0.440621  1
  O  O73  1  0.745730  0.774146  0.480838  1
  O  O74  1  0.754005  0.274137  0.480847  1
  O  O75  1  0.253932  0.225995  0.325250  1
  O  O76  1  0.245667  0.726006  0.325242  1
  O  O77  1  0.253853  0.226006  0.365480  1
  O  O78  1  0.245886  0.725996  0.365468  1
  O  O79  1  0.965192  0.744033  0.400739  1
  O  O80  1  0.034467  0.256111  0.405349  1
  O  O81  1  0.964928  0.744106  0.508056  1
  O  O82  1  0.034729  0.256038  0.298034  1
  O  O83  1  0.534713  0.244066  0.508056  1
  O  O84  1  0.464936  0.756073  0.298031  1
  O  O85  1  0.534473  0.244065  0.400756  1
  O  O86  1  0.465180  0.756074  0.405332  1
  O  O87  1  0.457644  0.683039  0.441550  1
  O  O88  1  0.543665  0.166492  0.438087  1
  O  O89  1  0.043658  0.333649  0.368020  1
  O  O90  1  0.957670  0.817104  0.364543  1
  O  O91  1  0.542008  0.317101  0.364538  1
  O  O92  1  0.456023  0.833648  0.368001  1
  O  O93  1  0.956005  0.666492  0.438068  1
  O  O94  1  0.042023  0.183040  0.441546  1
  O  O95  1  0.998663  0.000000  0.659789  1
  O  O96  1  0.000000  0.500039  0.659963  1
  O  O97  1  0.001117  0.000000  0.567237  1
  O  O98  1  0.000000  0.500102  0.567067  1
  O  O99  1  0.498653  0.000000  0.659915  1
  O  O100  1  0.499901  0.500123  0.659748  1
  O  O101  1  0.501115  0.000000  0.567121  1
  O  O102  1  0.499747  0.500019  0.567282  1
  O  O103  1  0.747463  0.925137  0.617483  1
  O  O104  1  0.751952  0.425130  0.617490  1
  O  O105  1  0.747900  0.925126  0.577993  1
  O  O106  1  0.752027  0.425133  0.578002  1
  O  O107  1  0.251787  0.075016  0.649038  1
  O  O108  1  0.247626  0.575009  0.649028  1
  O  O109  1  0.252221  0.075005  0.609547  1
  O  O110  1  0.247699  0.575011  0.609540  1
  O  O111  1  0.752593  0.874857  0.642697  1
  O  O112  1  0.747100  0.374889  0.642716  1
  O  O113  1  0.752109  0.874896  0.531619  1
  O  O114  1  0.747484  0.374860  0.531624  1
  O  O115  1  0.247531  0.125247  0.695412  1
  O  O116  1  0.252161  0.625281  0.695406  1
  O  O117  1  0.247049  0.125285  0.584334  1
  O  O118  1  0.252546  0.625252  0.584314  1
  O  O119  1  0.745811  0.774136  0.651079  1
  O  O120  1  0.753787  0.274147  0.651092  1
  O  O121  1  0.745730  0.774146  0.691310  1
  O  O122  1  0.754005  0.274137  0.691318  1
  O  O123  1  0.253932  0.225995  0.535721  1
  O  O124  1  0.245667  0.726006  0.535713  1
  O  O125  1  0.253853  0.226006  0.575951  1
  O  O126  1  0.245886  0.725996  0.575939  1
  O  O127  1  0.965192  0.744033  0.611210  1
  O  O128  1  0.034467  0.256111  0.615820  1
  O  O129  1  0.034729  0.256038  0.508505  1
  O  O130  1  0.464936  0.756073  0.508502  1
  O  O131  1  0.534473  0.244065  0.611227  1
  O  O132  1  0.465180  0.756074  0.615803  1
  O  O133  1  0.457644  0.683039  0.652021  1
  O  O134  1  0.543665  0.166492  0.648558  1
  O  O135  1  0.043658  0.333649  0.578491  1
  O  O136  1  0.957670  0.817104  0.575014  1
  O  O137  1  0.542008  0.317101  0.575009  1
  O  O138  1  0.456023  0.833648  0.578472  1
  O  O139  1  0.956005  0.666492  0.648539  1
  O  O140  1  0.042023  0.183040  0.652017  1
  Si  Si141  1  0.749161  0.950033  0.224707  1
  Si  Si142  1  0.749896  0.450047  0.224715  1
  Si  Si143  1  0.750353  0.950046  0.139373  1
  Si  Si144  1  0.749954  0.450033  0.139376  1
  Si  Si145  1  0.249363  0.050096  0.245773  1
  Si  Si146  1  0.249695  0.550110  0.245770  1
  Si  Si147  1  0.250554  0.050110  0.160440  1
  Si  Si148  1  0.249752  0.550096  0.160431  1
  Si  Si149  1  0.732588  0.788765  0.209622  1
  Si  Si150  1  0.767068  0.288794  0.209640  1
  Si  Si151  1  0.732308  0.788797  0.297042  1
  Si  Si152  1  0.767346  0.288766  0.297049  1
  Si  Si153  1  0.267069  0.211376  0.175524  1
  Si  Si154  1  0.232590  0.711346  0.175505  1
  Si  Si155  1  0.727151  0.725993  0.240120  1
  Si  Si156  1  0.772517  0.225992  0.240126  1
  Si  Si157  1  0.272507  0.274147  0.145026  1
  Si  Si158  1  0.227169  0.774147  0.145019  1
  Si  Si159  1  0.727084  0.875737  0.166399  1
  Si  Si160  1  0.772592  0.375738  0.166408  1
  Si  Si161  1  0.272602  0.124402  0.218746  1
  Si  Si162  1  0.227066  0.624403  0.218738  1
  Si  Si163  1  0.749161  0.950033  0.435178  1
  Si  Si164  1  0.749896  0.450047  0.435186  1
  Si  Si165  1  0.750353  0.950046  0.349844  1
  Si  Si166  1  0.749954  0.450033  0.349847  1
  Si  Si167  1  0.249363  0.050096  0.456244  1
  Si  Si168  1  0.249695  0.550110  0.456241  1
  Si  Si169  1  0.250554  0.050110  0.370911  1
  Si  Si170  1  0.249752  0.550096  0.370902  1
  Si  Si171  1  0.732588  0.788765  0.420093  1
  Si  Si172  1  0.767068  0.288794  0.420111  1
  Si  Si173  1  0.732308  0.788797  0.507514  1
  Si  Si174  1  0.767346  0.288766  0.507520  1
  Si  Si175  1  0.267344  0.211344  0.298574  1
  Si  Si176  1  0.232308  0.711374  0.298569  1
  Si  Si177  1  0.267069  0.211376  0.385995  1
  Si  Si178  1  0.232590  0.711346  0.385976  1
  Si  Si179  1  0.727151  0.725993  0.450591  1
  Si  Si180  1  0.772517  0.225992  0.450597  1
  Si  Si181  1  0.272507  0.274147  0.355497  1
  Si  Si182  1  0.227169  0.774147  0.355490  1
  Si  Si183  1  0.727084  0.875737  0.376870  1
  Si  Si184  1  0.772592  0.375738  0.376879  1
  Si  Si185  1  0.272602  0.124402  0.429217  1
  Si  Si186  1  0.227066  0.624403  0.429209  1
  Si  Si187  1  0.749161  0.950033  0.645649  1
  Si  Si188  1  0.749896  0.450047  0.645658  1
  Si  Si189  1  0.750353  0.950046  0.560315  1
  Si  Si190  1  0.749954  0.450033  0.560318  1
  Si  Si191  1  0.249363  0.050096  0.666715  1
  Si  Si192  1  0.249695  0.550110  0.666712  1
  Si  Si193  1  0.250554  0.050110  0.581382  1
  Si  Si194  1  0.249752  0.550096  0.581373  1
  Si  Si195  1  0.732588  0.788765  0.630564  1
  Si  Si196  1  0.767068  0.288794  0.630582  1
  Si  Si197  1  0.267344  0.211344  0.509046  1
  Si  Si198  1  0.232308  0.711374  0.509040  1
  Si  Si199  1  0.267069  0.211376  0.596466  1
  Si  Si200  1  0.232590  0.711346  0.596447  1
  Si  Si201  1  0.727151  0.725993  0.661063  1
  Si  Si202  1  0.772517  0.225992  0.661068  1
  Si  Si203  1  0.272507  0.274147  0.565968  1
  Si  Si204  1  0.227169  0.774147  0.565962  1
  Si  Si205  1  0.727084  0.875737  0.587341  1
  Si  Si206  1  0.772592  0.375738  0.587350  1
  Si  Si207  1  0.272602  0.124402  0.639688  1
  Si  Si208  1  0.227066  0.624403  0.639680  1
  H  H209  1  0.752109  0.874896  0.096956  1
  H  H210  1  0.747484  0.374860  0.096961  1
  H  H211  1  0.253932  0.225995  0.101058  1
  H  H212  1  0.245667  0.726006  0.101050  1
  H  H213  1  0.247531  0.125247  0.709132  1
  H  H214  1  0.252161  0.625281  0.709126  1
  H  H215  1  0.745730  0.774146  0.705030  1
  H  H216  1  0.754005  0.274137  0.705038  1
