# generated using pymatgen
data_Si12H2O25
_symmetry_space_group_name_H-M   'P 1'
_cell_length_a   28.25841819
_cell_length_b   19.89838588
_cell_length_c   41.72428887
_cell_angle_alpha   90.00000000
_cell_angle_beta   93.20000000
_cell_angle_gamma   90.00000000
_symmetry_Int_Tables_number   1
_chemical_formula_structural   Si12H2O25
_chemical_formula_sum   'Si192 H32 O400'
_cell_volume   23424.856766
_cell_formula_units_Z   16
loop_
 _symmetry_equiv_pos_site_id
 _symmetry_equiv_pos_as_xyz
  1  'x, y, z'
loop_
 _atom_site_type_symbol
 _atom_site_label
 _atom_site_symmetry_multiplicity
 _atom_site_fract_x
 _atom_site_fract_y
 _atom_site_fract_z
 _atom_site_occupancy
  O  O1  1  0.394429  0.404978  0.142525  1
  O  O2  1  0.395299  0.193842  0.141592  1
  O  O3  1  0.394432  0.594978  0.142528  1
  O  O4  1  0.395301  0.806122  0.141595  1
  O  O5  1  0.894432  0.094995  0.142527  1
  O  O6  1  0.895300  0.306131  0.141593  1
  O  O7  1  0.894434  0.904992  0.142529  1
  O  O8  1  0.895301  0.693848  0.141595  1
  O  O9  1  0.044955  0.100020  0.570582  1
  O  O10  1  0.096629  0.201108  0.584270  1
  O  O11  1  0.131468  0.097299  0.558097  1
  O  O12  1  0.105660  0.094992  0.150656  1
  O  O13  1  0.131779  0.193034  0.447072  1
  O  O14  1  0.126795  0.249673  0.501394  1
  O  O15  1  0.126913  0.122945  0.498671  1
  O  O16  1  0.053286  0.189429  0.480197  1
  O  O17  1  0.045867  0.088786  0.194427  1
  O  O18  1  0.130005  0.123802  0.209773  1
  O  O19  1  0.206445  0.094316  0.524611  1
  O  O20  1  0.293645  0.405652  0.235348  1
  O  O21  1  0.129929  0.302526  0.557091  1
  O  O22  1  0.104790  0.306134  0.151589  1
  O  O23  1  0.044688  0.300722  0.570178  1
  O  O24  1  0.200668  0.199694  0.231766  1
  O  O25  1  0.299423  0.300280  0.528191  1
  O  O26  1  0.295953  0.202370  0.236436  1
  O  O27  1  0.204138  0.297602  0.523521  1
  O  O28  1  0.247253  0.198528  0.285128  1
  O  O29  1  0.252839  0.301436  0.474829  1
  O  O30  1  0.246298  0.302894  0.251835  1
  O  O31  1  0.253793  0.197076  0.508125  1
  O  O32  1  0.046238  0.302503  0.197427  1
  O  O33  1  0.005343  0.248796  0.521114  1
  O  O34  1  0.125824  0.250162  0.205734  1
  O  O35  1  0.123505  0.195582  0.260627  1
  O  O36  1  0.119276  0.376312  0.204411  1
  O  O37  1  0.181881  0.499987  0.421679  1
  O  O38  1  0.130136  0.410284  0.445805  1
  O  O39  1  0.052950  0.411157  0.479989  1
  O  O40  1  0.133682  0.375243  0.505242  1
  O  O41  1  0.123888  0.407292  0.263153  1
  O  O42  1  0.138187  0.499989  0.223456  1
  O  O43  1  0.199325  0.405476  0.233185  1
  O  O44  1  0.300766  0.094495  0.526774  1
  O  O45  1  0.246982  0.406971  0.285596  1
  O  O46  1  0.253109  0.093001  0.474363  1
  O  O47  1  0.168987  0.299692  0.351560  1
  O  O48  1  0.331104  0.200275  0.408398  1
  O  O49  1  0.211093  0.406598  0.339616  1
  O  O50  1  0.289000  0.093368  0.420344  1
  O  O51  1  0.153544  0.403152  0.385172  1
  O  O52  1  0.122451  0.392672  0.323841  1
  O  O53  1  0.041980  0.403066  0.285987  1
  O  O54  1  0.095038  0.299895  0.285881  1
  O  O55  1  0.201074  0.123961  0.426296  1
  O  O56  1  0.299019  0.376008  0.333662  1
  O  O57  1  0.268094  0.499983  0.325224  1
  O  O58  1  0.042733  0.197418  0.284789  1
  O  O59  1  0.212786  0.376376  0.431084  1
  O  O60  1  0.287307  0.123592  0.328875  1
  O  O61  1  0.287311  0.304679  0.419795  1
  O  O62  1  0.212780  0.195289  0.340161  1
  O  O63  1  0.206728  0.249348  0.428821  1
  O  O64  1  0.293362  0.250621  0.331135  1
  O  O65  1  0.154271  0.197878  0.385408  1
  O  O66  1  0.123709  0.206504  0.322853  1
  O  O67  1  0.003607  0.375726  0.526021  1
  O  O68  1  0.000000  0.122692  0.517425  1
  O  O69  1  0.000000  0.499990  0.504003  1
  O  O70  1  0.116561  0.499989  0.487292  1
  O  O71  1  0.044951  0.899961  0.570584  1
  O  O72  1  0.096628  0.798874  0.584271  1
  O  O73  1  0.131465  0.902681  0.558097  1
  O  O74  1  0.105660  0.904990  0.150657  1
  O  O75  1  0.131775  0.806944  0.447072  1
  O  O76  1  0.126791  0.750307  0.501394  1
  O  O77  1  0.126909  0.877033  0.498671  1
  O  O78  1  0.053281  0.810550  0.480197  1
  O  O79  1  0.045872  0.911194  0.194431  1
  O  O80  1  0.109184  -0.000000  0.192019  1
  O  O81  1  0.130010  0.876180  0.209773  1
  O  O82  1  0.293649  0.594316  0.235350  1
  O  O83  1  0.206442  0.905657  0.524611  1
  O  O84  1  0.144433  0.000000  0.519040  1
  O  O85  1  0.129923  0.697453  0.557091  1
  O  O86  1  0.104789  0.693848  0.151590  1
  O  O87  1  0.044683  0.699261  0.570180  1
  O  O88  1  0.299418  0.699687  0.528195  1
  O  O89  1  0.200674  0.800285  0.231767  1
  O  O90  1  0.204133  0.702377  0.523523  1
  O  O91  1  0.295959  0.797591  0.236438  1
  O  O92  1  0.252836  0.698536  0.474831  1
  O  O93  1  0.247258  0.801438  0.285131  1
  O  O94  1  0.253793  0.802896  0.508128  1
  O  O95  1  0.246298  0.697075  0.251835  1
  O  O96  1  0.046243  0.697482  0.197430  1
  O  O97  1  0.005340  0.751185  0.521116  1
  O  O98  1  0.125830  0.749820  0.205734  1
  O  O99  1  0.123510  0.804400  0.260627  1
  O  O100  1  0.119280  0.623669  0.204411  1
  O  O101  1  0.130134  0.589691  0.445804  1
  O  O102  1  0.052949  0.588822  0.479989  1
  O  O103  1  0.133679  0.624737  0.505241  1
  O  O104  1  0.123890  0.592688  0.263152  1
  O  O105  1  0.300763  0.905477  0.526777  1
  O  O106  1  0.199328  0.594495  0.233185  1
  O  O107  1  0.253108  0.906971  0.474365  1
  O  O108  1  0.246984  0.592999  0.285597  1
  O  O109  1  0.331105  0.799692  0.408400  1
  O  O110  1  0.168989  0.700280  0.351561  1
  O  O111  1  0.288999  0.906600  0.420346  1
  O  O112  1  0.211094  0.593371  0.339616  1
  O  O113  1  0.153543  0.596820  0.385171  1
  O  O114  1  0.122452  0.607305  0.323840  1
  O  O115  1  0.041983  0.596917  0.285986  1
  O  O116  1  0.095042  0.700087  0.285880  1
  O  O117  1  0.299020  0.623957  0.333664  1
  O  O118  1  0.201073  0.876012  0.426297  1
  O  O119  1  0.231998  -0.000000  0.434738  1
  O  O120  1  0.042739  0.802565  0.284791  1
  O  O121  1  0.287312  0.876372  0.328877  1
  O  O122  1  0.212783  0.623597  0.431086  1
  O  O123  1  0.212786  0.804678  0.340164  1
  O  O124  1  0.287307  0.695295  0.419797  1
  O  O125  1  0.293368  0.749343  0.331137  1
  O  O126  1  0.206723  0.750625  0.428824  1
  O  O127  1  0.154272  0.802095  0.385408  1
  O  O128  1  0.123716  0.793473  0.322853  1
  O  O129  1  0.318213  -0.000000  0.338281  1
  O  O130  1  0.003607  0.624254  0.526023  1
  O  O131  1  -0.000000  0.877289  0.517425  1
  O  O132  1  0.006111  -0.000000  0.541026  1
  O  O133  1  0.455135  0.399948  0.189373  1
  O  O134  1  0.544955  0.399948  0.570579  1
  O  O135  1  0.403451  0.298865  0.175690  1
  O  O136  1  0.596638  0.298866  0.584265  1
  O  O137  1  0.368622  0.402681  0.201861  1
  O  O138  1  0.631467  0.402680  0.558093  1
  O  O139  1  0.394429  0.404978  0.609300  1
  O  O140  1  0.605660  0.404981  0.150653  1
  O  O141  1  0.368312  0.306931  0.312885  1
  O  O142  1  0.631779  0.306935  0.447069  1
  O  O143  1  0.373297  0.250295  0.258562  1
  O  O144  1  0.626794  0.250298  0.501391  1
  O  O145  1  0.373178  0.377022  0.261286  1
  O  O146  1  0.626913  0.377025  0.498668  1
  O  O147  1  0.446806  0.310540  0.279759  1
  O  O148  1  0.553285  0.310543  0.480194  1
  O  O149  1  0.454224  0.411185  0.565529  1
  O  O150  1  0.545865  0.411185  0.194424  1
  O  O151  1  0.370088  0.376171  0.550183  1
  O  O152  1  0.630002  0.376171  0.209770  1
  O  O153  1  0.355656  0.499981  0.240923  1
  O  O154  1  0.370162  0.197437  0.202866  1
  O  O155  1  0.629929  0.197441  0.557087  1
  O  O156  1  0.395299  0.193842  0.608367  1
  O  O157  1  0.604792  0.193842  0.151586  1
  O  O158  1  0.455403  0.199257  0.189777  1
  O  O159  1  0.544689  0.199256  0.570176  1
  O  O160  1  0.453854  0.197474  0.562530  1
  O  O161  1  0.546238  0.197473  0.197423  1
  O  O162  1  0.505343  0.251178  0.521112  1
  O  O163  1  0.494749  0.251176  0.238841  1
  O  O164  1  0.503610  0.124247  0.526020  1
  O  O165  1  0.496481  0.124245  0.233932  1
  O  O166  1  0.374267  0.249812  0.554222  1
  O  O167  1  0.625826  0.249811  0.205731  1
  O  O168  1  0.376585  0.304390  0.499329  1
  O  O169  1  0.623505  0.304391  0.260624  1
  O  O170  1  0.380817  0.123662  0.555547  1
  O  O171  1  0.619276  0.123661  0.204406  1
  O  O172  1  0.500944  0.377282  0.517423  1
  O  O173  1  0.499145  0.377280  0.242530  1
  O  O174  1  0.369957  0.089686  0.314154  1
  O  O175  1  0.630134  0.089687  0.445800  1
  O  O176  1  0.447140  0.088815  0.279966  1
  O  O177  1  0.552950  0.088815  0.479987  1
  O  O178  1  0.366406  0.124725  0.254717  1
  O  O179  1  0.633683  0.124728  0.505237  1
  O  O180  1  0.376203  0.092680  0.496806  1
  O  O181  1  0.623887  0.092680  0.263148  1
  O  O182  1  0.346549  0.096817  0.374787  1
  O  O183  1  0.653541  0.096818  0.385166  1
  O  O184  1  0.377642  0.107298  0.436118  1
  O  O185  1  0.622447  0.107299  0.323836  1
  O  O186  1  0.458111  0.096904  0.473973  1
  O  O187  1  0.541979  0.096906  0.285979  1
  O  O188  1  0.405055  0.200077  0.474077  1
  O  O189  1  0.595036  0.200078  0.285876  1
  O  O190  1  0.457357  0.302557  0.475167  1
  O  O191  1  0.542734  0.302557  0.284786  1
  O  O192  1  0.345821  0.302087  0.374549  1
  O  O193  1  0.654270  0.302091  0.385405  1
  O  O194  1  0.376382  0.293464  0.437104  1
  O  O195  1  0.623708  0.293467  0.322849  1
  O  O196  1  0.609181  0.499981  0.192016  1
  O  O197  1  0.390909  0.499981  0.567939  1
  O  O198  1  0.644437  0.499982  0.519033  1
  O  O199  1  0.493978  0.499981  0.218928  1
  O  O200  1  0.506112  0.499982  0.541026  1
  O  O201  1  0.544951  0.600016  0.570581  1
  O  O202  1  0.455139  0.600016  0.189376  1
  O  O203  1  0.596639  0.701096  0.584265  1
  O  O204  1  0.403452  0.701095  0.175690  1
  O  O205  1  0.631464  0.597280  0.558093  1
  O  O206  1  0.368626  0.597282  0.201864  1
  O  O207  1  0.605659  0.594982  0.150654  1
  O  O208  1  0.394432  0.594978  0.609304  1
  O  O209  1  0.631775  0.693030  0.447069  1
  O  O210  1  0.368318  0.693027  0.312889  1
  O  O211  1  0.626790  0.749666  0.501392  1
  O  O212  1  0.373302  0.749663  0.258566  1
  O  O213  1  0.626909  0.622939  0.498668  1
  O  O214  1  0.373183  0.622936  0.261290  1
  O  O215  1  0.553281  0.689421  0.480195  1
  O  O216  1  0.446811  0.689418  0.279763  1
  O  O217  1  0.545870  0.588779  0.194427  1
  O  O218  1  0.454221  0.588779  0.565529  1
  O  O219  1  0.630006  0.623791  0.209770  1
  O  O220  1  0.370084  0.623794  0.550188  1
  O  O221  1  0.629923  0.802526  0.557087  1
  O  O222  1  0.370169  0.802522  0.202870  1
  O  O223  1  0.604791  0.806119  0.151587  1
  O  O224  1  0.395301  0.806122  0.608370  1
  O  O225  1  0.544684  0.800701  0.570179  1
  O  O226  1  0.455408  0.800698  0.189779  1
  O  O227  1  0.546243  0.802486  0.197427  1
  O  O228  1  0.453850  0.802491  0.562531  1
  O  O229  1  0.494752  0.748783  0.238844  1
  O  O230  1  0.505339  0.748786  0.521113  1
  O  O231  1  0.496482  0.875714  0.233933  1
  O  O232  1  0.503610  0.875716  0.526023  1
  O  O233  1  0.625831  0.750150  0.205731  1
  O  O234  1  0.374262  0.750153  0.554227  1
  O  O235  1  0.623510  0.695571  0.260624  1
  O  O236  1  0.376581  0.695573  0.499334  1
  O  O237  1  0.619280  0.876301  0.204406  1
  O  O238  1  0.380812  0.876304  0.555551  1
  O  O239  1  0.499148  0.622679  0.242533  1
  O  O240  1  0.500943  0.622682  0.517424  1
  O  O241  1  0.630131  0.910281  0.445799  1
  O  O242  1  0.369961  0.910280  0.314157  1
  O  O243  1  0.552949  0.911148  0.479987  1
  O  O244  1  0.447144  0.911148  0.279968  1
  O  O245  1  0.633681  0.875235  0.505236  1
  O  O246  1  0.366411  0.875232  0.254722  1
  O  O247  1  0.616561  -0.000000  0.487288  1
  O  O248  1  0.383531  -0.000000  0.272667  1
  O  O249  1  0.623890  0.907283  0.263147  1
  O  O250  1  0.376201  0.907283  0.496809  1
  O  O251  1  0.638187  -0.000000  0.223450  1
  O  O252  1  0.361905  0.000000  0.536505  1
  O  O253  1  0.653541  0.903154  0.385166  1
  O  O254  1  0.346551  0.903153  0.374791  1
  O  O255  1  0.622450  0.892668  0.323835  1
  O  O256  1  0.377641  0.892667  0.436122  1
  O  O257  1  0.541982  0.903057  0.285979  1
  O  O258  1  0.458110  0.903056  0.473977  1
  O  O259  1  0.595040  0.799885  0.285876  1
  O  O260  1  0.405051  0.799885  0.474081  1
  O  O261  1  0.499960  -0.000000  0.255950  1
  O  O262  1  0.500131  0.000000  0.504004  1
  O  O263  1  0.542740  0.697404  0.284788  1
  O  O264  1  0.457352  0.697405  0.475170  1
  O  O265  1  0.654271  0.697880  0.385406  1
  O  O266  1  0.345820  0.697876  0.374553  1
  O  O267  1  0.623715  0.706500  0.322850  1
  O  O268  1  0.376376  0.706499  0.437108  1
  O  O269  1  0.955137  0.100018  0.189376  1
  O  O270  1  0.903465  0.201108  0.175689  1
  O  O271  1  0.868624  0.097300  0.201861  1
  O  O272  1  0.894432  0.094995  0.609302  1
  O  O273  1  0.868311  0.193037  0.312885  1
  O  O274  1  0.873296  0.249676  0.258563  1
  O  O275  1  0.873178  0.122949  0.261286  1
  O  O276  1  0.946805  0.189432  0.279760  1
  O  O277  1  0.954225  0.088786  0.565531  1
  O  O278  1  0.870087  0.123800  0.550185  1
  O  O279  1  0.793646  0.094321  0.235345  1
  O  O280  1  0.706446  0.405650  0.524608  1
  O  O281  1  0.870162  0.302527  0.202866  1
  O  O282  1  0.895300  0.306131  0.608368  1
  O  O283  1  0.955403  0.300728  0.189781  1
  O  O284  1  0.799423  0.199689  0.528189  1
  O  O285  1  0.700668  0.300284  0.231764  1
  O  O286  1  0.704138  0.202371  0.523518  1
  O  O287  1  0.795954  0.297604  0.236435  1
  O  O288  1  0.752838  0.198529  0.474826  1
  O  O289  1  0.747252  0.301441  0.285127  1
  O  O290  1  0.753796  0.302893  0.508121  1
  O  O291  1  0.746296  0.197080  0.251830  1
  O  O292  1  0.953852  0.302498  0.562531  1
  O  O293  1  0.994748  0.248798  0.238843  1
  O  O294  1  0.874265  0.250160  0.554223  1
  O  O295  1  0.876587  0.195580  0.499329  1
  O  O296  1  0.880815  0.376310  0.555547  1
  O  O297  1  0.869954  0.410286  0.314153  1
  O  O298  1  0.947140  0.411158  0.279970  1
  O  O299  1  0.866409  0.375246  0.254716  1
  O  O300  1  0.876204  0.407293  0.496805  1
  O  O301  1  0.800766  0.405475  0.526772  1
  O  O302  1  0.699325  0.094496  0.233180  1
  O  O303  1  0.753109  0.406970  0.474360  1
  O  O304  1  0.746982  0.093004  0.285592  1
  O  O305  1  0.831105  0.299694  0.408397  1
  O  O306  1  0.668984  0.200277  0.351556  1
  O  O307  1  0.789000  0.406602  0.420342  1
  O  O308  1  0.711090  0.093371  0.339610  1
  O  O309  1  0.846548  0.403153  0.374786  1
  O  O310  1  0.877642  0.392673  0.436117  1
  O  O311  1  0.958111  0.403065  0.473973  1
  O  O312  1  0.905053  0.299894  0.474077  1
  O  O313  1  0.799016  0.123964  0.333660  1
  O  O314  1  0.701074  0.376011  0.426293  1
  O  O315  1  0.818210  0.499989  0.338280  1
  O  O316  1  0.957358  0.197417  0.475168  1
  O  O317  1  0.787305  0.376379  0.328873  1
  O  O318  1  0.712784  0.123595  0.431079  1
  O  O319  1  0.712779  0.304680  0.340160  1
  O  O320  1  0.787312  0.195291  0.419794  1
  O  O321  1  0.793363  0.249351  0.331135  1
  O  O322  1  0.706729  0.250624  0.428818  1
  O  O323  1  0.845820  0.197881  0.374549  1
  O  O324  1  0.876382  0.206505  0.437104  1
  O  O325  1  0.996484  0.375729  0.233938  1
  O  O326  1  0.731998  0.499986  0.434734  1
  O  O327  1  0.861904  0.499988  0.536504  1
  O  O328  1  -0.000000  0.122694  0.242533  1
  O  O329  1  0.883531  0.499992  0.272667  1
  O  O330  1  0.000000  0.499992  0.255958  1
  O  O331  1  0.955142  0.899959  0.189378  1
  O  O332  1  0.903464  0.798875  0.175690  1
  O  O333  1  0.868629  0.902684  0.201863  1
  O  O334  1  0.894434  0.904992  0.609304  1
  O  O335  1  0.868316  0.806948  0.312888  1
  O  O336  1  0.873301  0.750311  0.258566  1
  O  O337  1  0.873182  0.877037  0.261289  1
  O  O338  1  0.946810  0.810553  0.279764  1
  O  O339  1  0.954221  0.911193  0.565529  1
  O  O340  1  0.870084  0.876179  0.550188  1
  O  O341  1  0.706442  0.594320  0.524608  1
  O  O342  1  0.793650  0.905655  0.235347  1
  O  O343  1  0.870168  0.697455  0.202870  1
  O  O344  1  0.895301  0.693848  0.608371  1
  O  O345  1  0.955408  0.699263  0.189781  1
  O  O346  1  0.700674  0.699682  0.231765  1
  O  O347  1  0.799418  0.800288  0.528193  1
  O  O348  1  0.795959  0.702378  0.236438  1
  O  O349  1  0.704133  0.797594  0.523520  1
  O  O350  1  0.747257  0.698537  0.285129  1
  O  O351  1  0.752834  0.801442  0.474828  1
  O  O352  1  0.746297  0.802896  0.251830  1
  O  O353  1  0.753795  0.697078  0.508123  1
  O  O354  1  0.953848  0.697480  0.562531  1
  O  O355  1  0.994751  0.751187  0.238846  1
  O  O356  1  0.874260  0.749819  0.554227  1
  O  O357  1  0.876582  0.804400  0.499334  1
  O  O358  1  0.880810  0.623668  0.555550  1
  O  O359  1  0.869958  0.589692  0.314157  1
  O  O360  1  0.947143  0.588824  0.279972  1
  O  O361  1  0.866413  0.624740  0.254720  1
  O  O362  1  0.000000  0.877290  0.242535  1
  O  O363  1  0.876202  0.592688  0.496808  1
  O  O364  1  0.699329  0.905478  0.233180  1
  O  O365  1  0.800763  0.594496  0.526774  1
  O  O366  1  0.746984  0.906970  0.285593  1
  O  O367  1  0.753107  0.593001  0.474362  1
  O  O368  1  0.668987  0.799694  0.351557  1
  O  O369  1  0.831105  0.700282  0.408398  1
  O  O370  1  0.711091  0.906603  0.339611  1
  O  O371  1  0.788999  0.593375  0.420344  1
  O  O372  1  0.846549  0.596820  0.374789  1
  O  O373  1  0.877640  0.607306  0.436121  1
  O  O374  1  0.958109  0.596917  0.473975  1
  O  O375  1  0.905050  0.700087  0.474081  1
  O  O376  1  0.701072  0.623960  0.426294  1
  O  O377  1  0.799018  0.876016  0.333662  1
  O  O378  1  0.957353  0.802565  0.475171  1
  O  O379  1  0.712781  0.876375  0.431080  1
  O  O380  1  0.787310  0.623600  0.328875  1
  O  O381  1  0.787307  0.804679  0.419796  1
  O  O382  1  0.712785  0.695296  0.340162  1
  O  O383  1  0.706725  0.749346  0.428821  1
  O  O384  1  0.793368  0.750629  0.331136  1
  O  O385  1  0.845820  0.802099  0.374552  1
  O  O386  1  0.876377  0.793474  0.437108  1
  O  O387  1  0.681879  -0.000000  0.421674  1
  O  O388  1  0.996485  0.624256  0.233939  1
  O  O389  1  0.768092  -0.000000  0.325218  1
  O  O390  1  0.890909  -0.000000  0.567940  1
  O  O391  1  0.855657  -0.000000  0.240919  1
  O  O392  1  0.993982  0.000000  0.218933  1
  O  O393  1  0.105660  0.094992  0.617432  1
  O  O394  1  0.104790  0.306134  0.618365  1
  O  O395  1  0.105660  0.904990  0.617432  1
  O  O396  1  0.104789  0.693848  0.618366  1
  O  O397  1  0.605660  0.404981  0.617428  1
  O  O398  1  0.604792  0.193842  0.618361  1
  O  O399  1  0.605659  0.594982  0.617429  1
  O  O400  1  0.604791  0.806119  0.618362  1
  Si  Si401  1  0.252460  0.275408  0.510122  1
  Si  Si402  1  0.004540  0.188612  0.497017  1
  Si  Si403  1  0.109277  0.188287  0.480683  1
  Si  Si404  1  0.001416  0.308045  0.545317  1
  Si  Si405  1  0.145454  0.190890  0.227023  1
  Si  Si406  1  0.095726  0.123015  0.582716  1
  Si  Si407  1  0.099140  0.310078  0.188776  1
  Si  Si408  1  0.247631  0.224562  0.249836  1
  Si  Si409  1  0.108412  0.422871  0.479473  1
  Si  Si410  1  0.145033  0.422964  0.230019  1
  Si  Si411  1  0.099180  0.076953  0.186714  1
  Si  Si412  1  0.246975  0.381162  0.250374  1
  Si  Si413  1  0.253116  0.118808  0.509585  1
  Si  Si414  1  0.152048  0.077465  0.525218  1
  Si  Si415  1  0.163010  0.377463  0.350425  1
  Si  Si416  1  0.171261  0.190135  0.421978  1
  Si  Si417  1  0.094764  0.377548  0.290716  1
  Si  Si418  1  0.243036  0.077160  0.438096  1
  Si  Si419  1  0.257057  0.422809  0.321864  1
  Si  Si420  1  0.095564  0.279396  0.583219  1
  Si  Si421  1  0.169403  0.422711  0.420825  1
  Si  Si422  1  0.240491  0.309106  0.438150  1
  Si  Si423  1  0.259600  0.190861  0.321807  1
  Si  Si424  1  0.148952  0.307764  0.522491  1
  Si  Si425  1  0.163279  0.221742  0.350101  1
  Si  Si426  1  0.095925  0.221897  0.289761  1
  Si  Si427  1  0.330690  0.077258  0.339134  1
  Si  Si428  1  0.328831  0.309832  0.337978  1
  Si  Si429  1  0.001586  0.077408  0.548197  1
  Si  Si430  1  0.003767  0.422745  0.495642  1
  Si  Si431  1  0.247635  0.775407  0.249837  1
  Si  Si432  1  0.252457  0.724564  0.510125  1
  Si  Si433  1  0.003766  0.577236  0.495643  1
  Si  Si434  1  0.001583  0.922573  0.548198  1
  Si  Si435  1  0.004536  0.811368  0.497018  1
  Si  Si436  1  0.109273  0.811692  0.480683  1
  Si  Si437  1  0.001412  0.691935  0.545318  1
  Si  Si438  1  0.145460  0.809092  0.227023  1
  Si  Si439  1  0.095723  0.876967  0.582717  1
  Si  Si440  1  0.099144  0.689905  0.188778  1
  Si  Si441  1  0.171258  0.809839  0.421979  1
  Si  Si442  1  0.108410  0.577107  0.479473  1
  Si  Si443  1  0.145035  0.577014  0.230018  1
  Si  Si444  1  0.099184  0.923029  0.186715  1
  Si  Si445  1  0.253113  0.881164  0.509587  1
  Si  Si446  1  0.246978  0.618807  0.250375  1
  Si  Si447  1  0.152046  0.922512  0.525219  1
  Si  Si448  1  0.095560  0.720585  0.583220  1
  Si  Si449  1  0.163011  0.622509  0.350425  1
  Si  Si450  1  0.094767  0.622433  0.290716  1
  Si  Si451  1  0.257058  0.577158  0.321865  1
  Si  Si452  1  0.243035  0.922811  0.438097  1
  Si  Si453  1  0.169401  0.577262  0.420824  1
  Si  Si454  1  0.095931  0.778084  0.289761  1
  Si  Si455  1  0.259606  0.809104  0.321810  1
  Si  Si456  1  0.240487  0.690867  0.438153  1
  Si  Si457  1  0.148947  0.692215  0.522491  1
  Si  Si458  1  0.163283  0.778230  0.350101  1
  Si  Si459  1  0.328834  0.690131  0.337982  1
  Si  Si460  1  0.330693  0.922709  0.339137  1
  Si  Si461  1  0.390814  0.311680  0.279273  1
  Si  Si462  1  0.609277  0.311683  0.480680  1
  Si  Si463  1  0.501417  0.191929  0.545315  1
  Si  Si464  1  0.498675  0.191928  0.214637  1
  Si  Si465  1  0.354637  0.309083  0.532934  1
  Si  Si466  1  0.645454  0.309084  0.227019  1
  Si  Si467  1  0.404361  0.376958  0.177242  1
  Si  Si468  1  0.595728  0.376959  0.582712  1
  Si  Si469  1  0.400952  0.189898  0.571180  1
  Si  Si470  1  0.599141  0.189897  0.188773  1
  Si  Si471  1  0.501585  0.422564  0.548196  1
  Si  Si472  1  0.498504  0.422563  0.211757  1
  Si  Si473  1  0.391679  0.077099  0.280485  1
  Si  Si474  1  0.608411  0.077100  0.479469  1
  Si  Si475  1  0.355059  0.077009  0.529940  1
  Si  Si476  1  0.645033  0.077008  0.230014  1
  Si  Si477  1  0.400911  0.423019  0.573242  1
  Si  Si478  1  0.599178  0.423019  0.186711  1
  Si  Si479  1  0.348042  0.422505  0.234740  1
  Si  Si480  1  0.652050  0.422506  0.525214  1
  Si  Si481  1  0.405328  0.122423  0.469243  1
  Si  Si482  1  0.594762  0.122424  0.290710  1
  Si  Si483  1  0.503768  0.077226  0.495642  1
  Si  Si484  1  0.496322  0.077226  0.264311  1
  Si  Si485  1  0.504540  0.311361  0.497015  1
  Si  Si486  1  0.495551  0.311359  0.262938  1
  Si  Si487  1  0.351138  0.192203  0.237466  1
  Si  Si488  1  0.648952  0.192206  0.522487  1
  Si  Si489  1  0.336812  0.278225  0.409857  1
  Si  Si490  1  0.663277  0.278227  0.350097  1
  Si  Si491  1  0.404166  0.278074  0.470196  1
  Si  Si492  1  0.595925  0.278075  0.289757  1
  Si  Si493  1  0.595567  0.220577  0.583215  1
  Si  Si494  1  0.404524  0.220576  0.176738  1
  Si  Si495  1  0.663006  0.122506  0.350420  1
  Si  Si496  1  0.337083  0.122504  0.409534  1
  Si  Si497  1  0.337083  0.877463  0.409536  1
  Si  Si498  1  0.663008  0.877465  0.350420  1
  Si  Si499  1  0.595564  0.779384  0.583216  1
  Si  Si500  1  0.404528  0.779383  0.176741  1
  Si  Si501  1  0.404161  0.721888  0.470200  1
  Si  Si502  1  0.609273  0.688281  0.480680  1
  Si  Si503  1  0.390819  0.688278  0.279278  1
  Si  Si504  1  0.498679  0.808030  0.214640  1
  Si  Si505  1  0.501414  0.808034  0.545317  1
  Si  Si506  1  0.645460  0.690878  0.227020  1
  Si  Si507  1  0.354632  0.690881  0.532938  1
  Si  Si508  1  0.595725  0.623003  0.582713  1
  Si  Si509  1  0.404365  0.623002  0.177244  1
  Si  Si510  1  0.599144  0.810064  0.188775  1
  Si  Si511  1  0.400948  0.810067  0.571183  1
  Si  Si512  1  0.498508  0.577398  0.211760  1
  Si  Si513  1  0.501583  0.577399  0.548197  1
  Si  Si514  1  0.608409  0.922864  0.479468  1
  Si  Si515  1  0.391683  0.922863  0.280488  1
  Si  Si516  1  0.645035  0.922958  0.230013  1
  Si  Si517  1  0.355057  0.922958  0.529943  1
  Si  Si518  1  0.599181  0.576943  0.186712  1
  Si  Si519  1  0.400909  0.576942  0.573245  1
  Si  Si520  1  0.652047  0.577459  0.525214  1
  Si  Si521  1  0.348044  0.577457  0.234743  1
  Si  Si522  1  0.594766  0.877539  0.290709  1
  Si  Si523  1  0.405326  0.877539  0.469247  1
  Si  Si524  1  0.496324  0.922735  0.264312  1
  Si  Si525  1  0.503767  0.922735  0.495643  1
  Si  Si526  1  0.495556  0.688600  0.262941  1
  Si  Si527  1  0.504536  0.688602  0.497016  1
  Si  Si528  1  0.648948  0.807758  0.522487  1
  Si  Si529  1  0.351145  0.807755  0.237470  1
  Si  Si530  1  0.663281  0.721744  0.350099  1
  Si  Si531  1  0.336809  0.721742  0.409859  1
  Si  Si532  1  0.595931  0.721888  0.289757  1
  Si  Si533  1  0.747631  0.275412  0.249833  1
  Si  Si534  1  0.752460  0.224560  0.510119  1
  Si  Si535  1  0.669401  0.077260  0.420819  1
  Si  Si536  1  0.671261  0.309836  0.421976  1
  Si  Si537  1  0.995551  0.188615  0.262940  1
  Si  Si538  1  0.996324  0.422746  0.264318  1
  Si  Si539  1  0.890813  0.188290  0.279274  1
  Si  Si540  1  0.998675  0.308049  0.214641  1
  Si  Si541  1  0.854637  0.190888  0.532934  1
  Si  Si542  1  0.904367  0.123016  0.177242  1
  Si  Si543  1  0.900950  0.310074  0.571181  1
  Si  Si544  1  0.828829  0.190138  0.337978  1
  Si  Si545  1  0.891679  0.422873  0.280485  1
  Si  Si546  1  0.855058  0.422963  0.529939  1
  Si  Si547  1  0.900912  0.076953  0.573244  1
  Si  Si548  1  0.753116  0.381161  0.509582  1
  Si  Si549  1  0.746975  0.118812  0.250370  1
  Si  Si550  1  0.848042  0.077467  0.234739  1
  Si  Si551  1  0.837083  0.377465  0.409532  1
  Si  Si552  1  0.904528  0.279397  0.176739  1
  Si  Si553  1  0.905328  0.377547  0.469242  1
  Si  Si554  1  0.757055  0.077163  0.321860  1
  Si  Si555  1  0.743035  0.422811  0.438092  1
  Si  Si556  1  0.830687  0.422713  0.339133  1
  Si  Si557  1  0.904166  0.221896  0.470197  1
  Si  Si558  1  0.759600  0.309109  0.321806  1
  Si  Si559  1  0.740490  0.190863  0.438147  1
  Si  Si560  1  0.851139  0.307767  0.237466  1
  Si  Si561  1  0.836813  0.221744  0.409856  1
  Si  Si562  1  0.998506  0.077408  0.211761  1
  Si  Si563  1  0.671258  0.690134  0.421976  1
  Si  Si564  1  0.669399  0.922710  0.420819  1
  Si  Si565  1  0.752458  0.775411  0.510121  1
  Si  Si566  1  0.747634  0.724563  0.249835  1
  Si  Si567  1  0.828833  0.809843  0.337981  1
  Si  Si568  1  0.890819  0.811696  0.279278  1
  Si  Si569  1  0.998679  0.691937  0.214643  1
  Si  Si570  1  0.854632  0.809092  0.532938  1
  Si  Si571  1  0.904370  0.876968  0.177244  1
  Si  Si572  1  0.900946  0.689904  0.571183  1
  Si  Si573  1  0.904531  0.720586  0.176741  1
  Si  Si574  1  0.891682  0.577109  0.280488  1
  Si  Si575  1  0.855056  0.577014  0.529942  1
  Si  Si576  1  0.900910  0.923030  0.573245  1
  Si  Si577  1  0.746978  0.881163  0.250371  1
  Si  Si578  1  0.753113  0.618810  0.509584  1
  Si  Si579  1  0.848045  0.922515  0.234741  1
  Si  Si580  1  0.830690  0.577263  0.339136  1
  Si  Si581  1  0.837082  0.622511  0.409535  1
  Si  Si582  1  0.905325  0.622434  0.469245  1
  Si  Si583  1  0.743034  0.577161  0.438094  1
  Si  Si584  1  0.757056  0.922814  0.321861  1
  Si  Si585  1  0.904161  0.778085  0.470200  1
  Si  Si586  1  0.836811  0.778232  0.409858  1
  Si  Si587  1  0.740487  0.809107  0.438149  1
  Si  Si588  1  0.759605  0.690870  0.321807  1
  Si  Si589  1  0.851145  0.692218  0.237470  1
  Si  Si590  1  0.995556  0.811370  0.262943  1
  Si  Si591  1  0.998510  0.922573  0.211763  1
  Si  Si592  1  0.996326  0.577237  0.264318  1
  H  H593  1  0.394429  0.404978  0.120955  1
  H  H594  1  0.395299  0.193842  0.120021  1
  H  H595  1  0.394432  0.594978  0.120958  1
  H  H596  1  0.395301  0.806122  0.120025  1
  H  H597  1  0.894432  0.094995  0.120956  1
  H  H598  1  0.895300  0.306131  0.120022  1
  H  H599  1  0.894434  0.904992  0.120959  1
  H  H600  1  0.895301  0.693848  0.120025  1
  H  H601  1  0.105660  0.094992  0.129086  1
  H  H602  1  0.104790  0.306134  0.130019  1
  H  H603  1  0.105660  0.904990  0.129087  1
  H  H604  1  0.104789  0.693848  0.130020  1
  H  H605  1  0.394429  0.404978  0.630871  1
  H  H606  1  0.605660  0.404981  0.129082  1
  H  H607  1  0.395299  0.193842  0.629937  1
  H  H608  1  0.604792  0.193842  0.130016  1
  H  H609  1  0.605659  0.594982  0.129083  1
  H  H610  1  0.394432  0.594978  0.630874  1
  H  H611  1  0.604791  0.806119  0.130017  1
  H  H612  1  0.395301  0.806122  0.629940  1
  H  H613  1  0.894432  0.094995  0.630872  1
  H  H614  1  0.895300  0.306131  0.629938  1
  H  H615  1  0.894434  0.904992  0.630874  1
  H  H616  1  0.895301  0.693848  0.629941  1
  H  H617  1  0.105660  0.094992  0.639002  1
  H  H618  1  0.104790  0.306134  0.639935  1
  H  H619  1  0.105660  0.904990  0.639002  1
  H  H620  1  0.104789  0.693848  0.639936  1
  H  H621  1  0.605660  0.404981  0.638998  1
  H  H622  1  0.604792  0.193842  0.639932  1
  H  H623  1  0.605659  0.594982  0.638999  1
  H  H624  1  0.604791  0.806119  0.639932  1
