# generated using pymatgen
data_Si11H2O23
_symmetry_space_group_name_H-M   'P 1'
_cell_length_a   5.06832013
_cell_length_b   22.33998399
_cell_length_c   51.78883715
_cell_angle_alpha   128.16912066
_cell_angle_beta   90.00000000
_cell_angle_gamma   90.00000000
_symmetry_Int_Tables_number   1
_chemical_formula_structural   Si11H2O23
_chemical_formula_sum   'Si44 H8 O92'
_cell_volume   4610.10278673
_cell_formula_units_Z   4
loop_
 _symmetry_equiv_pos_site_id
 _symmetry_equiv_pos_as_xyz
  1  'x, y, z'
loop_
 _atom_site_type_symbol
 _atom_site_label
 _atom_site_symmetry_multiplicity
 _atom_site_fract_x
 _atom_site_fract_y
 _atom_site_fract_z
 _atom_site_occupancy
  O  O1  1  0.998663  0.000000  0.302518  1
  O  O2  1  -0.000000  0.500039  0.302739  1
  O  O3  1  0.001117  0.000000  0.185294  1
  O  O4  1  -0.000000  0.500102  0.185078  1
  O  O5  1  0.498653  0.000000  0.302677  1
  O  O6  1  0.499901  0.500123  0.302466  1
  O  O7  1  0.501115  0.000000  0.185146  1
  O  O8  1  0.499747  0.500019  0.185351  1
  O  O9  1  0.747463  0.925137  0.248935  1
  O  O10  1  0.751952  0.425130  0.248943  1
  O  O11  1  0.747900  0.925126  0.198917  1
  O  O12  1  0.752027  0.425133  0.198929  1
  O  O13  1  0.251787  0.075016  0.288901  1
  O  O14  1  0.247626  0.575009  0.288888  1
  O  O15  1  0.252221  0.075005  0.238883  1
  O  O16  1  0.247699  0.575011  0.238874  1
  O  O17  1  0.752593  0.874857  0.280869  1
  O  O18  1  0.747100  0.374889  0.280894  1
  O  O19  1  0.752109  0.874896  0.140181  1
  O  O20  1  0.747484  0.374860  0.140187  1
  O  O21  1  0.247531  0.125247  0.347637  1
  O  O22  1  0.252161  0.625281  0.347629  1
  O  O23  1  0.247049  0.125285  0.206948  1
  O  O24  1  0.252546  0.625252  0.206923  1
  O  O25  1  0.745811  0.774136  0.291487  1
  O  O26  1  0.753787  0.274147  0.291502  1
  O  O27  1  0.745730  0.774146  0.342441  1
  O  O28  1  0.754005  0.274137  0.342452  1
  O  O29  1  0.253932  0.225995  0.145376  1
  O  O30  1  0.245667  0.726006  0.145366  1
  O  O31  1  0.253853  0.226006  0.196331  1
  O  O32  1  0.245886  0.725996  0.196316  1
  O  O33  1  0.965192  0.744033  0.240989  1
  O  O34  1  0.034467  0.256111  0.246827  1
  O  O35  1  0.964928  0.744106  0.376914  1
  O  O36  1  0.534713  0.244066  0.376915  1
  O  O37  1  0.534473  0.244065  0.241011  1
  O  O38  1  0.465180  0.756074  0.246806  1
  O  O39  1  0.457644  0.683039  0.292679  1
  O  O40  1  0.543665  0.166492  0.288293  1
  O  O41  1  0.043658  0.333649  0.199548  1
  O  O42  1  0.957670  0.817104  0.195144  1
  O  O43  1  0.542008  0.317101  0.195137  1
  O  O44  1  0.456023  0.833648  0.199524  1
  O  O45  1  0.956005  0.666492  0.288269  1
  O  O46  1  0.042023  0.183040  0.292674  1
  O  O47  1  0.998663  0.000000  0.569096  1
  O  O48  1  0.000000  0.500039  0.569317  1
  O  O49  1  0.001117  0.000000  0.451872  1
  O  O50  1  0.000000  0.500102  0.451656  1
  O  O51  1  0.498653  0.000000  0.569256  1
  O  O52  1  0.499901  0.500123  0.569044  1
  O  O53  1  0.501115  0.000000  0.451724  1
  O  O54  1  0.499747  0.500019  0.451929  1
  O  O55  1  0.747463  0.925137  0.515513  1
  O  O56  1  0.751952  0.425130  0.515521  1
  O  O57  1  0.747900  0.925126  0.465495  1
  O  O58  1  0.752027  0.425133  0.465507  1
  O  O59  1  0.251787  0.075016  0.555479  1
  O  O60  1  0.247626  0.575009  0.555467  1
  O  O61  1  0.252221  0.075005  0.505461  1
  O  O62  1  0.247699  0.575011  0.505452  1
  O  O63  1  0.752593  0.874857  0.547448  1
  O  O64  1  0.747100  0.374889  0.547472  1
  O  O65  1  0.752109  0.874896  0.406759  1
  O  O66  1  0.747484  0.374860  0.406766  1
  O  O67  1  0.247531  0.125247  0.614215  1
  O  O68  1  0.252161  0.625281  0.614208  1
  O  O69  1  0.247049  0.125285  0.473526  1
  O  O70  1  0.252546  0.625252  0.473501  1
  O  O71  1  0.745811  0.774136  0.558065  1
  O  O72  1  0.753787  0.274147  0.558081  1
  O  O73  1  0.745730  0.774146  0.609019  1
  O  O74  1  0.754005  0.274137  0.609030  1
  O  O75  1  0.253932  0.225995  0.411954  1
  O  O76  1  0.245667  0.726006  0.411944  1
  O  O77  1  0.253853  0.226006  0.462909  1
  O  O78  1  0.245886  0.725996  0.462894  1
  O  O79  1  0.965192  0.744033  0.507568  1
  O  O80  1  0.034467  0.256111  0.513406  1
  O  O81  1  0.034729  0.256038  0.377483  1
  O  O82  1  0.464936  0.756073  0.377479  1
  O  O83  1  0.534473  0.244065  0.507589  1
  O  O84  1  0.465180  0.756074  0.513385  1
  O  O85  1  0.457644  0.683039  0.559257  1
  O  O86  1  0.543665  0.166492  0.554871  1
  O  O87  1  0.043658  0.333649  0.466126  1
  O  O88  1  0.957670  0.817104  0.461722  1
  O  O89  1  0.542008  0.317101  0.461716  1
  O  O90  1  0.456023  0.833648  0.466102  1
  O  O91  1  0.956005  0.666492  0.554847  1
  O  O92  1  0.042023  0.183040  0.559252  1
  Si  Si93  1  0.749161  0.950033  0.284609  1
  Si  Si94  1  0.749896  0.450047  0.284619  1
  Si  Si95  1  0.750353  0.950046  0.176527  1
  Si  Si96  1  0.749954  0.450033  0.176531  1
  Si  Si97  1  0.249363  0.050096  0.311291  1
  Si  Si98  1  0.249695  0.550110  0.311287  1
  Si  Si99  1  0.250554  0.050110  0.203209  1
  Si  Si100  1  0.249752  0.550096  0.203199  1
  Si  Si101  1  0.732588  0.788765  0.265502  1
  Si  Si102  1  0.767068  0.288794  0.265525  1
  Si  Si103  1  0.732308  0.788797  0.376227  1
  Si  Si104  1  0.767346  0.288766  0.376235  1
  Si  Si105  1  0.267069  0.211376  0.222315  1
  Si  Si106  1  0.232590  0.711346  0.222291  1
  Si  Si107  1  0.727151  0.725993  0.304131  1
  Si  Si108  1  0.772517  0.225992  0.304138  1
  Si  Si109  1  0.272507  0.274147  0.183686  1
  Si  Si110  1  0.227169  0.774147  0.183678  1
  Si  Si111  1  0.727084  0.875737  0.210758  1
  Si  Si112  1  0.772592  0.375738  0.210769  1
  Si  Si113  1  0.272602  0.124402  0.277059  1
  Si  Si114  1  0.227066  0.624403  0.277048  1
  Si  Si115  1  0.749161  0.950033  0.551187  1
  Si  Si116  1  0.749896  0.450047  0.551198  1
  Si  Si117  1  0.750353  0.950046  0.443105  1
  Si  Si118  1  0.749954  0.450033  0.443109  1
  Si  Si119  1  0.249363  0.050096  0.577869  1
  Si  Si120  1  0.249695  0.550110  0.577865  1
  Si  Si121  1  0.250554  0.050110  0.469788  1
  Si  Si122  1  0.249752  0.550096  0.469777  1
  Si  Si123  1  0.732588  0.788765  0.532080  1
  Si  Si124  1  0.767068  0.288794  0.532103  1
  Si  Si125  1  0.267344  0.211344  0.378168  1
  Si  Si126  1  0.232308  0.711374  0.378161  1
  Si  Si127  1  0.267069  0.211376  0.488893  1
  Si  Si128  1  0.232590  0.711346  0.488869  1
  Si  Si129  1  0.727151  0.725993  0.570709  1
  Si  Si130  1  0.772517  0.225992  0.570716  1
  Si  Si131  1  0.272507  0.274147  0.450264  1
  Si  Si132  1  0.227169  0.774147  0.450256  1
  Si  Si133  1  0.727084  0.875737  0.477336  1
  Si  Si134  1  0.772592  0.375738  0.477347  1
  Si  Si135  1  0.272602  0.124402  0.543637  1
  Si  Si136  1  0.227066  0.624403  0.543626  1
  H  H137  1  0.752109  0.874896  0.122802  1
  H  H138  1  0.747484  0.374860  0.122809  1
  H  H139  1  0.253932  0.225995  0.127998  1
  H  H140  1  0.245667  0.726006  0.127987  1
  H  H141  1  0.247531  0.125247  0.631593  1
  H  H142  1  0.252161  0.625281  0.631586  1
  H  H143  1  0.745730  0.774146  0.626398  1
  H  H144  1  0.754005  0.274137  0.626408  1
