# generated using pymatgen
data_Si10H2O21
_symmetry_space_group_name_H-M   'P 1'
_cell_length_a   6.90782100
_cell_length_b   6.31952572
_cell_length_c   35.59748409
_cell_angle_alpha   90.00000000
_cell_angle_beta   90.00000000
_cell_angle_gamma   90.00000000
_symmetry_Int_Tables_number   1
_chemical_formula_structural   Si10H2O21
_chemical_formula_sum   'Si10 H2 O21'
_cell_volume   1553.97799832
_cell_formula_units_Z   1
loop_
 _symmetry_equiv_pos_site_id
 _symmetry_equiv_pos_as_xyz
  1  'x, y, z'
loop_
 _atom_site_type_symbol
 _atom_site_label
 _atom_site_symmetry_multiplicity
 _atom_site_fract_x
 _atom_site_fract_y
 _atom_site_fract_z
 _atom_site_occupancy
  O  O1  1  0.002979  0.505324  0.165742  1
  O  O2  1  0.002979  0.505324  0.553339  1
  O  O3  1  0.996715  0.494146  0.359541  1
  O  O4  1  0.180631  0.385206  0.227609  1
  O  O5  1  0.180472  0.385369  0.297696  1
  O  O6  1  0.819441  0.384916  0.227306  1
  O  O7  1  0.818781  0.385691  0.297390  1
  O  O8  1  0.819226  0.614098  0.491494  1
  O  O9  1  0.819058  0.614266  0.421408  1
  O  O10  1  0.180909  0.613776  0.491189  1
  O  O11  1  0.180258  0.614557  0.421105  1
  O  O12  1  -0.000000  0.733802  0.227408  1
  O  O13  1  -0.000000  0.733886  0.298486  1
  O  O14  1  -0.000000  0.265589  0.492285  1
  O  O15  1  0.000000  0.265661  0.421207  1
  O  O16  1  0.499827  0.274402  0.262490  1
  O  O17  1  0.499868  0.725068  0.456288  1
  O  O18  1  0.183559  0.036887  0.262811  1
  O  O19  1  0.816098  0.036896  0.262684  1
  O  O20  1  0.816136  0.962582  0.456609  1
  O  O21  1  0.183596  0.962572  0.456482  1
  Si  Si22  1  0.000000  0.504165  0.209610  1
  Si  Si23  1  0.000000  0.502653  0.315725  1
  Si  Si24  1  -0.000000  0.496816  0.509524  1
  Si  Si25  1  -0.000000  0.495304  0.403410  1
  Si  Si26  1  0.273678  0.267378  0.262669  1
  Si  Si27  1  0.725986  0.267385  0.262403  1
  Si  Si28  1  0.726015  0.732091  0.456468  1
  Si  Si29  1  0.273705  0.732085  0.456202  1
  Si  Si30  1  0.000000  0.885696  0.262902  1
  Si  Si31  1  -0.000000  0.113781  0.456701  1
  H  H32  1  0.002979  0.505324  0.140459  1
  H  H33  1  0.002979  0.505324  0.578622  1
