# generated using pymatgen
data_Si12H2O25
_symmetry_space_group_name_H-M   'P 1'
_cell_length_a   28.25841819
_cell_length_b   19.89838588
_cell_length_c   41.76018288
_cell_angle_alpha   90.00000000
_cell_angle_beta   93.20000000
_cell_angle_gamma   90.00000000
_symmetry_Int_Tables_number   1
_chemical_formula_structural   Si12H2O25
_chemical_formula_sum   'Si192 H32 O400'
_cell_volume   23445.0083898
_cell_formula_units_Z   16
loop_
 _symmetry_equiv_pos_site_id
 _symmetry_equiv_pos_as_xyz
  1  'x, y, z'
loop_
 _atom_site_type_symbol
 _atom_site_label
 _atom_site_symmetry_multiplicity
 _atom_site_fract_x
 _atom_site_fract_y
 _atom_site_fract_z
 _atom_site_occupancy
  O  O1  1  0.044955  0.100020  0.337334  1
  O  O2  1  0.096629  0.201108  0.351011  1
  O  O3  1  0.131468  0.097299  0.324860  1
  O  O4  1  0.131779  0.193034  0.213931  1
  O  O5  1  0.126795  0.249673  0.268206  1
  O  O6  1  0.126913  0.122945  0.265486  1
  O  O7  1  0.053286  0.189429  0.247027  1
  O  O8  1  0.206445  0.094316  0.291403  1
  O  O9  1  0.129929  0.302526  0.323855  1
  O  O10  1  0.044688  0.300722  0.336930  1
  O  O11  1  0.299423  0.300280  0.294980  1
  O  O12  1  0.204138  0.297602  0.290314  1
  O  O13  1  0.252839  0.301436  0.241664  1
  O  O14  1  0.253793  0.197076  0.274932  1
  O  O15  1  0.005343  0.248796  0.287909  1
  O  O16  1  0.181881  0.499987  0.188560  1
  O  O17  1  0.130136  0.410284  0.212665  1
  O  O18  1  0.052950  0.411157  0.246820  1
  O  O19  1  0.133682  0.375243  0.272050  1
  O  O20  1  0.300766  0.094495  0.293565  1
  O  O21  1  0.253109  0.093001  0.241198  1
  O  O22  1  0.331104  0.200275  0.175290  1
  O  O23  1  0.289000  0.093368  0.187225  1
  O  O24  1  0.153544  0.403152  0.152084  1
  O  O25  1  0.201074  0.123961  0.193173  1
  O  O26  1  0.212786  0.376376  0.197957  1
  O  O27  1  0.287311  0.304679  0.186677  1
  O  O28  1  0.206728  0.249348  0.195695  1
  O  O29  1  0.154271  0.197878  0.152320  1
  O  O30  1  0.003607  0.375726  0.292812  1
  O  O31  1  -0.000000  0.122692  0.284223  1
  O  O32  1  -0.000000  0.499990  0.270813  1
  O  O33  1  0.116561  0.499989  0.254116  1
  O  O34  1  0.044951  0.899961  0.337336  1
  O  O35  1  0.096628  0.798874  0.351012  1
  O  O36  1  0.131465  0.902681  0.324860  1
  O  O37  1  0.131775  0.806944  0.213931  1
  O  O38  1  0.126791  0.750307  0.268206  1
  O  O39  1  0.126909  0.877033  0.265486  1
  O  O40  1  0.053281  0.810550  0.247027  1
  O  O41  1  0.206442  0.905657  0.291404  1
  O  O42  1  0.144433  -0.000000  0.285836  1
  O  O43  1  0.129923  0.697453  0.323855  1
  O  O44  1  0.044683  0.699261  0.336933  1
  O  O45  1  0.299418  0.699687  0.294984  1
  O  O46  1  0.204133  0.702377  0.290316  1
  O  O47  1  0.252836  0.698536  0.241666  1
  O  O48  1  0.253793  0.802896  0.274934  1
  O  O49  1  0.005340  0.751185  0.287911  1
  O  O50  1  0.130134  0.589691  0.212664  1
  O  O51  1  0.052949  0.588822  0.246820  1
  O  O52  1  0.133679  0.624737  0.272050  1
  O  O53  1  0.300763  0.905477  0.293567  1
  O  O54  1  0.253108  0.906971  0.241200  1
  O  O55  1  0.331105  0.799692  0.175292  1
  O  O56  1  0.288999  0.906600  0.187228  1
  O  O57  1  0.153543  0.596820  0.152083  1
  O  O58  1  0.201073  0.876012  0.193174  1
  O  O59  1  0.231998  0.000000  0.201607  1
  O  O60  1  0.212783  0.623597  0.197958  1
  O  O61  1  0.287307  0.695295  0.186679  1
  O  O62  1  0.206723  0.750625  0.195698  1
  O  O63  1  0.154272  0.802095  0.152320  1
  O  O64  1  0.003607  0.624254  0.292813  1
  O  O65  1  -0.000000  0.877289  0.284224  1
  O  O66  1  0.006111  0.000000  0.307804  1
  O  O67  1  0.544955  0.399948  0.337332  1
  O  O68  1  0.596638  0.298866  0.351006  1
  O  O69  1  0.631467  0.402680  0.324856  1
  O  O70  1  0.394429  0.404978  0.376020  1
  O  O71  1  0.631779  0.306935  0.213928  1
  O  O72  1  0.626794  0.250298  0.268203  1
  O  O73  1  0.626913  0.377025  0.265482  1
  O  O74  1  0.553285  0.310543  0.247024  1
  O  O75  1  0.454224  0.411185  0.332286  1
  O  O76  1  0.370088  0.376171  0.316953  1
  O  O77  1  0.629929  0.197441  0.323851  1
  O  O78  1  0.395299  0.193842  0.375087  1
  O  O79  1  0.544689  0.199256  0.336929  1
  O  O80  1  0.453854  0.197474  0.329290  1
  O  O81  1  0.505343  0.251178  0.287908  1
  O  O82  1  0.503610  0.124247  0.292811  1
  O  O83  1  0.374267  0.249812  0.320989  1
  O  O84  1  0.376585  0.304390  0.266142  1
  O  O85  1  0.380817  0.123662  0.322312  1
  O  O86  1  0.500944  0.377282  0.284221  1
  O  O87  1  0.630134  0.089687  0.212660  1
  O  O88  1  0.552950  0.088815  0.246817  1
  O  O89  1  0.633683  0.124728  0.272045  1
  O  O90  1  0.376203  0.092680  0.263622  1
  O  O91  1  0.346549  0.096817  0.141708  1
  O  O92  1  0.653541  0.096818  0.152078  1
  O  O93  1  0.377642  0.107298  0.202986  1
  O  O94  1  0.458111  0.096904  0.240809  1
  O  O95  1  0.405055  0.200077  0.240913  1
  O  O96  1  0.457357  0.302557  0.242001  1
  O  O97  1  0.345821  0.302087  0.141470  1
  O  O98  1  0.654270  0.302091  0.152317  1
  O  O99  1  0.376382  0.293464  0.203971  1
  O  O100  1  0.390909  0.499981  0.334694  1
  O  O101  1  0.644437  0.499982  0.285829  1
  O  O102  1  0.506112  0.499982  0.307804  1
  O  O103  1  0.544951  0.600016  0.337334  1
  O  O104  1  0.596639  0.701096  0.351006  1
  O  O105  1  0.631464  0.597280  0.324857  1
  O  O106  1  0.394432  0.594978  0.376023  1
  O  O107  1  0.631775  0.693030  0.213928  1
  O  O108  1  0.626790  0.749666  0.268204  1
  O  O109  1  0.626909  0.622939  0.265482  1
  O  O110  1  0.553281  0.689421  0.247025  1
  O  O111  1  0.454221  0.588779  0.332286  1
  O  O112  1  0.370084  0.623794  0.316958  1
  O  O113  1  0.629923  0.802526  0.323851  1
  O  O114  1  0.395301  0.806122  0.375090  1
  O  O115  1  0.544684  0.800701  0.336931  1
  O  O116  1  0.453850  0.802491  0.329290  1
  O  O117  1  0.505339  0.748786  0.287909  1
  O  O118  1  0.503610  0.875716  0.292813  1
  O  O119  1  0.374262  0.750153  0.320994  1
  O  O120  1  0.376581  0.695573  0.266148  1
  O  O121  1  0.380812  0.876304  0.322316  1
  O  O122  1  0.500943  0.622682  0.284222  1
  O  O123  1  0.630131  0.910281  0.212659  1
  O  O124  1  0.552949  0.911148  0.246818  1
  O  O125  1  0.633681  0.875235  0.272044  1
  O  O126  1  0.616561  0.000000  0.254112  1
  O  O127  1  0.376201  0.907283  0.263625  1
  O  O128  1  0.361905  -0.000000  0.303287  1
  O  O129  1  0.653541  0.903154  0.152078  1
  O  O130  1  0.346551  0.903153  0.141712  1
  O  O131  1  0.377641  0.892667  0.202990  1
  O  O132  1  0.458110  0.903056  0.240812  1
  O  O133  1  0.405051  0.799885  0.240917  1
  O  O134  1  0.500131  0.000000  0.270814  1
  O  O135  1  0.457352  0.697405  0.242004  1
  O  O136  1  0.654271  0.697880  0.152317  1
  O  O137  1  0.345820  0.697876  0.141474  1
  O  O138  1  0.376376  0.706499  0.203975  1
  O  O139  1  0.894432  0.094995  0.376021  1
  O  O140  1  0.954225  0.088786  0.332288  1
  O  O141  1  0.870087  0.123800  0.316955  1
  O  O142  1  0.706446  0.405650  0.291400  1
  O  O143  1  0.895300  0.306131  0.375088  1
  O  O144  1  0.799423  0.199689  0.294978  1
  O  O145  1  0.704138  0.202371  0.290311  1
  O  O146  1  0.752838  0.198529  0.241661  1
  O  O147  1  0.753796  0.302893  0.274927  1
  O  O148  1  0.953852  0.302498  0.329290  1
  O  O149  1  0.874265  0.250160  0.320990  1
  O  O150  1  0.876587  0.195580  0.266143  1
  O  O151  1  0.880815  0.376310  0.322312  1
  O  O152  1  0.876204  0.407293  0.263621  1
  O  O153  1  0.800766  0.405475  0.293562  1
  O  O154  1  0.753109  0.406970  0.241195  1
  O  O155  1  0.831105  0.299694  0.175289  1
  O  O156  1  0.789000  0.406602  0.187224  1
  O  O157  1  0.846548  0.403153  0.141707  1
  O  O158  1  0.877642  0.392673  0.202985  1
  O  O159  1  0.958111  0.403065  0.240808  1
  O  O160  1  0.905053  0.299894  0.240913  1
  O  O161  1  0.701074  0.376011  0.193169  1
  O  O162  1  0.957358  0.197417  0.242003  1
  O  O163  1  0.712784  0.123595  0.197951  1
  O  O164  1  0.787312  0.195291  0.186676  1
  O  O165  1  0.706729  0.250624  0.195692  1
  O  O166  1  0.845820  0.197881  0.141470  1
  O  O167  1  0.876382  0.206505  0.203971  1
  O  O168  1  0.731998  0.499986  0.201604  1
  O  O169  1  0.861904  0.499988  0.303286  1
  O  O170  1  0.894434  0.904992  0.376023  1
  O  O171  1  0.954221  0.911193  0.332286  1
  O  O172  1  0.870084  0.876179  0.316958  1
  O  O173  1  0.706442  0.594320  0.291400  1
  O  O174  1  0.895301  0.693848  0.375091  1
  O  O175  1  0.799418  0.800288  0.294982  1
  O  O176  1  0.704133  0.797594  0.290313  1
  O  O177  1  0.752834  0.801442  0.241663  1
  O  O178  1  0.753795  0.697078  0.274929  1
  O  O179  1  0.953848  0.697480  0.329290  1
  O  O180  1  0.874260  0.749819  0.320994  1
  O  O181  1  0.876582  0.804400  0.266148  1
  O  O182  1  0.880810  0.623668  0.322316  1
  O  O183  1  0.876202  0.592688  0.263624  1
  O  O184  1  0.800763  0.594496  0.293564  1
  O  O185  1  0.753107  0.593001  0.241197  1
  O  O186  1  0.831105  0.700282  0.175290  1
  O  O187  1  0.788999  0.593375  0.187226  1
  O  O188  1  0.846549  0.596820  0.141710  1
  O  O189  1  0.877640  0.607306  0.202989  1
  O  O190  1  0.958109  0.596917  0.240811  1
  O  O191  1  0.905050  0.700087  0.240916  1
  O  O192  1  0.701072  0.623960  0.193171  1
  O  O193  1  0.957353  0.802565  0.242005  1
  O  O194  1  0.712781  0.876375  0.197952  1
  O  O195  1  0.787307  0.804679  0.186678  1
  O  O196  1  0.706725  0.749346  0.195696  1
  O  O197  1  0.845820  0.802099  0.141473  1
  O  O198  1  0.876377  0.793474  0.203975  1
  O  O199  1  0.681879  0.000000  0.188555  1
  O  O200  1  0.890909  -0.000000  0.334695  1
  O  O201  1  0.105660  0.094992  0.384144  1
  O  O202  1  0.045867  0.088786  0.427877  1
  O  O203  1  0.130005  0.123802  0.443209  1
  O  O204  1  0.293645  0.405652  0.468763  1
  O  O205  1  0.104790  0.306134  0.385076  1
  O  O206  1  0.200668  0.199694  0.465184  1
  O  O207  1  0.295953  0.202370  0.469849  1
  O  O208  1  0.247253  0.198528  0.518500  1
  O  O209  1  0.246298  0.302894  0.485236  1
  O  O210  1  0.046238  0.302503  0.430874  1
  O  O211  1  0.125824  0.250162  0.439174  1
  O  O212  1  0.123505  0.195582  0.494020  1
  O  O213  1  0.119276  0.376312  0.437852  1
  O  O214  1  0.123888  0.407292  0.496544  1
  O  O215  1  0.138187  0.499989  0.456880  1
  O  O216  1  0.199325  0.405476  0.466602  1
  O  O217  1  0.246982  0.406971  0.518968  1
  O  O218  1  0.168987  0.299692  0.584875  1
  O  O219  1  0.211093  0.406598  0.572941  1
  O  O220  1  0.153544  0.403152  0.618458  1
  O  O221  1  0.122451  0.392672  0.557180  1
  O  O222  1  0.041980  0.403066  0.519358  1
  O  O223  1  0.095038  0.299895  0.519252  1
  O  O224  1  0.299019  0.376008  0.566992  1
  O  O225  1  0.268094  0.499983  0.558561  1
  O  O226  1  0.042733  0.197418  0.518161  1
  O  O227  1  0.287307  0.123592  0.562209  1
  O  O228  1  0.212780  0.195289  0.573486  1
  O  O229  1  0.293362  0.250621  0.564468  1
  O  O230  1  0.154271  0.197878  0.618694  1
  O  O231  1  0.123709  0.206504  0.556192  1
  O  O232  1  0.105660  0.904990  0.384144  1
  O  O233  1  0.045872  0.911194  0.427880  1
  O  O234  1  0.109184  0.000000  0.425471  1
  O  O235  1  0.130010  0.876180  0.443209  1
  O  O236  1  0.293649  0.594316  0.468765  1
  O  O237  1  0.104789  0.693848  0.385077  1
  O  O238  1  0.200674  0.800285  0.465185  1
  O  O239  1  0.295959  0.797591  0.469852  1
  O  O240  1  0.247258  0.801438  0.518502  1
  O  O241  1  0.246298  0.697075  0.485236  1
  O  O242  1  0.046243  0.697482  0.430877  1
  O  O243  1  0.125830  0.749820  0.439174  1
  O  O244  1  0.123510  0.804400  0.494020  1
  O  O245  1  0.119280  0.623669  0.437852  1
  O  O246  1  0.123890  0.592688  0.496543  1
  O  O247  1  0.199328  0.594495  0.466602  1
  O  O248  1  0.246984  0.592999  0.518969  1
  O  O249  1  0.168989  0.700280  0.584876  1
  O  O250  1  0.211094  0.593371  0.572941  1
  O  O251  1  0.153543  0.596820  0.618457  1
  O  O252  1  0.122452  0.607305  0.557179  1
  O  O253  1  0.041983  0.596917  0.519357  1
  O  O254  1  0.095042  0.700087  0.519251  1
  O  O255  1  0.299020  0.623957  0.566994  1
  O  O256  1  0.042739  0.802565  0.518163  1
  O  O257  1  0.287312  0.876372  0.562212  1
  O  O258  1  0.212786  0.804678  0.573489  1
  O  O259  1  0.293368  0.749343  0.564470  1
  O  O260  1  0.154272  0.802095  0.618694  1
  O  O261  1  0.123716  0.793473  0.556192  1
  O  O262  1  0.318213  0.000000  0.571607  1
  O  O263  1  0.455135  0.399948  0.422828  1
  O  O264  1  0.403451  0.298865  0.409155  1
  O  O265  1  0.368622  0.402681  0.435304  1
  O  O266  1  0.605660  0.404981  0.384140  1
  O  O267  1  0.368312  0.306931  0.546233  1
  O  O268  1  0.373297  0.250295  0.491956  1
  O  O269  1  0.373178  0.377022  0.494678  1
  O  O270  1  0.446806  0.310540  0.513135  1
  O  O271  1  0.545865  0.411185  0.427873  1
  O  O272  1  0.630002  0.376171  0.443206  1
  O  O273  1  0.355656  0.499981  0.474333  1
  O  O274  1  0.370162  0.197437  0.436309  1
  O  O275  1  0.604792  0.193842  0.385073  1
  O  O276  1  0.455403  0.199257  0.423231  1
  O  O277  1  0.546238  0.197473  0.430870  1
  O  O278  1  0.494749  0.251176  0.472253  1
  O  O279  1  0.496481  0.124245  0.467348  1
  O  O280  1  0.625826  0.249811  0.439171  1
  O  O281  1  0.623505  0.304391  0.494017  1
  O  O282  1  0.619276  0.123661  0.437848  1
  O  O283  1  0.499145  0.377280  0.475938  1
  O  O284  1  0.369957  0.089686  0.547501  1
  O  O285  1  0.447140  0.088815  0.513343  1
  O  O286  1  0.366406  0.124725  0.488115  1
  O  O287  1  0.623887  0.092680  0.496539  1
  O  O288  1  0.346549  0.096817  0.608082  1
  O  O289  1  0.653541  0.096818  0.618452  1
  O  O290  1  0.622447  0.107299  0.557174  1
  O  O291  1  0.541979  0.096906  0.519350  1
  O  O292  1  0.595036  0.200078  0.519247  1
  O  O293  1  0.542734  0.302557  0.518158  1
  O  O294  1  0.345821  0.302087  0.607844  1
  O  O295  1  0.654270  0.302091  0.618691  1
  O  O296  1  0.623708  0.293467  0.556189  1
  O  O297  1  0.609181  0.499981  0.425468  1
  O  O298  1  0.493978  0.499981  0.452357  1
  O  O299  1  0.455139  0.600016  0.422830  1
  O  O300  1  0.403452  0.701095  0.409156  1
  O  O301  1  0.368626  0.597282  0.435307  1
  O  O302  1  0.605659  0.594982  0.384141  1
  O  O303  1  0.368318  0.693027  0.546237  1
  O  O304  1  0.373302  0.749663  0.491961  1
  O  O305  1  0.373183  0.622936  0.494682  1
  O  O306  1  0.446811  0.689418  0.513140  1
  O  O307  1  0.545870  0.588779  0.427877  1
  O  O308  1  0.630006  0.623791  0.443207  1
  O  O309  1  0.370169  0.802522  0.436313  1
  O  O310  1  0.604791  0.806119  0.385074  1
  O  O311  1  0.455408  0.800698  0.423233  1
  O  O312  1  0.546243  0.802486  0.430874  1
  O  O313  1  0.494752  0.748783  0.472255  1
  O  O314  1  0.496482  0.875714  0.467349  1
  O  O315  1  0.625831  0.750150  0.439171  1
  O  O316  1  0.623510  0.695571  0.494017  1
  O  O317  1  0.619280  0.876301  0.437847  1
  O  O318  1  0.499148  0.622679  0.475942  1
  O  O319  1  0.369961  0.910280  0.547504  1
  O  O320  1  0.447144  0.911148  0.513345  1
  O  O321  1  0.366411  0.875232  0.488120  1
  O  O322  1  0.383531  -0.000000  0.506050  1
  O  O323  1  0.623890  0.907283  0.496538  1
  O  O324  1  0.638187  0.000000  0.456875  1
  O  O325  1  0.653541  0.903154  0.618452  1
  O  O326  1  0.346551  0.903153  0.608086  1
  O  O327  1  0.622450  0.892668  0.557173  1
  O  O328  1  0.541982  0.903057  0.519350  1
  O  O329  1  0.595040  0.799885  0.519247  1
  O  O330  1  0.499960  -0.000000  0.489347  1
  O  O331  1  0.542740  0.697404  0.518160  1
  O  O332  1  0.654271  0.697880  0.618691  1
  O  O333  1  0.345820  0.697876  0.607848  1
  O  O334  1  0.623715  0.706500  0.556189  1
  O  O335  1  0.955137  0.100018  0.422830  1
  O  O336  1  0.903465  0.201108  0.409155  1
  O  O337  1  0.868624  0.097300  0.435304  1
  O  O338  1  0.868311  0.193037  0.546233  1
  O  O339  1  0.873296  0.249676  0.491958  1
  O  O340  1  0.873178  0.122949  0.494678  1
  O  O341  1  0.946805  0.189432  0.513137  1
  O  O342  1  0.793646  0.094321  0.468760  1
  O  O343  1  0.870162  0.302527  0.436309  1
  O  O344  1  0.955403  0.300728  0.423234  1
  O  O345  1  0.700668  0.300284  0.465181  1
  O  O346  1  0.795954  0.297604  0.469849  1
  O  O347  1  0.747252  0.301441  0.518499  1
  O  O348  1  0.746296  0.197080  0.485230  1
  O  O349  1  0.994748  0.248798  0.472254  1
  O  O350  1  0.869954  0.410286  0.547500  1
  O  O351  1  0.947140  0.411158  0.513346  1
  O  O352  1  0.866409  0.375246  0.488114  1
  O  O353  1  0.699325  0.094496  0.466597  1
  O  O354  1  0.746982  0.093004  0.518964  1
  O  O355  1  0.668984  0.200277  0.584871  1
  O  O356  1  0.711090  0.093371  0.572935  1
  O  O357  1  0.846548  0.403153  0.608081  1
  O  O358  1  0.799016  0.123964  0.566990  1
  O  O359  1  0.818210  0.499989  0.571607  1
  O  O360  1  0.787305  0.376379  0.562208  1
  O  O361  1  0.712779  0.304680  0.573484  1
  O  O362  1  0.793363  0.249351  0.564468  1
  O  O363  1  0.845820  0.197881  0.607844  1
  O  O364  1  0.996484  0.375729  0.467354  1
  O  O365  1  -0.000000  0.122694  0.475941  1
  O  O366  1  0.883531  0.499992  0.506049  1
  O  O367  1  0.000000  0.499992  0.489355  1
  O  O368  1  0.955142  0.899959  0.422832  1
  O  O369  1  0.903464  0.798875  0.409155  1
  O  O370  1  0.868629  0.902684  0.435307  1
  O  O371  1  0.868316  0.806948  0.546236  1
  O  O372  1  0.873301  0.750311  0.491961  1
  O  O373  1  0.873182  0.877037  0.494681  1
  O  O374  1  0.946810  0.810553  0.513141  1
  O  O375  1  0.793650  0.905655  0.468762  1
  O  O376  1  0.870168  0.697455  0.436312  1
  O  O377  1  0.955408  0.699263  0.423235  1
  O  O378  1  0.700674  0.699682  0.465182  1
  O  O379  1  0.795959  0.702378  0.469851  1
  O  O380  1  0.747257  0.698537  0.518501  1
  O  O381  1  0.746297  0.802896  0.485231  1
  O  O382  1  0.994751  0.751187  0.472257  1
  O  O383  1  0.869958  0.589692  0.547503  1
  O  O384  1  0.947143  0.588824  0.513348  1
  O  O385  1  0.866413  0.624740  0.488118  1
  O  O386  1  0.000000  0.877290  0.475944  1
  O  O387  1  0.699329  0.905478  0.466597  1
  O  O388  1  0.746984  0.906970  0.518965  1
  O  O389  1  0.668987  0.799694  0.584872  1
  O  O390  1  0.711091  0.906603  0.572936  1
  O  O391  1  0.846549  0.596820  0.608084  1
  O  O392  1  0.799018  0.876016  0.566992  1
  O  O393  1  0.787310  0.623600  0.562210  1
  O  O394  1  0.712785  0.695296  0.573487  1
  O  O395  1  0.793368  0.750629  0.564469  1
  O  O396  1  0.845820  0.802099  0.607847  1
  O  O397  1  0.996485  0.624256  0.467355  1
  O  O398  1  0.768092  0.000000  0.558556  1
  O  O399  1  0.855657  0.000000  0.474329  1
  O  O400  1  0.993982  0.000000  0.452362  1
  Si  Si401  1  0.252460  0.275408  0.276927  1
  Si  Si402  1  0.004540  0.188612  0.263833  1
  Si  Si403  1  0.109277  0.188287  0.247513  1
  Si  Si404  1  0.001416  0.308045  0.312091  1
  Si  Si405  1  0.095726  0.123015  0.349458  1
  Si  Si406  1  0.108412  0.422871  0.246304  1
  Si  Si407  1  0.253116  0.118808  0.276390  1
  Si  Si408  1  0.152048  0.077465  0.292010  1
  Si  Si409  1  0.171261  0.190135  0.188859  1
  Si  Si410  1  0.243036  0.077160  0.204962  1
  Si  Si411  1  0.095564  0.279396  0.349961  1
  Si  Si412  1  0.169403  0.422711  0.187706  1
  Si  Si413  1  0.240491  0.309106  0.205016  1
  Si  Si414  1  0.148952  0.307764  0.289285  1
  Si  Si415  1  0.001586  0.077408  0.314969  1
  Si  Si416  1  0.003767  0.422745  0.262459  1
  Si  Si417  1  0.252457  0.724564  0.276930  1
  Si  Si418  1  0.003766  0.577236  0.262460  1
  Si  Si419  1  0.001583  0.922573  0.314970  1
  Si  Si420  1  0.004536  0.811368  0.263834  1
  Si  Si421  1  0.109273  0.811692  0.247513  1
  Si  Si422  1  0.001412  0.691935  0.312092  1
  Si  Si423  1  0.095723  0.876967  0.349459  1
  Si  Si424  1  0.171258  0.809839  0.188860  1
  Si  Si425  1  0.108410  0.577107  0.246304  1
  Si  Si426  1  0.253113  0.881164  0.276392  1
  Si  Si427  1  0.152046  0.922512  0.292010  1
  Si  Si428  1  0.095560  0.720585  0.349961  1
  Si  Si429  1  0.243035  0.922811  0.204963  1
  Si  Si430  1  0.169401  0.577262  0.187706  1
  Si  Si431  1  0.240487  0.690867  0.205019  1
  Si  Si432  1  0.148947  0.692215  0.289285  1
  Si  Si433  1  0.609277  0.311683  0.247510  1
  Si  Si434  1  0.501417  0.191929  0.312090  1
  Si  Si435  1  0.354637  0.309083  0.299719  1
  Si  Si436  1  0.595728  0.376959  0.349454  1
  Si  Si437  1  0.400952  0.189898  0.337932  1
  Si  Si438  1  0.501585  0.422564  0.314968  1
  Si  Si439  1  0.608411  0.077100  0.246300  1
  Si  Si440  1  0.355059  0.077009  0.296728  1
  Si  Si441  1  0.400911  0.423019  0.339993  1
  Si  Si442  1  0.652050  0.422506  0.292006  1
  Si  Si443  1  0.405328  0.122423  0.236083  1
  Si  Si444  1  0.503768  0.077226  0.262458  1
  Si  Si445  1  0.504540  0.311361  0.263831  1
  Si  Si446  1  0.648952  0.192206  0.289281  1
  Si  Si447  1  0.336812  0.278225  0.176747  1
  Si  Si448  1  0.404166  0.278074  0.237035  1
  Si  Si449  1  0.595567  0.220577  0.349957  1
  Si  Si450  1  0.337083  0.122504  0.176425  1
  Si  Si451  1  0.337083  0.877463  0.176427  1
  Si  Si452  1  0.595564  0.779384  0.349958  1
  Si  Si453  1  0.404161  0.721888  0.237039  1
  Si  Si454  1  0.609273  0.688281  0.247510  1
  Si  Si455  1  0.501414  0.808034  0.312091  1
  Si  Si456  1  0.354632  0.690881  0.299723  1
  Si  Si457  1  0.595725  0.623003  0.349455  1
  Si  Si458  1  0.400948  0.810067  0.337935  1
  Si  Si459  1  0.501583  0.577399  0.314969  1
  Si  Si460  1  0.608409  0.922864  0.246299  1
  Si  Si461  1  0.355057  0.922958  0.296730  1
  Si  Si462  1  0.400909  0.576942  0.339995  1
  Si  Si463  1  0.652047  0.577459  0.292006  1
  Si  Si464  1  0.405326  0.877539  0.236086  1
  Si  Si465  1  0.503767  0.922735  0.262460  1
  Si  Si466  1  0.504536  0.688602  0.263832  1
  Si  Si467  1  0.648948  0.807758  0.289281  1
  Si  Si468  1  0.336809  0.721742  0.176750  1
  Si  Si469  1  0.752460  0.224560  0.276924  1
  Si  Si470  1  0.669401  0.077260  0.187701  1
  Si  Si471  1  0.671261  0.309836  0.188856  1
  Si  Si472  1  0.854637  0.190888  0.299719  1
  Si  Si473  1  0.900950  0.310074  0.337933  1
  Si  Si474  1  0.855058  0.422963  0.296726  1
  Si  Si475  1  0.900912  0.076953  0.339994  1
  Si  Si476  1  0.753116  0.381161  0.276387  1
  Si  Si477  1  0.837083  0.377465  0.176423  1
  Si  Si478  1  0.905328  0.377547  0.236082  1
  Si  Si479  1  0.743035  0.422811  0.204959  1
  Si  Si480  1  0.904166  0.221896  0.237036  1
  Si  Si481  1  0.740490  0.190863  0.205013  1
  Si  Si482  1  0.836813  0.221744  0.176747  1
  Si  Si483  1  0.671258  0.690134  0.188857  1
  Si  Si484  1  0.669399  0.922710  0.187701  1
  Si  Si485  1  0.752458  0.775411  0.276926  1
  Si  Si486  1  0.854632  0.809092  0.299723  1
  Si  Si487  1  0.900946  0.689904  0.337935  1
  Si  Si488  1  0.855056  0.577014  0.296730  1
  Si  Si489  1  0.900910  0.923030  0.339995  1
  Si  Si490  1  0.753113  0.618810  0.276389  1
  Si  Si491  1  0.837082  0.622511  0.176426  1
  Si  Si492  1  0.905325  0.622434  0.236085  1
  Si  Si493  1  0.743034  0.577161  0.204960  1
  Si  Si494  1  0.904161  0.778085  0.237039  1
  Si  Si495  1  0.836811  0.778232  0.176749  1
  Si  Si496  1  0.740487  0.809107  0.205016  1
  Si  Si497  1  0.145454  0.190890  0.460445  1
  Si  Si498  1  0.099140  0.310078  0.422231  1
  Si  Si499  1  0.247631  0.224562  0.483238  1
  Si  Si500  1  0.145033  0.422964  0.463439  1
  Si  Si501  1  0.099180  0.076953  0.420171  1
  Si  Si502  1  0.246975  0.381162  0.483776  1
  Si  Si503  1  0.163010  0.377463  0.583741  1
  Si  Si504  1  0.094764  0.377548  0.524084  1
  Si  Si505  1  0.257057  0.422809  0.555205  1
  Si  Si506  1  0.259600  0.190861  0.555148  1
  Si  Si507  1  0.163279  0.221742  0.583417  1
  Si  Si508  1  0.095925  0.221897  0.523128  1
  Si  Si509  1  0.330690  0.077258  0.572460  1
  Si  Si510  1  0.328831  0.309832  0.571305  1
  Si  Si511  1  0.247635  0.775407  0.483239  1
  Si  Si512  1  0.145460  0.809092  0.460445  1
  Si  Si513  1  0.099144  0.689905  0.422233  1
  Si  Si514  1  0.145035  0.577014  0.463438  1
  Si  Si515  1  0.099184  0.923029  0.420172  1
  Si  Si516  1  0.246978  0.618807  0.483777  1
  Si  Si517  1  0.163011  0.622509  0.583741  1
  Si  Si518  1  0.094767  0.622433  0.524083  1
  Si  Si519  1  0.257058  0.577158  0.555206  1
  Si  Si520  1  0.095931  0.778084  0.523128  1
  Si  Si521  1  0.259606  0.809104  0.555150  1
  Si  Si522  1  0.163283  0.778230  0.583418  1
  Si  Si523  1  0.328834  0.690131  0.571308  1
  Si  Si524  1  0.330693  0.922709  0.572462  1
  Si  Si525  1  0.390814  0.311680  0.512650  1
  Si  Si526  1  0.498675  0.191928  0.448070  1
  Si  Si527  1  0.645454  0.309084  0.460441  1
  Si  Si528  1  0.404361  0.376958  0.410706  1
  Si  Si529  1  0.599141  0.189897  0.422228  1
  Si  Si530  1  0.498504  0.422563  0.445192  1
  Si  Si531  1  0.391679  0.077099  0.513861  1
  Si  Si532  1  0.645033  0.077008  0.463434  1
  Si  Si533  1  0.599178  0.423019  0.420167  1
  Si  Si534  1  0.348042  0.422505  0.468156  1
  Si  Si535  1  0.594762  0.122424  0.524078  1
  Si  Si536  1  0.496322  0.077226  0.497701  1
  Si  Si537  1  0.495551  0.311359  0.496329  1
  Si  Si538  1  0.351138  0.192203  0.470879  1
  Si  Si539  1  0.663277  0.278227  0.583413  1
  Si  Si540  1  0.595925  0.278075  0.523125  1
  Si  Si541  1  0.404524  0.220576  0.410203  1
  Si  Si542  1  0.663006  0.122506  0.583736  1
  Si  Si543  1  0.663008  0.877465  0.583736  1
  Si  Si544  1  0.404528  0.779383  0.410206  1
  Si  Si545  1  0.390819  0.688278  0.512655  1
  Si  Si546  1  0.498679  0.808030  0.448073  1
  Si  Si547  1  0.645460  0.690878  0.460442  1
  Si  Si548  1  0.404365  0.623002  0.410709  1
  Si  Si549  1  0.599144  0.810064  0.422229  1
  Si  Si550  1  0.498508  0.577398  0.445195  1
  Si  Si551  1  0.391683  0.922863  0.513864  1
  Si  Si552  1  0.645035  0.922958  0.463433  1
  Si  Si553  1  0.599181  0.576943  0.420168  1
  Si  Si554  1  0.348044  0.577457  0.468158  1
  Si  Si555  1  0.594766  0.877539  0.524077  1
  Si  Si556  1  0.496324  0.922735  0.497702  1
  Si  Si557  1  0.495556  0.688600  0.496332  1
  Si  Si558  1  0.351145  0.807755  0.470883  1
  Si  Si559  1  0.663281  0.721744  0.583415  1
  Si  Si560  1  0.595931  0.721888  0.523125  1
  Si  Si561  1  0.747631  0.275412  0.483236  1
  Si  Si562  1  0.995551  0.188615  0.496331  1
  Si  Si563  1  0.996324  0.422746  0.497708  1
  Si  Si564  1  0.890813  0.188290  0.512651  1
  Si  Si565  1  0.998675  0.308049  0.448074  1
  Si  Si566  1  0.904367  0.123016  0.410707  1
  Si  Si567  1  0.828829  0.190138  0.571305  1
  Si  Si568  1  0.891679  0.422873  0.513861  1
  Si  Si569  1  0.746975  0.118812  0.483772  1
  Si  Si570  1  0.848042  0.077467  0.468154  1
  Si  Si571  1  0.904528  0.279397  0.410204  1
  Si  Si572  1  0.757055  0.077163  0.555201  1
  Si  Si573  1  0.830687  0.422713  0.572459  1
  Si  Si574  1  0.759600  0.309109  0.555146  1
  Si  Si575  1  0.851139  0.307767  0.470879  1
  Si  Si576  1  0.998506  0.077408  0.445196  1
  Si  Si577  1  0.747634  0.724563  0.483237  1
  Si  Si578  1  0.828833  0.809843  0.571307  1
  Si  Si579  1  0.890819  0.811696  0.512655  1
  Si  Si580  1  0.998679  0.691937  0.448076  1
  Si  Si581  1  0.904370  0.876968  0.410709  1
  Si  Si582  1  0.904531  0.720586  0.410206  1
  Si  Si583  1  0.891682  0.577109  0.513863  1
  Si  Si584  1  0.746978  0.881163  0.483773  1
  Si  Si585  1  0.848045  0.922515  0.468156  1
  Si  Si586  1  0.830690  0.577263  0.572461  1
  Si  Si587  1  0.757056  0.922814  0.555201  1
  Si  Si588  1  0.759605  0.690870  0.555148  1
  Si  Si589  1  0.851145  0.692218  0.470883  1
  Si  Si590  1  0.995556  0.811370  0.496334  1
  Si  Si591  1  0.998510  0.922573  0.445198  1
  Si  Si592  1  0.996326  0.577237  0.497708  1
  H  H593  1  0.153544  0.403152  0.130532  1
  H  H594  1  0.154271  0.197878  0.130768  1
  H  H595  1  0.153543  0.596820  0.130532  1
  H  H596  1  0.154272  0.802095  0.130768  1
  H  H597  1  0.346549  0.096817  0.120157  1
  H  H598  1  0.653541  0.096818  0.130526  1
  H  H599  1  0.345821  0.302087  0.119918  1
  H  H600  1  0.654270  0.302091  0.130765  1
  H  H601  1  0.653541  0.903154  0.130526  1
  H  H602  1  0.346551  0.903153  0.120160  1
  H  H603  1  0.654271  0.697880  0.130766  1
  H  H604  1  0.345820  0.697876  0.119922  1
  H  H605  1  0.846548  0.403153  0.120155  1
  H  H606  1  0.845820  0.197881  0.119918  1
  H  H607  1  0.846549  0.596820  0.120158  1
  H  H608  1  0.845820  0.802099  0.119922  1
  H  H609  1  0.153544  0.403152  0.640009  1
  H  H610  1  0.154271  0.197878  0.640245  1
  H  H611  1  0.153543  0.596820  0.640009  1
  H  H612  1  0.154272  0.802095  0.640245  1
  H  H613  1  0.346549  0.096817  0.629634  1
  H  H614  1  0.653541  0.096818  0.640004  1
  H  H615  1  0.345821  0.302087  0.629396  1
  H  H616  1  0.654270  0.302091  0.640242  1
  H  H617  1  0.653541  0.903154  0.640003  1
  H  H618  1  0.346551  0.903153  0.629638  1
  H  H619  1  0.654271  0.697880  0.640243  1
  H  H620  1  0.345820  0.697876  0.629400  1
  H  H621  1  0.846548  0.403153  0.629632  1
  H  H622  1  0.845820  0.197881  0.629396  1
  H  H623  1  0.846549  0.596820  0.629636  1
  H  H624  1  0.845820  0.802099  0.629399  1
