# generated using pymatgen
data_Si20H6O43
_symmetry_space_group_name_H-M   'P 1'
_cell_length_a   9.74974582
_cell_length_b   23.37288685
_cell_length_c   31.70943220
_cell_angle_alpha   90.00000000
_cell_angle_beta   90.00000000
_cell_angle_gamma   90.00000000
_symmetry_Int_Tables_number   1
_chemical_formula_structural   Si20H6O43
_chemical_formula_sum   'Si40 H12 O86'
_cell_volume   7225.93608334
_cell_formula_units_Z   2
loop_
 _symmetry_equiv_pos_site_id
 _symmetry_equiv_pos_as_xyz
  1  'x, y, z'
loop_
 _atom_site_type_symbol
 _atom_site_label
 _atom_site_symmetry_multiplicity
 _atom_site_fract_x
 _atom_site_fract_y
 _atom_site_fract_z
 _atom_site_occupancy
  O  O1  1  0.634509  0.355481  0.246209  1
  O  O2  1  0.135135  0.855459  0.246179  1
  O  O3  1  0.365049  0.355579  0.246293  1
  O  O4  1  0.865687  0.855596  0.246339  1
  O  O5  1  0.365119  0.644318  0.438336  1
  O  O6  1  0.865601  0.144315  0.438300  1
  O  O7  1  0.634578  0.644426  0.438423  1
  O  O8  1  0.135054  0.144446  0.438444  1
  O  O9  1  0.871453  0.308600  0.245878  1
  O  O10  1  0.371914  0.808474  0.246438  1
  O  O11  1  0.128469  0.308547  0.246671  1
  O  O12  1  0.628945  0.808677  0.246114  1
  O  O13  1  0.128545  0.691354  0.437928  1
  O  O14  1  0.628849  0.191238  0.438521  1
  O  O15  1  0.871530  0.691308  0.438745  1
  O  O16  1  0.371823  0.191440  0.438160  1
  O  O17  1  0.869455  0.415262  0.245091  1
  O  O18  1  0.370060  0.915128  0.244880  1
  O  O19  1  0.129953  0.415204  0.244872  1
  O  O20  1  0.630572  0.915337  0.245082  1
  O  O21  1  0.130013  0.584698  0.439766  1
  O  O22  1  0.630486  0.084575  0.439562  1
  O  O23  1  0.869516  0.584648  0.439545  1
  O  O24  1  0.369982  0.084783  0.439765  1
  O  O25  1  0.795625  0.362162  0.310534  1
  O  O26  1  0.295162  0.863118  0.310657  1
  O  O27  1  0.205087  0.363440  0.310755  1
  O  O28  1  0.704537  0.862502  0.310644  1
  O  O29  1  0.205187  0.636405  0.373870  1
  O  O30  1  0.704469  0.137408  0.373999  1
  O  O31  1  0.795675  0.637741  0.374095  1
  O  O32  1  0.295075  0.136736  0.373968  1
  O  O33  1  0.636010  0.644582  0.310773  1
  O  O34  1  0.134539  0.145204  0.310937  1
  O  O35  1  0.365487  0.645203  0.310817  1
  O  O36  1  0.864024  0.144576  0.310669  1
  O  O37  1  0.365469  0.354726  0.373797  1
  O  O38  1  0.864030  0.855351  0.373988  1
  O  O39  1  0.636001  0.355349  0.373866  1
  O  O40  1  0.134557  0.854715  0.373682  1
  O  O41  1  0.870134  0.581963  0.309990  1
  O  O42  1  0.369054  0.083306  0.308666  1
  O  O43  1  0.130834  0.583355  0.308491  1
  O  O44  1  0.629772  0.081997  0.309821  1
  O  O45  1  0.130833  0.416580  0.376109  1
  O  O46  1  0.629766  0.917926  0.374810  1
  O  O47  1  0.870132  0.417968  0.374622  1
  O  O48  1  0.369050  0.916614  0.375944  1
  O  O49  1  0.872148  0.690593  0.309492  1
  O  O50  1  0.370513  0.191764  0.310217  1
  O  O51  1  0.129565  0.691816  0.310277  1
  O  O52  1  0.627936  0.190642  0.309535  1
  O  O53  1  0.129533  0.308116  0.374389  1
  O  O54  1  0.627956  0.809277  0.375106  1
  O  O55  1  0.872123  0.309331  0.375141  1
  O  O56  1  0.370540  0.808157  0.374442  1
  O  O57  1  0.000000  0.466006  0.186070  1
  O  O58  1  0.500311  0.966007  0.186073  1
  O  O59  1  -0.000000  0.533882  0.498559  1
  O  O60  1  0.500230  0.033887  0.498564  1
  O  O61  1  0.000000  0.507354  0.263160  1
  O  O62  1  0.499827  0.007353  0.263160  1
  O  O63  1  -0.000000  0.492555  0.421465  1
  O  O64  1  0.499762  0.992557  0.421472  1
  O  O65  1  0.006445  0.499978  0.342315  1
  O  O66  1  0.493972  0.000000  0.342318  1
  O  O67  1  -0.000000  0.766288  0.263051  1
  O  O68  1  0.499647  0.266293  0.263056  1
  O  O69  1  0.000000  0.233622  0.421584  1
  O  O70  1  0.499702  0.733611  0.421582  1
  O  O71  1  0.997307  0.773475  0.343174  1
  O  O72  1  0.502356  0.273457  0.343186  1
  O  O73  1  0.997367  0.226461  0.341458  1
  O  O74  1  0.502334  0.726474  0.341446  1
  O  O75  1  0.001864  0.259529  0.186068  1
  O  O76  1  0.500406  0.759542  0.186065  1
  O  O77  1  0.002013  0.740344  0.498554  1
  O  O78  1  0.500222  0.240370  0.498554  1
  O  O79  1  -0.000000  0.216271  0.263225  1
  O  O80  1  0.501148  0.716271  0.263219  1
  O  O81  1  -0.000000  0.783641  0.421407  1
  O  O82  1  0.501082  0.283653  0.421408  1
  O  O83  1  0.000000  0.807735  0.186065  1
  O  O84  1  0.499303  0.307724  0.186065  1
  O  O85  1  0.000000  0.192165  0.498567  1
  O  O86  1  0.499358  0.692159  0.498572  1
  Si  Si87  1  0.787460  0.361839  0.261426  1
  Si  Si88  1  0.287888  0.861937  0.261537  1
  Si  Si89  1  0.212297  0.362116  0.261639  1
  Si  Si90  1  0.712730  0.862021  0.261540  1
  Si  Si91  1  0.212375  0.637773  0.422986  1
  Si  Si92  1  0.712642  0.137892  0.423102  1
  Si  Si93  1  0.787526  0.638068  0.423203  1
  Si  Si94  1  0.287806  0.137962  0.423088  1
  Si  Si95  1  0.789562  0.636690  0.324883  1
  Si  Si96  1  0.288224  0.137342  0.324757  1
  Si  Si97  1  0.211827  0.637309  0.324659  1
  Si  Si98  1  0.710483  0.136654  0.324785  1
  Si  Si99  1  0.211795  0.362604  0.359967  1
  Si  Si100  1  0.710496  0.863267  0.359858  1
  Si  Si101  1  0.789548  0.363235  0.359745  1
  Si  Si102  1  0.288252  0.862563  0.359869  1
  Si  Si103  1  0.000000  0.452658  0.234511  1
  Si  Si104  1  0.500216  0.952656  0.234513  1
  Si  Si105  1  0.000000  0.547245  0.450121  1
  Si  Si106  1  0.500135  0.047250  0.450124  1
  Si  Si107  1  0.001402  0.543197  0.304896  1
  Si  Si108  1  0.498501  0.043193  0.304899  1
  Si  Si109  1  0.001401  0.456732  0.379718  1
  Si  Si110  1  0.498488  0.956727  0.379727  1
  Si  Si111  1  0.000000  0.730971  0.305225  1
  Si  Si112  1  0.500105  0.230971  0.305224  1
  Si  Si113  1  -0.000000  0.268952  0.379416  1
  Si  Si114  1  0.500132  0.768944  0.379418  1
  Si  Si115  1  -0.000000  0.271214  0.234803  1
  Si  Si116  1  0.500478  0.771220  0.234802  1
  Si  Si117  1  0.000000  0.728686  0.449817  1
  Si  Si118  1  0.500366  0.228696  0.449816  1
  Si  Si119  1  0.998969  0.180890  0.305311  1
  Si  Si120  1  0.501112  0.680891  0.305306  1
  Si  Si121  1  0.998987  0.819036  0.379327  1
  Si  Si122  1  0.501092  0.319042  0.379324  1
  Si  Si123  1  0.000000  0.821546  0.234625  1
  Si  Si124  1  0.499658  0.321545  0.234623  1
  Si  Si125  1  -0.000000  0.178361  0.450006  1
  Si  Si126  1  0.499721  0.678355  0.450011  1
  H  H127  1  -0.000000  0.466006  0.157687  1
  H  H128  1  0.500311  0.966007  0.157690  1
  H  H129  1  -0.000000  0.533882  0.526942  1
  H  H130  1  0.500230  0.033887  0.526947  1
  H  H131  1  0.001864  0.259529  0.157686  1
  H  H132  1  0.500406  0.759542  0.157682  1
  H  H133  1  0.002013  0.740344  0.526937  1
  H  H134  1  0.500222  0.240370  0.526937  1
  H  H135  1  0.000000  0.807735  0.157682  1
  H  H136  1  0.499303  0.307724  0.157682  1
  H  H137  1  0.000000  0.192165  0.526950  1
  H  H138  1  0.499358  0.692159  0.526955  1
