# generated using pymatgen
data_Si100H6O203
_symmetry_space_group_name_H-M   'P 1'
_cell_length_a   9.74974582
_cell_length_b   23.37288685
_cell_length_c   71.34573410
_cell_angle_alpha   90.00000000
_cell_angle_beta   90.00000000
_cell_angle_gamma   90.00000000
_symmetry_Int_Tables_number   1
_chemical_formula_structural   Si100H6O203
_chemical_formula_sum   'Si200 H12 O406'
_cell_volume   16258.244902
_cell_formula_units_Z   2
loop_
 _symmetry_equiv_pos_site_id
 _symmetry_equiv_pos_as_xyz
  1  'x, y, z'
loop_
 _atom_site_type_symbol
 _atom_site_label
 _atom_site_symmetry_multiplicity
 _atom_site_fract_x
 _atom_site_fract_y
 _atom_site_fract_z
 _atom_site_occupancy
  O  O1  1  0.634509  0.355481  0.109427  1
  O  O2  1  0.135135  0.855459  0.109414  1
  O  O3  1  0.365049  0.355579  0.109464  1
  O  O4  1  0.865687  0.855596  0.109485  1
  O  O5  1  0.634662  0.644502  0.248294  1
  O  O6  1  0.134581  0.144405  0.248308  1
  O  O7  1  0.365196  0.644194  0.248383  1
  O  O8  1  0.865127  0.144314  0.248368  1
  O  O9  1  0.365119  0.644318  0.194818  1
  O  O10  1  0.865601  0.144315  0.194801  1
  O  O11  1  0.634578  0.644426  0.194856  1
  O  O12  1  0.135054  0.144446  0.194865  1
  O  O13  1  0.871453  0.308600  0.109280  1
  O  O14  1  0.371914  0.808474  0.109529  1
  O  O15  1  0.128469  0.308547  0.109632  1
  O  O16  1  0.628945  0.808677  0.109385  1
  O  O17  1  0.871742  0.691459  0.248204  1
  O  O18  1  0.371484  0.191418  0.248284  1
  O  O19  1  0.128766  0.691172  0.248481  1
  O  O20  1  0.628514  0.191246  0.248394  1
  O  O21  1  0.128545  0.691354  0.194636  1
  O  O22  1  0.628849  0.191238  0.194899  1
  O  O23  1  0.871530  0.691308  0.194999  1
  O  O24  1  0.371823  0.191440  0.194739  1
  O  O25  1  0.869455  0.415262  0.108930  1
  O  O26  1  0.370060  0.915128  0.108836  1
  O  O27  1  0.129953  0.415204  0.108833  1
  O  O28  1  0.630572  0.915337  0.108926  1
  O  O29  1  0.869532  0.584774  0.247767  1
  O  O30  1  0.369663  0.084729  0.247745  1
  O  O31  1  0.130033  0.584536  0.247765  1
  O  O32  1  0.630157  0.084607  0.247792  1
  O  O33  1  0.130013  0.584698  0.195453  1
  O  O34  1  0.630486  0.084575  0.195362  1
  O  O35  1  0.869516  0.584648  0.195354  1
  O  O36  1  0.369982  0.084783  0.195452  1
  O  O37  1  0.795625  0.362162  0.138016  1
  O  O38  1  0.295162  0.863118  0.138071  1
  O  O39  1  0.205087  0.363440  0.138114  1
  O  O40  1  0.704537  0.862502  0.138065  1
  O  O41  1  0.795497  0.637711  0.276880  1
  O  O42  1  0.295316  0.137393  0.276894  1
  O  O43  1  0.204876  0.636479  0.277032  1
  O  O44  1  0.704638  0.136832  0.277011  1
  O  O45  1  0.205187  0.636405  0.166165  1
  O  O46  1  0.704469  0.137408  0.166223  1
  O  O47  1  0.795675  0.637741  0.166266  1
  O  O48  1  0.295075  0.136736  0.166209  1
  O  O49  1  0.636010  0.644582  0.138122  1
  O  O50  1  0.134539  0.145204  0.138195  1
  O  O51  1  0.365487  0.645203  0.138142  1
  O  O52  1  0.864024  0.144576  0.138076  1
  O  O53  1  0.635403  0.354999  0.277105  1
  O  O54  1  0.135397  0.855045  0.277097  1
  O  O55  1  0.364897  0.354993  0.276954  1
  O  O56  1  0.864879  0.854938  0.276955  1
  O  O57  1  0.365469  0.354726  0.166133  1
  O  O58  1  0.864030  0.855351  0.166218  1
  O  O59  1  0.636001  0.355349  0.166164  1
  O  O60  1  0.134557  0.854715  0.166082  1
  O  O61  1  0.870134  0.581963  0.137774  1
  O  O62  1  0.369054  0.083306  0.137186  1
  O  O63  1  0.130834  0.583355  0.137108  1
  O  O64  1  0.629772  0.081997  0.137699  1
  O  O65  1  0.869346  0.417653  0.276609  1
  O  O66  1  0.369466  0.917644  0.276532  1
  O  O67  1  0.130077  0.416821  0.276043  1
  O  O68  1  0.630209  0.916812  0.276090  1
  O  O69  1  0.130833  0.416580  0.167161  1
  O  O70  1  0.629766  0.917926  0.166583  1
  O  O71  1  0.870132  0.417968  0.166500  1
  O  O72  1  0.369050  0.916614  0.167087  1
  O  O73  1  0.872148  0.690593  0.137553  1
  O  O74  1  0.370513  0.191764  0.137875  1
  O  O75  1  0.129565  0.691816  0.137902  1
  O  O76  1  0.627936  0.190642  0.137572  1
  O  O77  1  0.871637  0.308969  0.276548  1
  O  O78  1  0.371526  0.808974  0.276575  1
  O  O79  1  0.129080  0.308409  0.276672  1
  O  O80  1  0.628978  0.808392  0.276647  1
  O  O81  1  0.129533  0.308116  0.166396  1
  O  O82  1  0.627956  0.809277  0.166715  1
  O  O83  1  0.872123  0.309331  0.166730  1
  O  O84  1  0.370540  0.808157  0.166420  1
  O  O85  1  0.000000  0.466006  0.082698  1
  O  O86  1  0.500311  0.966007  0.082700  1
  O  O87  1  -0.000000  0.533882  0.221583  1
  O  O88  1  0.500230  0.033887  0.221585  1
  O  O89  1  0.000000  0.507354  0.116961  1
  O  O90  1  0.499827  0.007353  0.116961  1
  O  O91  1  0.998858  0.492536  0.255847  1
  O  O92  1  0.499295  0.992555  0.255848  1
  O  O93  1  -0.000000  0.492555  0.187319  1
  O  O94  1  0.499762  0.992557  0.187322  1
  O  O95  1  0.006445  0.499978  0.152141  1
  O  O96  1  0.493972  0.000000  0.152142  1
  O  O97  1  0.000000  0.766288  0.116912  1
  O  O98  1  0.499647  0.266293  0.116915  1
  O  O99  1  0.000000  0.233583  0.255808  1
  O  O100  1  0.499564  0.733574  0.255809  1
  O  O101  1  0.000000  0.233622  0.187372  1
  O  O102  1  0.499702  0.733611  0.187371  1
  O  O103  1  0.997307  0.773475  0.152523  1
  O  O104  1  0.502356  0.273457  0.152528  1
  O  O105  1  0.997367  0.226461  0.151760  1
  O  O106  1  0.502334  0.726474  0.151755  1
  O  O107  1  -0.000000  0.773376  0.290631  1
  O  O108  1  0.499167  0.273369  0.290632  1
  O  O109  1  0.001864  0.259529  0.082698  1
  O  O110  1  0.500406  0.759542  0.082696  1
  O  O111  1  0.002013  0.740344  0.221581  1
  O  O112  1  0.500222  0.240370  0.221581  1
  O  O113  1  0.000000  0.216271  0.116990  1
  O  O114  1  0.501148  0.716271  0.116987  1
  O  O115  1  0.000000  0.783631  0.255870  1
  O  O116  1  0.500544  0.283642  0.255872  1
  O  O117  1  -0.000000  0.783641  0.187293  1
  O  O118  1  0.501082  0.283653  0.187294  1
  O  O119  1  0.000000  0.807735  0.082696  1
  O  O120  1  0.499303  0.307724  0.082696  1
  O  O121  1  -0.000000  0.192165  0.221587  1
  O  O122  1  0.499358  0.692159  0.221589  1
  O  O123  1  0.634509  0.355481  0.387203  1
  O  O124  1  0.135135  0.855459  0.387190  1
  O  O125  1  0.365049  0.355579  0.387241  1
  O  O126  1  0.865687  0.855596  0.387261  1
  O  O127  1  0.634662  0.644502  0.526071  1
  O  O128  1  0.134581  0.144405  0.526084  1
  O  O129  1  0.365196  0.644194  0.526159  1
  O  O130  1  0.865127  0.144314  0.526145  1
  O  O131  1  0.365119  0.644318  0.472594  1
  O  O132  1  0.865601  0.144315  0.472577  1
  O  O133  1  0.634578  0.644426  0.472632  1
  O  O134  1  0.135054  0.144446  0.472642  1
  O  O135  1  0.365106  0.355663  0.333678  1
  O  O136  1  0.865222  0.855575  0.333685  1
  O  O137  1  0.634572  0.355368  0.333763  1
  O  O138  1  0.134672  0.855473  0.333753  1
  O  O139  1  0.871453  0.308600  0.387056  1
  O  O140  1  0.371914  0.808474  0.387305  1
  O  O141  1  0.128469  0.308547  0.387408  1
  O  O142  1  0.628945  0.808677  0.387161  1
  O  O143  1  0.871742  0.691459  0.525980  1
  O  O144  1  0.371484  0.191418  0.526061  1
  O  O145  1  0.128766  0.691172  0.526258  1
  O  O146  1  0.628514  0.191246  0.526170  1
  O  O147  1  0.128545  0.691354  0.472412  1
  O  O148  1  0.628849  0.191238  0.472676  1
  O  O149  1  0.871530  0.691308  0.472775  1
  O  O150  1  0.371823  0.191440  0.472515  1
  O  O151  1  0.128668  0.308675  0.333574  1
  O  O152  1  0.628620  0.808642  0.333648  1
  O  O153  1  0.871644  0.308402  0.333845  1
  O  O154  1  0.371591  0.808458  0.333768  1
  O  O155  1  0.869455  0.415262  0.386706  1
  O  O156  1  0.370060  0.915128  0.386613  1
  O  O157  1  0.129953  0.415204  0.386609  1
  O  O158  1  0.630572  0.915337  0.386702  1
  O  O159  1  0.869532  0.584774  0.525543  1
  O  O160  1  0.369663  0.084729  0.525521  1
  O  O161  1  0.130033  0.584536  0.525542  1
  O  O162  1  0.630157  0.084607  0.525568  1
  O  O163  1  0.130013  0.584698  0.473229  1
  O  O164  1  0.630486  0.084575  0.473138  1
  O  O165  1  0.869516  0.584648  0.473131  1
  O  O166  1  0.369982  0.084783  0.473228  1
  O  O167  1  0.129949  0.415317  0.334299  1
  O  O168  1  0.630249  0.915281  0.334271  1
  O  O169  1  0.869459  0.415093  0.334296  1
  O  O170  1  0.369751  0.915149  0.334321  1
  O  O171  1  0.795625  0.362162  0.415792  1
  O  O172  1  0.295162  0.863118  0.415847  1
  O  O173  1  0.205087  0.363440  0.415891  1
  O  O174  1  0.704537  0.862502  0.415841  1
  O  O175  1  0.795497  0.637711  0.554657  1
  O  O176  1  0.295316  0.137393  0.554670  1
  O  O177  1  0.204876  0.636479  0.554808  1
  O  O178  1  0.704638  0.136832  0.554787  1
  O  O179  1  0.205187  0.636405  0.443942  1
  O  O180  1  0.704469  0.137408  0.443999  1
  O  O181  1  0.795675  0.637741  0.444042  1
  O  O182  1  0.295075  0.136736  0.443986  1
  O  O183  1  0.204791  0.363402  0.305030  1
  O  O184  1  0.704754  0.863115  0.305042  1
  O  O185  1  0.795430  0.362213  0.305180  1
  O  O186  1  0.295391  0.862517  0.305167  1
  O  O187  1  0.636010  0.644582  0.415899  1
  O  O188  1  0.134539  0.145204  0.415971  1
  O  O189  1  0.365487  0.645203  0.415918  1
  O  O190  1  0.864024  0.144576  0.415852  1
  O  O191  1  0.635403  0.354999  0.554881  1
  O  O192  1  0.135397  0.855045  0.554873  1
  O  O193  1  0.364897  0.354993  0.554731  1
  O  O194  1  0.864879  0.854938  0.554731  1
  O  O195  1  0.365469  0.354726  0.443909  1
  O  O196  1  0.864030  0.855351  0.443994  1
  O  O197  1  0.636001  0.355349  0.443940  1
  O  O198  1  0.134557  0.854715  0.443858  1
  O  O199  1  0.364949  0.644852  0.305114  1
  O  O200  1  0.864816  0.144904  0.305097  1
  O  O201  1  0.635469  0.644852  0.304958  1
  O  O202  1  0.135337  0.144791  0.304967  1
  O  O203  1  0.870134  0.581963  0.415551  1
  O  O204  1  0.369054  0.083306  0.414962  1
  O  O205  1  0.130834  0.583355  0.414884  1
  O  O206  1  0.629772  0.081997  0.415475  1
  O  O207  1  0.869346  0.417653  0.554386  1
  O  O208  1  0.369466  0.917644  0.554309  1
  O  O209  1  0.130077  0.416821  0.553819  1
  O  O210  1  0.630209  0.916812  0.553867  1
  O  O211  1  0.130833  0.416580  0.444937  1
  O  O212  1  0.629766  0.917926  0.444359  1
  O  O213  1  0.870132  0.417968  0.444276  1
  O  O214  1  0.369050  0.916614  0.444864  1
  O  O215  1  0.130122  0.583026  0.306011  1
  O  O216  1  0.630170  0.083022  0.305945  1
  O  O217  1  0.869397  0.582202  0.305441  1
  O  O218  1  0.369422  0.082179  0.305506  1
  O  O219  1  0.872148  0.690593  0.415329  1
  O  O220  1  0.370513  0.191764  0.415651  1
  O  O221  1  0.129565  0.691816  0.415678  1
  O  O222  1  0.627936  0.190642  0.415348  1
  O  O223  1  0.871637  0.308969  0.554324  1
  O  O224  1  0.371526  0.808974  0.554351  1
  O  O225  1  0.129080  0.308409  0.554448  1
  O  O226  1  0.628978  0.808392  0.554423  1
  O  O227  1  0.129533  0.308116  0.444173  1
  O  O228  1  0.627956  0.809277  0.444491  1
  O  O229  1  0.872123  0.309331  0.444507  1
  O  O230  1  0.370540  0.808157  0.444196  1
  O  O231  1  0.129145  0.691444  0.305395  1
  O  O232  1  0.628907  0.191448  0.305427  1
  O  O233  1  0.871710  0.690886  0.305524  1
  O  O234  1  0.371470  0.190860  0.305497  1
  O  O235  1  -0.000000  0.466006  0.360475  1
  O  O236  1  0.500311  0.966007  0.360476  1
  O  O237  1  0.000000  0.533882  0.499360  1
  O  O238  1  0.500230  0.033887  0.499362  1
  O  O239  1  0.000000  0.507354  0.394737  1
  O  O240  1  0.499827  0.007353  0.394737  1
  O  O241  1  0.998858  0.492536  0.533623  1
  O  O242  1  0.499295  0.992555  0.533624  1
  O  O243  1  -0.000000  0.492555  0.465095  1
  O  O244  1  0.499762  0.992557  0.465098  1
  O  O245  1  0.998842  0.507321  0.326208  1
  O  O246  1  0.499325  0.007334  0.326213  1
  O  O247  1  0.006445  0.499978  0.429917  1
  O  O248  1  0.493972  0.000000  0.429919  1
  O  O249  1  0.004541  0.499922  0.291028  1
  O  O250  1  0.504338  0.000000  0.291035  1
  O  O251  1  -0.000000  0.766288  0.394689  1
  O  O252  1  0.499647  0.266293  0.394691  1
  O  O253  1  0.000000  0.233583  0.533584  1
  O  O254  1  0.499564  0.733574  0.533585  1
  O  O255  1  0.000000  0.233622  0.465148  1
  O  O256  1  0.499702  0.733611  0.465147  1
  O  O257  1  -0.000000  0.766293  0.326254  1
  O  O258  1  0.499488  0.266287  0.326255  1
  O  O259  1  0.997307  0.773475  0.430299  1
  O  O260  1  0.502356  0.273457  0.430305  1
  O  O261  1  -0.000000  0.226468  0.291431  1
  O  O262  1  0.499217  0.726465  0.291431  1
  O  O263  1  0.997367  0.226461  0.429536  1
  O  O264  1  0.502334  0.726474  0.429531  1
  O  O265  1  -0.000000  0.773376  0.568407  1
  O  O266  1  0.499167  0.273369  0.568409  1
  O  O267  1  0.001864  0.259529  0.360474  1
  O  O268  1  0.500406  0.759542  0.360472  1
  O  O269  1  0.002013  0.740344  0.499358  1
  O  O270  1  0.500222  0.240370  0.499357  1
  O  O271  1  -0.000000  0.216271  0.394766  1
  O  O272  1  0.501148  0.716271  0.394763  1
  O  O273  1  0.000000  0.783631  0.533646  1
  O  O274  1  0.500544  0.283642  0.533649  1
  O  O275  1  -0.000000  0.783641  0.465070  1
  O  O276  1  0.501082  0.283653  0.465070  1
  O  O277  1  0.000000  0.216212  0.326189  1
  O  O278  1  0.500637  0.716225  0.326189  1
  O  O279  1  -0.000000  0.807735  0.360472  1
  O  O280  1  0.499303  0.307724  0.360472  1
  O  O281  1  0.000000  0.192165  0.499363  1
  O  O282  1  0.499358  0.692159  0.499365  1
  O  O283  1  0.634509  0.355481  0.664979  1
  O  O284  1  0.135135  0.855459  0.664966  1
  O  O285  1  0.365049  0.355579  0.665017  1
  O  O286  1  0.865687  0.855596  0.665037  1
  O  O287  1  0.365119  0.644318  0.750370  1
  O  O288  1  0.865601  0.144315  0.750354  1
  O  O289  1  0.634578  0.644426  0.750408  1
  O  O290  1  0.135054  0.144446  0.750418  1
  O  O291  1  0.365106  0.355663  0.611454  1
  O  O292  1  0.865222  0.855575  0.611462  1
  O  O293  1  0.634572  0.355368  0.611539  1
  O  O294  1  0.134672  0.855473  0.611529  1
  O  O295  1  0.871453  0.308600  0.664832  1
  O  O296  1  0.371914  0.808474  0.665081  1
  O  O297  1  0.128469  0.308547  0.665185  1
  O  O298  1  0.628945  0.808677  0.664937  1
  O  O299  1  0.128545  0.691354  0.750188  1
  O  O300  1  0.628849  0.191238  0.750452  1
  O  O301  1  0.871530  0.691308  0.750551  1
  O  O302  1  0.371823  0.191440  0.750292  1
  O  O303  1  0.128668  0.308675  0.611350  1
  O  O304  1  0.628620  0.808642  0.611424  1
  O  O305  1  0.871644  0.308402  0.611622  1
  O  O306  1  0.371591  0.808458  0.611545  1
  O  O307  1  0.869455  0.415262  0.664483  1
  O  O308  1  0.370060  0.915128  0.664389  1
  O  O309  1  0.129953  0.415204  0.664385  1
  O  O310  1  0.630572  0.915337  0.664479  1
  O  O311  1  0.130013  0.584698  0.751006  1
  O  O312  1  0.630486  0.084575  0.750915  1
  O  O313  1  0.869516  0.584648  0.750907  1
  O  O314  1  0.369982  0.084783  0.751005  1
  O  O315  1  0.129949  0.415317  0.612075  1
  O  O316  1  0.630249  0.915281  0.612048  1
  O  O317  1  0.869459  0.415093  0.612073  1
  O  O318  1  0.369751  0.915149  0.612097  1
  O  O319  1  0.795625  0.362162  0.693568  1
  O  O320  1  0.295162  0.863118  0.693623  1
  O  O321  1  0.205087  0.363440  0.693667  1
  O  O322  1  0.704537  0.862502  0.693617  1
  O  O323  1  0.205187  0.636405  0.721718  1
  O  O324  1  0.704469  0.137408  0.721775  1
  O  O325  1  0.795675  0.637741  0.721818  1
  O  O326  1  0.295075  0.136736  0.721762  1
  O  O327  1  0.204791  0.363402  0.582806  1
  O  O328  1  0.704754  0.863115  0.582819  1
  O  O329  1  0.795430  0.362213  0.582956  1
  O  O330  1  0.295391  0.862517  0.582943  1
  O  O331  1  0.636010  0.644582  0.693675  1
  O  O332  1  0.134539  0.145204  0.693748  1
  O  O333  1  0.365487  0.645203  0.693695  1
  O  O334  1  0.864024  0.144576  0.693628  1
  O  O335  1  0.365469  0.354726  0.721685  1
  O  O336  1  0.864030  0.855351  0.721771  1
  O  O337  1  0.636001  0.355349  0.721716  1
  O  O338  1  0.134557  0.854715  0.721634  1
  O  O339  1  0.364949  0.644852  0.582891  1
  O  O340  1  0.864816  0.144904  0.582873  1
  O  O341  1  0.635469  0.644852  0.582735  1
  O  O342  1  0.135337  0.144791  0.582743  1
  O  O343  1  0.870134  0.581963  0.693327  1
  O  O344  1  0.369054  0.083306  0.692738  1
  O  O345  1  0.130834  0.583355  0.692660  1
  O  O346  1  0.629772  0.081997  0.693252  1
  O  O347  1  0.130833  0.416580  0.722713  1
  O  O348  1  0.629766  0.917926  0.722136  1
  O  O349  1  0.870132  0.417968  0.722052  1
  O  O350  1  0.369050  0.916614  0.722640  1
  O  O351  1  0.130122  0.583026  0.583787  1
  O  O352  1  0.630170  0.083022  0.583721  1
  O  O353  1  0.869397  0.582202  0.583218  1
  O  O354  1  0.369422  0.082179  0.583282  1
  O  O355  1  0.872148  0.690593  0.693105  1
  O  O356  1  0.370513  0.191764  0.693428  1
  O  O357  1  0.129565  0.691816  0.693455  1
  O  O358  1  0.627936  0.190642  0.693125  1
  O  O359  1  0.129533  0.308116  0.721949  1
  O  O360  1  0.627956  0.809277  0.722267  1
  O  O361  1  0.872123  0.309331  0.722283  1
  O  O362  1  0.370540  0.808157  0.721972  1
  O  O363  1  0.129145  0.691444  0.583171  1
  O  O364  1  0.628907  0.191448  0.583203  1
  O  O365  1  0.871710  0.690886  0.583300  1
  O  O366  1  0.371470  0.190860  0.583274  1
  O  O367  1  0.000000  0.466006  0.638251  1
  O  O368  1  0.500311  0.966007  0.638252  1
  O  O369  1  -0.000000  0.533882  0.777136  1
  O  O370  1  0.500230  0.033887  0.777138  1
  O  O371  1  -0.000000  0.507354  0.672513  1
  O  O372  1  0.499827  0.007353  0.672514  1
  O  O373  1  0.000000  0.492555  0.742871  1
  O  O374  1  0.499762  0.992557  0.742875  1
  O  O375  1  0.998842  0.507321  0.603984  1
  O  O376  1  0.499325  0.007334  0.603989  1
  O  O377  1  0.006445  0.499978  0.707694  1
  O  O378  1  0.493972  -0.000000  0.707695  1
  O  O379  1  0.004541  0.499922  0.568804  1
  O  O380  1  0.504338  -0.000000  0.568812  1
  O  O381  1  0.000000  0.766288  0.672465  1
  O  O382  1  0.499647  0.266293  0.672467  1
  O  O383  1  -0.000000  0.233622  0.742925  1
  O  O384  1  0.499702  0.733611  0.742923  1
  O  O385  1  0.000000  0.766293  0.604031  1
  O  O386  1  0.499488  0.266287  0.604031  1
  O  O387  1  0.997307  0.773475  0.708076  1
  O  O388  1  0.502356  0.273457  0.708081  1
  O  O389  1  -0.000000  0.226468  0.569207  1
  O  O390  1  0.499217  0.726465  0.569207  1
  O  O391  1  0.997367  0.226461  0.707312  1
  O  O392  1  0.502334  0.726474  0.707307  1
  O  O393  1  0.001864  0.259529  0.638250  1
  O  O394  1  0.500406  0.759542  0.638249  1
  O  O395  1  0.002013  0.740344  0.777134  1
  O  O396  1  0.500222  0.240370  0.777133  1
  O  O397  1  -0.000000  0.216271  0.672542  1
  O  O398  1  0.501148  0.716271  0.672539  1
  O  O399  1  -0.000000  0.783641  0.742846  1
  O  O400  1  0.501082  0.283653  0.742846  1
  O  O401  1  -0.000000  0.216212  0.603965  1
  O  O402  1  0.500637  0.716225  0.603966  1
  O  O403  1  0.000000  0.807735  0.638248  1
  O  O404  1  0.499303  0.307724  0.638248  1
  O  O405  1  -0.000000  0.192165  0.777139  1
  O  O406  1  0.499358  0.692159  0.777142  1
  Si  Si407  1  0.787460  0.361839  0.116190  1
  Si  Si408  1  0.287888  0.861937  0.116239  1
  Si  Si409  1  0.212297  0.362116  0.116285  1
  Si  Si410  1  0.712730  0.862021  0.116241  1
  Si  Si411  1  0.787607  0.638177  0.255056  1
  Si  Si412  1  0.287509  0.138027  0.255071  1
  Si  Si413  1  0.212414  0.637641  0.255200  1
  Si  Si414  1  0.712322  0.137824  0.255179  1
  Si  Si415  1  0.212375  0.637773  0.187995  1
  Si  Si416  1  0.712642  0.137892  0.188047  1
  Si  Si417  1  0.787526  0.638068  0.188092  1
  Si  Si418  1  0.287806  0.137962  0.188040  1
  Si  Si419  1  0.789562  0.636690  0.144394  1
  Si  Si420  1  0.288224  0.137342  0.144337  1
  Si  Si421  1  0.211827  0.637309  0.144294  1
  Si  Si422  1  0.710483  0.136654  0.144350  1
  Si  Si423  1  0.788994  0.362949  0.283313  1
  Si  Si424  1  0.288995  0.863031  0.283298  1
  Si  Si425  1  0.211250  0.362836  0.283152  1
  Si  Si426  1  0.711247  0.862754  0.283164  1
  Si  Si427  1  0.211795  0.362604  0.159986  1
  Si  Si428  1  0.710496  0.863267  0.159938  1
  Si  Si429  1  0.789548  0.363235  0.159888  1
  Si  Si430  1  0.288252  0.862563  0.159943  1
  Si  Si431  1  -0.000000  0.452658  0.104228  1
  Si  Si432  1  0.500216  0.952656  0.104229  1
  Si  Si433  1  0.000000  0.547230  0.243113  1
  Si  Si434  1  0.499852  0.047244  0.243114  1
  Si  Si435  1  0.000000  0.547245  0.200055  1
  Si  Si436  1  0.500135  0.047250  0.200056  1
  Si  Si437  1  0.001402  0.543197  0.135510  1
  Si  Si438  1  0.498501  0.043193  0.135512  1
  Si  Si439  1  -0.000000  0.456695  0.274397  1
  Si  Si440  1  0.500386  0.956692  0.274392  1
  Si  Si441  1  0.001401  0.456732  0.168765  1
  Si  Si442  1  0.498488  0.956727  0.168769  1
  Si  Si443  1  0.000000  0.730971  0.135656  1
  Si  Si444  1  0.500105  0.230971  0.135656  1
  Si  Si445  1  0.000000  0.268918  0.274547  1
  Si  Si446  1  0.499771  0.768914  0.274547  1
  Si  Si447  1  0.000000  0.268952  0.168630  1
  Si  Si448  1  0.500132  0.768944  0.168631  1
  Si  Si449  1  -0.000000  0.271214  0.104357  1
  Si  Si450  1  0.500478  0.771220  0.104357  1
  Si  Si451  1  -0.000000  0.728672  0.243243  1
  Si  Si452  1  0.500268  0.228692  0.243242  1
  Si  Si453  1  0.000000  0.728686  0.199920  1
  Si  Si454  1  0.500366  0.228696  0.199920  1
  Si  Si455  1  0.998969  0.180890  0.135695  1
  Si  Si456  1  0.501112  0.680891  0.135693  1
  Si  Si457  1  0.000000  0.818995  0.274580  1
  Si  Si458  1  0.500232  0.318998  0.274584  1
  Si  Si459  1  0.998987  0.819036  0.168591  1
  Si  Si460  1  0.501092  0.319042  0.168590  1
  Si  Si461  1  0.000000  0.821546  0.104278  1
  Si  Si462  1  0.499658  0.321545  0.104277  1
  Si  Si463  1  0.000000  0.178341  0.243168  1
  Si  Si464  1  0.499631  0.678330  0.243171  1
  Si  Si465  1  -0.000000  0.178361  0.200004  1
  Si  Si466  1  0.499721  0.678355  0.200006  1
  Si  Si467  1  0.787460  0.361839  0.393966  1
  Si  Si468  1  0.287888  0.861937  0.394016  1
  Si  Si469  1  0.212297  0.362116  0.394061  1
  Si  Si470  1  0.712730  0.862021  0.394017  1
  Si  Si471  1  0.787607  0.638177  0.532832  1
  Si  Si472  1  0.287509  0.138027  0.532847  1
  Si  Si473  1  0.212414  0.637641  0.532976  1
  Si  Si474  1  0.712322  0.137824  0.532955  1
  Si  Si475  1  0.212375  0.637773  0.465771  1
  Si  Si476  1  0.712642  0.137892  0.465823  1
  Si  Si477  1  0.787526  0.638068  0.465868  1
  Si  Si478  1  0.287806  0.137962  0.465817  1
  Si  Si479  1  0.212322  0.362213  0.326862  1
  Si  Si480  1  0.712422  0.862078  0.326874  1
  Si  Si481  1  0.787520  0.361698  0.327005  1
  Si  Si482  1  0.287602  0.861855  0.326990  1
  Si  Si483  1  0.789562  0.636690  0.422170  1
  Si  Si484  1  0.288224  0.137342  0.422113  1
  Si  Si485  1  0.211827  0.637309  0.422070  1
  Si  Si486  1  0.710483  0.136654  0.422126  1
  Si  Si487  1  0.788994  0.362949  0.561089  1
  Si  Si488  1  0.288995  0.863031  0.561074  1
  Si  Si489  1  0.211250  0.362836  0.560928  1
  Si  Si490  1  0.711247  0.862754  0.560940  1
  Si  Si491  1  0.211795  0.362604  0.437763  1
  Si  Si492  1  0.710496  0.863267  0.437714  1
  Si  Si493  1  0.789548  0.363235  0.437664  1
  Si  Si494  1  0.288252  0.862563  0.437719  1
  Si  Si495  1  0.211308  0.637018  0.298911  1
  Si  Si496  1  0.711175  0.137107  0.298889  1
  Si  Si497  1  0.789061  0.636920  0.298748  1
  Si  Si498  1  0.288938  0.136815  0.298763  1
  Si  Si499  1  -0.000000  0.452658  0.382004  1
  Si  Si500  1  0.500216  0.952656  0.382005  1
  Si  Si501  1  0.000000  0.547230  0.520889  1
  Si  Si502  1  0.499852  0.047244  0.520890  1
  Si  Si503  1  0.000000  0.547245  0.477831  1
  Si  Si504  1  0.500135  0.047250  0.477833  1
  Si  Si505  1  -0.000000  0.452638  0.338946  1
  Si  Si506  1  0.499936  0.952643  0.338947  1
  Si  Si507  1  0.001402  0.543197  0.413287  1
  Si  Si508  1  0.498501  0.043193  0.413288  1
  Si  Si509  1  0.000000  0.456695  0.552173  1
  Si  Si510  1  0.500386  0.956692  0.552168  1
  Si  Si511  1  0.001401  0.456732  0.446541  1
  Si  Si512  1  0.498488  0.956727  0.446545  1
  Si  Si513  1  0.000000  0.543156  0.307657  1
  Si  Si514  1  0.500357  0.043147  0.307656  1
  Si  Si515  1  -0.000000  0.730971  0.413433  1
  Si  Si516  1  0.500105  0.230971  0.413432  1
  Si  Si517  1  -0.000000  0.268918  0.552323  1
  Si  Si518  1  0.499771  0.768914  0.552324  1
  Si  Si519  1  0.000000  0.268952  0.446407  1
  Si  Si520  1  0.500132  0.768944  0.446408  1
  Si  Si521  1  0.000000  0.730941  0.307519  1
  Si  Si522  1  0.499702  0.230931  0.307520  1
  Si  Si523  1  -0.000000  0.271214  0.382134  1
  Si  Si524  1  0.500478  0.771220  0.382133  1
  Si  Si525  1  0.000000  0.728672  0.521019  1
  Si  Si526  1  0.500268  0.228692  0.521018  1
  Si  Si527  1  0.000000  0.728686  0.477696  1
  Si  Si528  1  0.500366  0.228696  0.477696  1
  Si  Si529  1  0.000000  0.271183  0.338811  1
  Si  Si530  1  0.500397  0.771196  0.338810  1
  Si  Si531  1  0.998969  0.180890  0.413471  1
  Si  Si532  1  0.501112  0.680891  0.413469  1
  Si  Si533  1  -0.000000  0.818995  0.552357  1
  Si  Si534  1  0.500232  0.318998  0.552361  1
  Si  Si535  1  0.998987  0.819036  0.446367  1
  Si  Si536  1  0.501092  0.319042  0.446366  1
  Si  Si537  1  0.000000  0.180843  0.307479  1
  Si  Si538  1  0.500291  0.680847  0.307482  1
  Si  Si539  1  0.000000  0.821546  0.382055  1
  Si  Si540  1  0.499658  0.321545  0.382054  1
  Si  Si541  1  0.000000  0.178341  0.520945  1
  Si  Si542  1  0.499631  0.678330  0.520947  1
  Si  Si543  1  -0.000000  0.178361  0.477780  1
  Si  Si544  1  0.499721  0.678355  0.477782  1
  Si  Si545  1  -0.000000  0.821544  0.338890  1
  Si  Si546  1  0.499553  0.321538  0.338890  1
  Si  Si547  1  0.787460  0.361839  0.671743  1
  Si  Si548  1  0.287888  0.861937  0.671792  1
  Si  Si549  1  0.212297  0.362116  0.671837  1
  Si  Si550  1  0.712730  0.862021  0.671794  1
  Si  Si551  1  0.212375  0.637773  0.743548  1
  Si  Si552  1  0.712642  0.137892  0.743599  1
  Si  Si553  1  0.787526  0.638068  0.743644  1
  Si  Si554  1  0.287806  0.137962  0.743593  1
  Si  Si555  1  0.212322  0.362213  0.604638  1
  Si  Si556  1  0.712422  0.862078  0.604651  1
  Si  Si557  1  0.787520  0.361698  0.604781  1
  Si  Si558  1  0.287602  0.861855  0.604767  1
  Si  Si559  1  0.789562  0.636690  0.699946  1
  Si  Si560  1  0.288224  0.137342  0.699890  1
  Si  Si561  1  0.211827  0.637309  0.699846  1
  Si  Si562  1  0.710483  0.136654  0.699903  1
  Si  Si563  1  0.211795  0.362604  0.715539  1
  Si  Si564  1  0.710496  0.863267  0.715490  1
  Si  Si565  1  0.789548  0.363235  0.715440  1
  Si  Si566  1  0.288252  0.862563  0.715495  1
  Si  Si567  1  0.211308  0.637018  0.576687  1
  Si  Si568  1  0.711175  0.137107  0.576665  1
  Si  Si569  1  0.789061  0.636920  0.576524  1
  Si  Si570  1  0.288938  0.136815  0.576539  1
  Si  Si571  1  0.000000  0.452658  0.659781  1
  Si  Si572  1  0.500216  0.952656  0.659781  1
  Si  Si573  1  -0.000000  0.547245  0.755607  1
  Si  Si574  1  0.500135  0.047250  0.755609  1
  Si  Si575  1  0.000000  0.452638  0.616722  1
  Si  Si576  1  0.499936  0.952643  0.616724  1
  Si  Si577  1  0.001402  0.543197  0.691063  1
  Si  Si578  1  0.498501  0.043193  0.691064  1
  Si  Si579  1  0.001401  0.456732  0.724317  1
  Si  Si580  1  0.498488  0.956727  0.724321  1
  Si  Si581  1  0.000000  0.543156  0.585433  1
  Si  Si582  1  0.500357  0.043147  0.585433  1
  Si  Si583  1  -0.000000  0.730971  0.691209  1
  Si  Si584  1  0.500105  0.230971  0.691209  1
  Si  Si585  1  0.000000  0.268952  0.724183  1
  Si  Si586  1  0.500132  0.768944  0.724184  1
  Si  Si587  1  -0.000000  0.730941  0.585295  1
  Si  Si588  1  0.499702  0.230931  0.585296  1
  Si  Si589  1  0.000000  0.271214  0.659910  1
  Si  Si590  1  0.500478  0.771220  0.659910  1
  Si  Si591  1  0.000000  0.728686  0.755472  1
  Si  Si592  1  0.500366  0.228696  0.755472  1
  Si  Si593  1  0.000000  0.271183  0.616588  1
  Si  Si594  1  0.500397  0.771196  0.616587  1
  Si  Si595  1  0.998969  0.180890  0.691247  1
  Si  Si596  1  0.501112  0.680891  0.691245  1
  Si  Si597  1  0.998987  0.819036  0.724143  1
  Si  Si598  1  0.501092  0.319042  0.724142  1
  Si  Si599  1  -0.000000  0.180843  0.585256  1
  Si  Si600  1  0.500291  0.680847  0.585258  1
  Si  Si601  1  -0.000000  0.821546  0.659831  1
  Si  Si602  1  0.499658  0.321545  0.659830  1
  Si  Si603  1  -0.000000  0.178361  0.755557  1
  Si  Si604  1  0.499721  0.678355  0.755559  1
  Si  Si605  1  0.000000  0.821544  0.616666  1
  Si  Si606  1  0.499553  0.321538  0.616666  1
  H  H607  1  0.000000  0.466006  0.070084  1
  H  H608  1  0.500311  0.966007  0.070085  1
  H  H609  1  0.001864  0.259529  0.070083  1
  H  H610  1  0.500406  0.759542  0.070082  1
  H  H611  1  0.000000  0.807735  0.070081  1
  H  H612  1  0.499303  0.307724  0.070081  1
  H  H613  1  -0.000000  0.533882  0.789751  1
  H  H614  1  0.500230  0.033887  0.789753  1
  H  H615  1  0.002013  0.740344  0.789748  1
  H  H616  1  0.500222  0.240370  0.789748  1
  H  H617  1  -0.000000  0.192165  0.789754  1
  H  H618  1  0.499358  0.692159  0.789756  1
