# generated using pymatgen
data_Si20H2O41
_symmetry_space_group_name_H-M   'P 1'
_cell_length_a   6.90782100
_cell_length_b   6.31952572
_cell_length_c   49.39496818
_cell_angle_alpha   90.00000000
_cell_angle_beta   90.00000000
_cell_angle_gamma   90.00000000
_symmetry_Int_Tables_number   1
_chemical_formula_structural   Si20H2O41
_chemical_formula_sum   'Si20 H2 O41'
_cell_volume   2156.29547261
_cell_formula_units_Z   1
loop_
 _symmetry_equiv_pos_site_id
 _symmetry_equiv_pos_as_xyz
  1  'x, y, z'
loop_
 _atom_site_type_symbol
 _atom_site_label
 _atom_site_symmetry_multiplicity
 _atom_site_fract_x
 _atom_site_fract_y
 _atom_site_fract_z
 _atom_site_occupancy
  O  O1  1  0.002979  0.505324  0.119445  1
  O  O2  1  0.002979  0.505324  0.398775  1
  O  O3  1  0.996715  0.494146  0.259110  1
  O  O4  1  0.180631  0.385206  0.164031  1
  O  O5  1  0.180472  0.385369  0.214540  1
  O  O6  1  0.819441  0.384916  0.163813  1
  O  O7  1  0.818781  0.385691  0.214320  1
  O  O8  1  0.819226  0.614098  0.354205  1
  O  O9  1  0.819058  0.614266  0.303696  1
  O  O10  1  0.180909  0.613776  0.353985  1
  O  O11  1  0.180258  0.614557  0.303478  1
  O  O12  1  -0.000000  0.733802  0.163886  1
  O  O13  1  -0.000000  0.733886  0.215110  1
  O  O14  1  -0.000000  0.265589  0.354775  1
  O  O15  1  0.000000  0.265661  0.303552  1
  O  O16  1  0.499827  0.274402  0.189169  1
  O  O17  1  0.499868  0.725068  0.328833  1
  O  O18  1  0.183559  0.036887  0.189400  1
  O  O19  1  0.816098  0.036896  0.189309  1
  O  O20  1  0.816136  0.962582  0.329064  1
  O  O21  1  0.183596  0.962572  0.328973  1
  O  O22  1  0.002979  0.505324  0.678105  1
  O  O23  1  0.996715  0.494146  0.538440  1
  O  O24  1  0.180631  0.385206  0.443361  1
  O  O25  1  0.180472  0.385369  0.493870  1
  O  O26  1  0.819441  0.384916  0.443142  1
  O  O27  1  0.818781  0.385691  0.493650  1
  O  O28  1  0.819226  0.614098  0.633535  1
  O  O29  1  0.819058  0.614266  0.583026  1
  O  O30  1  0.180909  0.613776  0.633315  1
  O  O31  1  0.180258  0.614557  0.582807  1
  O  O32  1  0.000000  0.733802  0.443216  1
  O  O33  1  -0.000000  0.733886  0.494440  1
  O  O34  1  0.000000  0.265589  0.634105  1
  O  O35  1  0.000000  0.265661  0.582881  1
  O  O36  1  0.499827  0.274402  0.468498  1
  O  O37  1  0.499868  0.725068  0.608163  1
  O  O38  1  0.183559  0.036887  0.468730  1
  O  O39  1  0.816098  0.036896  0.468638  1
  O  O40  1  0.816136  0.962582  0.608394  1
  O  O41  1  0.183596  0.962572  0.608303  1
  Si  Si42  1  0.000000  0.504165  0.151060  1
  Si  Si43  1  -0.000000  0.502653  0.227534  1
  Si  Si44  1  -0.000000  0.496816  0.367199  1
  Si  Si45  1  0.000000  0.495304  0.290726  1
  Si  Si46  1  0.273678  0.267378  0.189298  1
  Si  Si47  1  0.725986  0.267385  0.189106  1
  Si  Si48  1  0.726015  0.732091  0.328963  1
  Si  Si49  1  0.273705  0.732085  0.328771  1
  Si  Si50  1  -0.000000  0.885696  0.189466  1
  Si  Si51  1  0.000000  0.113781  0.329131  1
  Si  Si52  1  0.000000  0.504165  0.430389  1
  Si  Si53  1  0.000000  0.502653  0.506864  1
  Si  Si54  1  0.000000  0.496816  0.646529  1
  Si  Si55  1  -0.000000  0.495304  0.570055  1
  Si  Si56  1  0.273678  0.267378  0.468627  1
  Si  Si57  1  0.725986  0.267385  0.468435  1
  Si  Si58  1  0.726015  0.732091  0.608293  1
  Si  Si59  1  0.273705  0.732085  0.608101  1
  Si  Si60  1  0.000000  0.885696  0.468795  1
  Si  Si61  1  0.000000  0.113781  0.608460  1
  H  H62  1  0.002979  0.505324  0.101225  1
  H  H63  1  0.002979  0.505324  0.696325  1
