# generated using pymatgen
data_Si7H2O15
_symmetry_space_group_name_H-M   'P 1'
_cell_length_a   5.06832013
_cell_length_b   22.33998399
_cell_length_c   44.64488965
_cell_angle_alpha   128.16912066
_cell_angle_beta   90.00000000
_cell_angle_gamma   90.00000000
_symmetry_Int_Tables_number   1
_chemical_formula_structural   Si7H2O15
_chemical_formula_sum   'Si28 H8 O60'
_cell_volume   3974.16782351
_cell_formula_units_Z   4
loop_
 _symmetry_equiv_pos_site_id
 _symmetry_equiv_pos_as_xyz
  1  'x, y, z'
loop_
 _atom_site_type_symbol
 _atom_site_label
 _atom_site_symmetry_multiplicity
 _atom_site_fract_x
 _atom_site_fract_y
 _atom_site_fract_z
 _atom_site_occupancy
  O  O1  1  0.247531  0.125247  0.168639  1
  O  O2  1  0.252161  0.625281  0.168630  1
  O  O3  1  0.745730  0.774146  0.162612  1
  O  O4  1  0.754005  0.274137  0.162624  1
  O  O5  1  0.964928  0.744106  0.202601  1
  O  O6  1  0.534713  0.244066  0.202601  1
  O  O7  1  0.998663  0.000000  0.425535  1
  O  O8  1  -0.000000  0.500039  0.425792  1
  O  O9  1  0.001117  0.000000  0.289553  1
  O  O10  1  -0.000000  0.500102  0.289303  1
  O  O11  1  0.498653  -0.000000  0.425720  1
  O  O12  1  0.499901  0.500123  0.425475  1
  O  O13  1  0.501115  -0.000000  0.289382  1
  O  O14  1  0.499747  0.500019  0.289620  1
  O  O15  1  0.747463  0.925137  0.363377  1
  O  O16  1  0.751952  0.425130  0.363387  1
  O  O17  1  0.747900  0.925126  0.305356  1
  O  O18  1  0.752027  0.425133  0.305370  1
  O  O19  1  0.251787  0.075016  0.409739  1
  O  O20  1  0.247626  0.575009  0.409725  1
  O  O21  1  0.252221  0.075005  0.351717  1
  O  O22  1  0.247699  0.575011  0.351708  1
  O  O23  1  0.752593  0.874857  0.400423  1
  O  O24  1  0.747100  0.374889  0.400451  1
  O  O25  1  0.752109  0.874896  0.237221  1
  O  O26  1  0.747484  0.374860  0.237229  1
  O  O27  1  0.247531  0.125247  0.477874  1
  O  O28  1  0.252161  0.625281  0.477865  1
  O  O29  1  0.247049  0.125285  0.314673  1
  O  O30  1  0.252546  0.625252  0.314644  1
  O  O31  1  0.745811  0.774136  0.412739  1
  O  O32  1  0.753787  0.274147  0.412757  1
  O  O33  1  0.745730  0.774146  0.471847  1
  O  O34  1  0.754005  0.274137  0.471859  1
  O  O35  1  0.253932  0.225995  0.243248  1
  O  O36  1  0.245667  0.726006  0.243236  1
  O  O37  1  0.253853  0.226006  0.302356  1
  O  O38  1  0.245886  0.725996  0.302339  1
  O  O39  1  0.965192  0.744033  0.354161  1
  O  O40  1  0.034467  0.256111  0.360933  1
  O  O41  1  0.964928  0.744106  0.511836  1
  O  O42  1  0.034729  0.256038  0.203260  1
  O  O43  1  0.534713  0.244066  0.511837  1
  O  O44  1  0.464936  0.756073  0.203256  1
  O  O45  1  0.534473  0.244065  0.354186  1
  O  O46  1  0.465180  0.756074  0.360909  1
  O  O47  1  0.457644  0.683039  0.414122  1
  O  O48  1  0.543665  0.166492  0.409034  1
  O  O49  1  0.043658  0.333649  0.306089  1
  O  O50  1  0.957670  0.817104  0.300979  1
  O  O51  1  0.542008  0.317101  0.300972  1
  O  O52  1  0.456023  0.833648  0.306060  1
  O  O53  1  0.956005  0.666492  0.409006  1
  O  O54  1  0.042023  0.183040  0.414116  1
  O  O55  1  0.752109  0.874896  0.546456  1
  O  O56  1  0.747484  0.374860  0.546464  1
  O  O57  1  0.253932  0.225995  0.552483  1
  O  O58  1  0.245667  0.726006  0.552471  1
  O  O59  1  0.034729  0.256038  0.512496  1
  O  O60  1  0.464936  0.756073  0.512492  1
  Si  Si61  1  0.732308  0.788797  0.201804  1
  Si  Si62  1  0.767346  0.288766  0.201813  1
  Si  Si63  1  0.749161  0.950033  0.404760  1
  Si  Si64  1  0.749896  0.450047  0.404773  1
  Si  Si65  1  0.750353  0.950046  0.279383  1
  Si  Si66  1  0.749954  0.450033  0.279388  1
  Si  Si67  1  0.249363  0.050096  0.435712  1
  Si  Si68  1  0.249695  0.550110  0.435708  1
  Si  Si69  1  0.250554  0.050110  0.310336  1
  Si  Si70  1  0.249752  0.550096  0.310323  1
  Si  Si71  1  0.732588  0.788765  0.382596  1
  Si  Si72  1  0.767068  0.288794  0.382623  1
  Si  Si73  1  0.732308  0.788797  0.511039  1
  Si  Si74  1  0.767346  0.288766  0.511048  1
  Si  Si75  1  0.267344  0.211344  0.204055  1
  Si  Si76  1  0.232308  0.711374  0.204047  1
  Si  Si77  1  0.267069  0.211376  0.332498  1
  Si  Si78  1  0.232590  0.711346  0.332471  1
  Si  Si79  1  0.727151  0.725993  0.427406  1
  Si  Si80  1  0.772517  0.225992  0.427414  1
  Si  Si81  1  0.272507  0.274147  0.287688  1
  Si  Si82  1  0.227169  0.774147  0.287679  1
  Si  Si83  1  0.727084  0.875737  0.319092  1
  Si  Si84  1  0.772592  0.375738  0.319105  1
  Si  Si85  1  0.272602  0.124402  0.396002  1
  Si  Si86  1  0.227066  0.624403  0.395990  1
  Si  Si87  1  0.267344  0.211344  0.513290  1
  Si  Si88  1  0.232308  0.711374  0.513282  1
  H  H89  1  0.247531  0.125247  0.148480  1
  H  H90  1  0.252161  0.625281  0.148471  1
  H  H91  1  0.745730  0.774146  0.142453  1
  H  H92  1  0.754005  0.274137  0.142465  1
  H  H93  1  0.752109  0.874896  0.566615  1
  H  H94  1  0.747484  0.374860  0.566623  1
  H  H95  1  0.253932  0.225995  0.572642  1
  H  H96  1  0.245667  0.726006  0.572630  1
