# generated using pymatgen
data_Si60H2O121
_symmetry_space_group_name_H-M   'P 1'
_cell_length_a   7.65737943
_cell_length_b   8.96913389
_cell_length_c   70.22274492
_cell_angle_alpha   90.00000000
_cell_angle_beta   90.00000000
_cell_angle_gamma   90.00000000
_symmetry_Int_Tables_number   1
_chemical_formula_structural   Si60H2O121
_chemical_formula_sum   'Si60 H2 O121'
_cell_volume   4822.90242959
_cell_formula_units_Z   1
loop_
 _symmetry_equiv_pos_site_id
 _symmetry_equiv_pos_as_xyz
  1  'x, y, z'
loop_
 _atom_site_type_symbol
 _atom_site_label
 _atom_site_symmetry_multiplicity
 _atom_site_fract_x
 _atom_site_fract_y
 _atom_site_fract_z
 _atom_site_occupancy
  O  O1  1  0.228496  0.313361  0.284462  1
  O  O2  1  0.770877  0.314105  0.159428  1
  O  O3  1  0.770797  0.686880  0.146479  1
  O  O4  1  0.228762  0.686675  0.146440  1
  O  O5  1  0.770907  0.313422  0.284461  1
  O  O6  1  0.228637  0.314253  0.159468  1
  O  O7  1  0.000000  0.250733  0.134941  1
  O  O8  1  0.000000  0.749265  0.272951  1
  O  O9  1  -0.000000  0.750109  0.170961  1
  O  O10  1  0.766410  0.447865  0.128030  1
  O  O11  1  0.233410  0.552472  0.266035  1
  O  O12  1  0.766355  0.553060  0.177877  1
  O  O13  1  0.766102  0.552553  0.266038  1
  O  O14  1  0.233580  0.553601  0.177874  1
  O  O15  1  0.233540  0.447277  0.128034  1
  O  O16  1  0.665938  0.168193  0.130623  1
  O  O17  1  0.333249  0.832636  0.268763  1
  O  O18  1  0.666017  0.832720  0.175291  1
  O  O19  1  0.666394  0.832752  0.268776  1
  O  O20  1  0.332932  0.834217  0.175014  1
  O  O21  1  0.332948  0.166654  0.130899  1
  O  O22  1  0.665541  0.698171  0.112164  1
  O  O23  1  0.334039  0.301901  0.250178  1
  O  O24  1  0.665520  0.302676  0.193735  1
  O  O25  1  0.665366  0.301999  0.250178  1
  O  O26  1  0.334204  0.303052  0.193745  1
  O  O27  1  0.334291  0.697742  0.112157  1
  O  O28  1  0.000000  0.644053  0.121216  1
  O  O29  1  0.000000  0.356172  0.259213  1
  O  O30  1  -0.000000  0.356934  0.184697  1
  O  O31  1  0.499620  0.002817  0.290657  1
  O  O32  1  0.503855  0.001731  0.153089  1
  O  O33  1  0.499612  0.938515  0.117359  1
  O  O34  1  0.499779  0.060249  0.254941  1
  O  O35  1  0.499588  0.061606  0.188813  1
  O  O36  1  0.499736  0.187749  0.221931  1
  O  O37  1  0.499737  0.813974  0.084018  1
  O  O38  1  0.228496  0.313361  0.560285  1
  O  O39  1  0.770877  0.314105  0.435251  1
  O  O40  1  0.228850  0.685980  0.297452  1
  O  O41  1  0.770797  0.686880  0.422303  1
  O  O42  1  0.770762  0.686040  0.297456  1
  O  O43  1  0.228762  0.686675  0.422264  1
  O  O44  1  0.770907  0.313422  0.560284  1
  O  O45  1  0.228637  0.314253  0.435292  1
  O  O46  1  -0.000000  0.249851  0.308981  1
  O  O47  1  -0.000000  0.250733  0.410765  1
  O  O48  1  -0.000000  0.749265  0.548775  1
  O  O49  1  0.000000  0.750109  0.446784  1
  O  O50  1  0.233271  0.446722  0.315876  1
  O  O51  1  0.766410  0.447865  0.403853  1
  O  O52  1  0.233410  0.552472  0.541858  1
  O  O53  1  0.766355  0.553060  0.453701  1
  O  O54  1  0.766102  0.552553  0.541861  1
  O  O55  1  0.233580  0.553601  0.453698  1
  O  O56  1  0.766218  0.446769  0.315878  1
  O  O57  1  0.233540  0.447277  0.403857  1
  O  O58  1  0.333219  0.166608  0.313167  1
  O  O59  1  0.665938  0.168193  0.406446  1
  O  O60  1  0.333249  0.832636  0.544586  1
  O  O61  1  0.666017  0.832720  0.451114  1
  O  O62  1  0.666394  0.832752  0.544599  1
  O  O63  1  0.332932  0.834217  0.450837  1
  O  O64  1  0.666176  0.166643  0.313160  1
  O  O65  1  0.332948  0.166654  0.406722  1
  O  O66  1  0.334186  0.697002  0.331755  1
  O  O67  1  0.665541  0.698171  0.387987  1
  O  O68  1  0.334039  0.301901  0.526001  1
  O  O69  1  0.665520  0.302676  0.469558  1
  O  O70  1  0.665366  0.301999  0.526002  1
  O  O71  1  0.334204  0.303052  0.469568  1
  O  O72  1  0.665427  0.697062  0.331759  1
  O  O73  1  0.334291  0.697742  0.387980  1
  O  O74  1  -0.000000  0.643319  0.322682  1
  O  O75  1  0.000000  0.644053  0.397039  1
  O  O76  1  -0.000000  0.356172  0.535036  1
  O  O77  1  0.000000  0.356934  0.460520  1
  O  O78  1  0.499620  0.002817  0.566481  1
  O  O79  1  0.503855  0.001731  0.428912  1
  O  O80  1  0.499748  0.937127  0.326392  1
  O  O81  1  0.499612  0.938515  0.393182  1
  O  O82  1  0.499779  0.060249  0.530764  1
  O  O83  1  0.499588  0.061606  0.464636  1
  O  O84  1  0.499736  0.187749  0.497754  1
  O  O85  1  0.499737  0.813974  0.359842  1
  O  O86  1  0.770877  0.314105  0.711074  1
  O  O87  1  0.228850  0.685980  0.573275  1
  O  O88  1  0.770797  0.686880  0.698126  1
  O  O89  1  0.770762  0.686040  0.573280  1
  O  O90  1  0.228762  0.686675  0.698087  1
  O  O91  1  0.228637  0.314253  0.711115  1
  O  O92  1  -0.000000  0.249851  0.584805  1
  O  O93  1  0.000000  0.250733  0.686588  1
  O  O94  1  0.000000  0.750109  0.722607  1
  O  O95  1  0.233271  0.446722  0.591700  1
  O  O96  1  0.766410  0.447865  0.679676  1
  O  O97  1  0.766355  0.553060  0.729524  1
  O  O98  1  0.233580  0.553601  0.729521  1
  O  O99  1  0.766218  0.446769  0.591701  1
  O  O100  1  0.233540  0.447277  0.679681  1
  O  O101  1  0.333219  0.166608  0.588990  1
  O  O102  1  0.665938  0.168193  0.682269  1
  O  O103  1  0.666017  0.832720  0.726937  1
  O  O104  1  0.332932  0.834217  0.726660  1
  O  O105  1  0.666176  0.166643  0.588983  1
  O  O106  1  0.332948  0.166654  0.682545  1
  O  O107  1  0.334186  0.697002  0.607578  1
  O  O108  1  0.665541  0.698171  0.663810  1
  O  O109  1  0.665520  0.302676  0.745381  1
  O  O110  1  0.334204  0.303052  0.745392  1
  O  O111  1  0.665427  0.697062  0.607582  1
  O  O112  1  0.334291  0.697742  0.663803  1
  O  O113  1  0.000000  0.643319  0.598505  1
  O  O114  1  0.000000  0.644053  0.672862  1
  O  O115  1  -0.000000  0.356934  0.736343  1
  O  O116  1  0.503855  0.001731  0.704735  1
  O  O117  1  0.499748  0.937127  0.602215  1
  O  O118  1  0.499612  0.938515  0.669006  1
  O  O119  1  0.499588  0.061606  0.740459  1
  O  O120  1  0.499736  0.187749  0.773578  1
  O  O121  1  0.499737  0.813974  0.635665  1
  Si  Si122  1  0.799605  0.290280  0.137412  1
  Si  Si123  1  0.200045  0.709978  0.275447  1
  Si  Si124  1  0.799603  0.710639  0.168494  1
  Si  Si125  1  0.799553  0.710039  0.275452  1
  Si  Si126  1  0.200063  0.711006  0.168433  1
  Si  Si127  1  0.200014  0.289874  0.137474  1
  Si  Si128  1  0.799399  0.620986  0.125934  1
  Si  Si129  1  0.200210  0.379340  0.263925  1
  Si  Si130  1  0.799367  0.379946  0.179975  1
  Si  Si131  1  0.799221  0.379409  0.263924  1
  Si  Si132  1  0.200338  0.380436  0.179997  1
  Si  Si133  1  0.200381  0.620456  0.125912  1
  Si  Si134  1  0.500094  0.065704  0.132464  1
  Si  Si135  1  0.499772  0.934396  0.270267  1
  Si  Si136  1  0.500102  0.935182  0.173578  1
  Si  Si137  1  0.499741  0.211982  0.199965  1
  Si  Si138  1  0.499740  0.211243  0.243912  1
  Si  Si139  1  0.499769  0.789148  0.105993  1
  Si  Si140  1  0.199883  0.289222  0.306470  1
  Si  Si141  1  0.799605  0.290280  0.413236  1
  Si  Si142  1  0.200045  0.709978  0.551270  1
  Si  Si143  1  0.799603  0.710639  0.444317  1
  Si  Si144  1  0.799553  0.710039  0.551275  1
  Si  Si145  1  0.200063  0.711006  0.444256  1
  Si  Si146  1  0.799516  0.289264  0.306468  1
  Si  Si147  1  0.200014  0.289874  0.413297  1
  Si  Si148  1  0.200279  0.619878  0.317984  1
  Si  Si149  1  0.799399  0.620986  0.401757  1
  Si  Si150  1  0.200210  0.379340  0.539748  1
  Si  Si151  1  0.799367  0.379946  0.455798  1
  Si  Si152  1  0.799221  0.379409  0.539747  1
  Si  Si153  1  0.200338  0.380436  0.455820  1
  Si  Si154  1  0.799313  0.619912  0.317988  1
  Si  Si155  1  0.200381  0.620456  0.401735  1
  Si  Si156  1  0.499713  0.064908  0.311382  1
  Si  Si157  1  0.500094  0.065704  0.408287  1
  Si  Si158  1  0.499772  0.934396  0.546090  1
  Si  Si159  1  0.500102  0.935182  0.449402  1
  Si  Si160  1  0.499741  0.211982  0.475788  1
  Si  Si161  1  0.499740  0.211243  0.519735  1
  Si  Si162  1  0.499769  0.789148  0.381817  1
  Si  Si163  1  0.499778  0.788400  0.337882  1
  Si  Si164  1  0.199883  0.289222  0.582293  1
  Si  Si165  1  0.799605  0.290280  0.689059  1
  Si  Si166  1  0.799603  0.710639  0.720140  1
  Si  Si167  1  0.200063  0.711006  0.720080  1
  Si  Si168  1  0.799516  0.289264  0.582291  1
  Si  Si169  1  0.200014  0.289874  0.689121  1
  Si  Si170  1  0.200279  0.619878  0.593807  1
  Si  Si171  1  0.799399  0.620986  0.677580  1
  Si  Si172  1  0.799367  0.379946  0.731621  1
  Si  Si173  1  0.200338  0.380436  0.731643  1
  Si  Si174  1  0.799313  0.619912  0.593811  1
  Si  Si175  1  0.200381  0.620456  0.677558  1
  Si  Si176  1  0.499713  0.064908  0.587205  1
  Si  Si177  1  0.500094  0.065704  0.684110  1
  Si  Si178  1  0.500102  0.935182  0.725225  1
  Si  Si179  1  0.499741  0.211982  0.751611  1
  Si  Si180  1  0.499769  0.789148  0.657640  1
  Si  Si181  1  0.499778  0.788400  0.613705  1
  H  H182  1  0.499737  0.813974  0.071202  1
  H  H183  1  0.499736  0.187749  0.786394  1
