# generated using pymatgen
data_Si46H2O93
_symmetry_space_group_name_H-M   'P 1'
_cell_length_a   12.16011045
_cell_length_b   12.16651561
_cell_length_c   100.46553286
_cell_angle_alpha   90.00000000
_cell_angle_beta   90.00000000
_cell_angle_gamma   90.00000000
_symmetry_Int_Tables_number   1
_chemical_formula_structural   Si46H2O93
_chemical_formula_sum   'Si184 H8 O372'
_cell_volume   14863.4911668
_cell_formula_units_Z   4
loop_
 _symmetry_equiv_pos_site_id
 _symmetry_equiv_pos_as_xyz
  1  'x, y, z'
loop_
 _atom_site_type_symbol
 _atom_site_label
 _atom_site_symmetry_multiplicity
 _atom_site_fract_x
 _atom_site_fract_y
 _atom_site_fract_z
 _atom_site_occupancy
  O  O1  1  -0.000000  0.289063  0.058727  1
  O  O2  1  0.352596  0.147354  0.104431  1
  O  O3  1  0.852555  0.352327  0.104416  1
  O  O4  1  0.647560  0.147307  0.104424  1
  O  O5  1  0.147526  0.352314  0.104413  1
  O  O6  1  0.352209  0.102716  0.079623  1
  O  O7  1  0.897137  0.352094  0.079605  1
  O  O8  1  0.647912  0.102709  0.079616  1
  O  O9  1  0.103046  0.352100  0.079599  1
  O  O10  1  0.500078  0.223855  0.089506  1
  O  O11  1  0.775926  0.499803  0.089504  1
  O  O12  1  0.224197  0.499815  0.089508  1
  O  O13  1  -0.000000  0.275793  0.119336  1
  O  O14  1  0.297124  0.296849  0.088031  1
  O  O15  1  0.703038  0.296825  0.088027  1
  O  O16  1  0.202996  0.202816  0.120813  1
  O  O17  1  0.797100  0.202784  0.120812  1
  O  O18  1  -0.000000  0.499877  0.066949  1
  O  O19  1  0.789207  0.499911  0.197059  1
  O  O20  1  0.210841  0.499902  0.197059  1
  O  O21  1  0.500009  0.210727  0.197057  1
  O  O22  1  0.210847  0.499818  0.150107  1
  O  O23  1  0.500067  0.210673  0.150113  1
  O  O24  1  0.703700  0.499879  0.173583  1
  O  O25  1  0.500032  0.296214  0.173585  1
  O  O26  1  0.396238  0.396120  0.191652  1
  O  O27  1  0.603812  0.396120  0.191653  1
  O  O28  1  0.396245  0.396067  0.155515  1
  O  O29  1  0.603821  0.396081  0.155516  1
  O  O30  1  0.147867  0.396944  0.217938  1
  O  O31  1  0.602951  0.147643  0.217931  1
  O  O32  1  0.852172  0.397008  0.217941  1
  O  O33  1  0.397041  0.147629  0.217930  1
  O  O34  1  0.147891  0.396939  0.129222  1
  O  O35  1  0.602993  0.147586  0.129236  1
  O  O36  1  0.852178  0.396900  0.129226  1
  O  O37  1  0.397076  0.147581  0.129243  1
  O  O38  1  0.789212  0.499843  0.150107  1
  O  O39  1  0.296351  0.499865  0.173583  1
  O  O40  1  -0.000000  0.499912  0.205293  1
  O  O41  1  -0.000000  0.499814  0.141874  1
  O  O42  1  -0.000000  0.289047  0.288433  1
  O  O43  1  0.103862  0.103652  0.293839  1
  O  O44  1  0.896284  0.103653  0.293836  1
  O  O45  1  0.147520  0.352411  0.242748  1
  O  O46  1  0.647515  0.147410  0.242741  1
  O  O47  1  0.852527  0.352416  0.242750  1
  O  O48  1  0.352535  0.147374  0.242743  1
  O  O49  1  0.352192  0.102819  0.267553  1
  O  O50  1  0.897079  0.352150  0.267561  1
  O  O51  1  0.647899  0.102827  0.267550  1
  O  O52  1  0.102990  0.352157  0.267559  1
  O  O53  1  -0.000000  0.275858  0.227831  1
  O  O54  1  0.500028  0.223941  0.257661  1
  O  O55  1  0.775916  0.499909  0.257660  1
  O  O56  1  0.202950  0.202835  0.226358  1
  O  O57  1  0.797049  0.202894  0.226353  1
  O  O58  1  0.297079  0.296926  0.259135  1
  O  O59  1  0.702975  0.296949  0.259137  1
  O  O60  1  0.000000  0.499887  0.280218  1
  O  O61  1  0.224173  0.499895  0.257658  1
  O  O62  1  0.289223  0.000000  0.058737  1
  O  O63  1  0.710855  0.000000  0.058730  1
  O  O64  1  -0.000000  0.710724  0.058735  1
  O  O65  1  0.647569  0.852359  0.104419  1
  O  O66  1  0.147556  0.647291  0.104420  1
  O  O67  1  0.352548  0.852360  0.104423  1
  O  O68  1  0.852535  0.647285  0.104417  1
  O  O69  1  0.647896  0.896859  0.079607  1
  O  O70  1  0.103018  0.647588  0.079608  1
  O  O71  1  0.352207  0.896868  0.079612  1
  O  O72  1  0.897104  0.647587  0.079607  1
  O  O73  1  0.500055  0.775775  0.089507  1
  O  O74  1  -0.000000  0.723870  0.119332  1
  O  O75  1  0.275905  0.000000  0.119333  1
  O  O76  1  0.702992  0.702765  0.088029  1
  O  O77  1  0.297115  0.702773  0.088034  1
  O  O78  1  0.797082  0.796849  0.120809  1
  O  O79  1  0.202977  0.796885  0.120809  1
  O  O80  1  0.724173  0.000000  0.119335  1
  O  O81  1  0.500042  0.000000  0.066967  1
  O  O82  1  0.500019  0.789061  0.197054  1
  O  O83  1  0.500031  0.789008  0.150107  1
  O  O84  1  0.500018  0.703539  0.173581  1
  O  O85  1  0.603809  0.603672  0.191651  1
  O  O86  1  0.396231  0.603670  0.191650  1
  O  O87  1  0.603811  0.603629  0.155514  1
  O  O88  1  0.396237  0.603620  0.155513  1
  O  O89  1  0.852180  0.602857  0.217939  1
  O  O90  1  0.397090  0.852141  0.217931  1
  O  O91  1  0.147885  0.602794  0.217944  1
  O  O92  1  0.603001  0.852159  0.217927  1
  O  O93  1  0.852195  0.602749  0.129227  1
  O  O94  1  0.397069  0.852110  0.129235  1
  O  O95  1  0.147874  0.602787  0.129230  1
  O  O96  1  0.602975  0.852076  0.129230  1
  O  O97  1  0.500064  0.000000  0.141892  1
  O  O98  1  0.500011  0.000000  0.205274  1
  O  O99  1  -0.000000  0.710710  0.288438  1
  O  O100  1  0.289258  0.000000  0.288435  1
  O  O101  1  0.896283  0.896103  0.293839  1
  O  O102  1  0.103860  0.896097  0.293842  1
  O  O103  1  0.852553  0.647397  0.242749  1
  O  O104  1  0.352549  0.852396  0.242743  1
  O  O105  1  0.147518  0.647399  0.242752  1
  O  O106  1  0.647518  0.852411  0.242740  1
  O  O107  1  0.647901  0.896977  0.267549  1
  O  O108  1  0.103008  0.647630  0.267564  1
  O  O109  1  0.352207  0.896969  0.267552  1
  O  O110  1  0.897097  0.647648  0.267562  1
  O  O111  1  -0.000000  0.723949  0.227831  1
  O  O112  1  0.275896  0.000000  0.227834  1
  O  O113  1  0.724150  0.000000  0.227832  1
  O  O114  1  0.500047  0.775848  0.257661  1
  O  O115  1  0.797097  0.796964  0.226356  1
  O  O116  1  0.202999  0.796911  0.226356  1
  O  O117  1  0.703002  0.702869  0.259135  1
  O  O118  1  0.297095  0.702857  0.259138  1
  O  O119  1  0.710887  0.000000  0.288429  1
  O  O120  1  0.500065  0.000000  0.280198  1
  O  O121  1  -0.000000  0.289063  0.335376  1
  O  O122  1  0.103831  0.103666  0.329976  1
  O  O123  1  0.896256  0.103665  0.329974  1
  O  O124  1  0.352596  0.147354  0.381080  1
  O  O125  1  0.852555  0.352327  0.381066  1
  O  O126  1  0.647560  0.147307  0.381074  1
  O  O127  1  0.147526  0.352314  0.381062  1
  O  O128  1  0.352209  0.102716  0.356273  1
  O  O129  1  0.897137  0.352094  0.356254  1
  O  O130  1  0.647912  0.102709  0.356266  1
  O  O131  1  0.103046  0.352100  0.356249  1
  O  O132  1  0.500078  0.223855  0.366155  1
  O  O133  1  0.775926  0.499803  0.366153  1
  O  O134  1  0.224197  0.499815  0.366157  1
  O  O135  1  -0.000000  0.275793  0.395985  1
  O  O136  1  0.297124  0.296849  0.364680  1
  O  O137  1  0.703038  0.296825  0.364676  1
  O  O138  1  0.202996  0.202816  0.397462  1
  O  O139  1  0.797100  0.202784  0.397461  1
  O  O140  1  -0.000000  0.499877  0.343598  1
  O  O141  1  -0.000000  0.203540  0.311905  1
  O  O142  1  0.789207  0.499911  0.473708  1
  O  O143  1  0.210841  0.499902  0.473709  1
  O  O144  1  0.500009  0.210727  0.473706  1
  O  O145  1  0.210847  0.499818  0.426756  1
  O  O146  1  0.500067  0.210673  0.426763  1
  O  O147  1  0.703700  0.499879  0.450233  1
  O  O148  1  0.500032  0.296214  0.450234  1
  O  O149  1  0.396238  0.396120  0.468302  1
  O  O150  1  0.603812  0.396120  0.468302  1
  O  O151  1  0.396245  0.396067  0.432164  1
  O  O152  1  0.603821  0.396081  0.432165  1
  O  O153  1  0.147867  0.396944  0.494587  1
  O  O154  1  0.602951  0.147643  0.494580  1
  O  O155  1  0.852172  0.397008  0.494590  1
  O  O156  1  0.397041  0.147629  0.494579  1
  O  O157  1  0.147891  0.396939  0.405871  1
  O  O158  1  0.602993  0.147586  0.405885  1
  O  O159  1  0.852178  0.396900  0.405876  1
  O  O160  1  0.397076  0.147581  0.405892  1
  O  O161  1  0.789212  0.499843  0.426756  1
  O  O162  1  0.296351  0.499865  0.450232  1
  O  O163  1  -0.000000  0.499912  0.481942  1
  O  O164  1  -0.000000  0.499814  0.418523  1
  O  O165  1  -0.000000  0.289047  0.565083  1
  O  O166  1  0.103862  0.103652  0.570488  1
  O  O167  1  0.896284  0.103653  0.570485  1
  O  O168  1  0.147520  0.352411  0.519397  1
  O  O169  1  0.647515  0.147410  0.519391  1
  O  O170  1  0.852527  0.352416  0.519399  1
  O  O171  1  0.352535  0.147374  0.519392  1
  O  O172  1  0.352192  0.102819  0.544202  1
  O  O173  1  0.897079  0.352150  0.544210  1
  O  O174  1  0.647899  0.102827  0.544199  1
  O  O175  1  0.102990  0.352157  0.544208  1
  O  O176  1  -0.000000  0.275858  0.504480  1
  O  O177  1  0.500028  0.223941  0.534311  1
  O  O178  1  0.775916  0.499909  0.534309  1
  O  O179  1  0.202950  0.202835  0.503007  1
  O  O180  1  0.797049  0.202894  0.503002  1
  O  O181  1  0.297079  0.296926  0.535785  1
  O  O182  1  0.702975  0.296949  0.535786  1
  O  O183  1  -0.000000  0.499887  0.556867  1
  O  O184  1  0.224173  0.499895  0.534307  1
  O  O185  1  0.289223  0.000000  0.335386  1
  O  O186  1  0.710855  0.000000  0.335379  1
  O  O187  1  -0.000000  0.710724  0.335384  1
  O  O188  1  0.203734  0.000000  0.311910  1
  O  O189  1  -0.000000  0.796221  0.311911  1
  O  O190  1  0.896260  0.896111  0.329977  1
  O  O191  1  0.103835  0.896116  0.329979  1
  O  O192  1  0.647569  0.852359  0.381068  1
  O  O193  1  0.147556  0.647291  0.381069  1
  O  O194  1  0.352548  0.852360  0.381072  1
  O  O195  1  0.852535  0.647285  0.381066  1
  O  O196  1  0.647896  0.896859  0.356256  1
  O  O197  1  0.103018  0.647588  0.356257  1
  O  O198  1  0.352207  0.896868  0.356261  1
  O  O199  1  0.897104  0.647587  0.356256  1
  O  O200  1  0.500055  0.775775  0.366156  1
  O  O201  1  -0.000000  0.723870  0.395981  1
  O  O202  1  0.275905  0.000000  0.395983  1
  O  O203  1  0.702992  0.702765  0.364678  1
  O  O204  1  0.297115  0.702773  0.364683  1
  O  O205  1  0.797082  0.796849  0.397458  1
  O  O206  1  0.202977  0.796885  0.397458  1
  O  O207  1  0.724173  0.000000  0.395985  1
  O  O208  1  0.500042  0.000000  0.343616  1
  O  O209  1  0.796389  0.000000  0.311905  1
  O  O210  1  0.500019  0.789061  0.473703  1
  O  O211  1  0.500031  0.789008  0.426756  1
  O  O212  1  0.500018  0.703539  0.450230  1
  O  O213  1  0.603809  0.603672  0.468300  1
  O  O214  1  0.396231  0.603670  0.468300  1
  O  O215  1  0.603811  0.603629  0.432163  1
  O  O216  1  0.396237  0.603620  0.432163  1
  O  O217  1  0.852180  0.602857  0.494588  1
  O  O218  1  0.397090  0.852141  0.494580  1
  O  O219  1  0.147885  0.602794  0.494593  1
  O  O220  1  0.603001  0.852159  0.494576  1
  O  O221  1  0.852195  0.602749  0.405876  1
  O  O222  1  0.397069  0.852110  0.405884  1
  O  O223  1  0.147874  0.602787  0.405880  1
  O  O224  1  0.602975  0.852076  0.405880  1
  O  O225  1  0.500064  0.000000  0.418541  1
  O  O226  1  0.500011  0.000000  0.481923  1
  O  O227  1  -0.000000  0.710710  0.565087  1
  O  O228  1  0.289258  0.000000  0.565084  1
  O  O229  1  0.896283  0.896103  0.570489  1
  O  O230  1  0.103860  0.896097  0.570491  1
  O  O231  1  0.852553  0.647397  0.519398  1
  O  O232  1  0.352549  0.852396  0.519392  1
  O  O233  1  0.147518  0.647399  0.519402  1
  O  O234  1  0.647518  0.852411  0.519389  1
  O  O235  1  0.647901  0.896977  0.544198  1
  O  O236  1  0.103008  0.647630  0.544214  1
  O  O237  1  0.352207  0.896969  0.544202  1
  O  O238  1  0.897097  0.647648  0.544211  1
  O  O239  1  -0.000000  0.723949  0.504480  1
  O  O240  1  0.275896  0.000000  0.504483  1
  O  O241  1  0.724150  0.000000  0.504481  1
  O  O242  1  0.500047  0.775848  0.534310  1
  O  O243  1  0.797097  0.796964  0.503005  1
  O  O244  1  0.202999  0.796911  0.503005  1
  O  O245  1  0.703002  0.702869  0.535784  1
  O  O246  1  0.297095  0.702857  0.535787  1
  O  O247  1  0.710887  -0.000000  0.565079  1
  O  O248  1  0.500065  0.000000  0.556848  1
  O  O249  1  -0.000000  0.289063  0.612025  1
  O  O250  1  0.103831  0.103666  0.606626  1
  O  O251  1  0.896256  0.103665  0.606623  1
  O  O252  1  0.352596  0.147354  0.657729  1
  O  O253  1  0.852555  0.352327  0.657715  1
  O  O254  1  0.647560  0.147307  0.657723  1
  O  O255  1  0.147526  0.352314  0.657712  1
  O  O256  1  0.352209  0.102716  0.632922  1
  O  O257  1  0.897137  0.352094  0.632904  1
  O  O258  1  0.647912  0.102709  0.632915  1
  O  O259  1  0.103046  0.352100  0.632898  1
  O  O260  1  0.500078  0.223855  0.642804  1
  O  O261  1  0.775926  0.499803  0.642803  1
  O  O262  1  0.224197  0.499815  0.642807  1
  O  O263  1  -0.000000  0.275793  0.672635  1
  O  O264  1  0.297124  0.296849  0.641329  1
  O  O265  1  0.703038  0.296825  0.641325  1
  O  O266  1  0.202996  0.202816  0.674111  1
  O  O267  1  0.797100  0.202784  0.674110  1
  O  O268  1  -0.000000  0.499877  0.620247  1
  O  O269  1  -0.000000  0.203540  0.588554  1
  O  O270  1  0.789207  0.499911  0.750358  1
  O  O271  1  0.210841  0.499902  0.750358  1
  O  O272  1  0.500009  0.210727  0.750355  1
  O  O273  1  0.210847  0.499818  0.703406  1
  O  O274  1  0.500067  0.210673  0.703412  1
  O  O275  1  0.703700  0.499879  0.726882  1
  O  O276  1  0.500032  0.296214  0.726883  1
  O  O277  1  0.396238  0.396120  0.744951  1
  O  O278  1  0.603812  0.396120  0.744952  1
  O  O279  1  0.396245  0.396067  0.708814  1
  O  O280  1  0.603821  0.396081  0.708814  1
  O  O281  1  0.147867  0.396944  0.771236  1
  O  O282  1  0.602951  0.147643  0.771229  1
  O  O283  1  0.852172  0.397008  0.771240  1
  O  O284  1  0.397041  0.147629  0.771229  1
  O  O285  1  0.147891  0.396939  0.682520  1
  O  O286  1  0.602993  0.147586  0.682534  1
  O  O287  1  0.852178  0.396900  0.682525  1
  O  O288  1  0.397076  0.147581  0.682541  1
  O  O289  1  0.789212  0.499843  0.703406  1
  O  O290  1  0.296351  0.499865  0.726881  1
  O  O291  1  -0.000000  0.499912  0.758591  1
  O  O292  1  -0.000000  0.499814  0.695172  1
  O  O293  1  -0.000000  0.289047  0.841732  1
  O  O294  1  0.147520  0.352411  0.796046  1
  O  O295  1  0.647515  0.147410  0.796040  1
  O  O296  1  0.852527  0.352416  0.796048  1
  O  O297  1  0.352535  0.147374  0.796041  1
  O  O298  1  0.352192  0.102819  0.820851  1
  O  O299  1  0.897079  0.352150  0.820860  1
  O  O300  1  0.647899  0.102827  0.820848  1
  O  O301  1  0.102990  0.352157  0.820858  1
  O  O302  1  -0.000000  0.275858  0.781130  1
  O  O303  1  0.500028  0.223941  0.810960  1
  O  O304  1  0.775916  0.499909  0.810958  1
  O  O305  1  0.202950  0.202835  0.779656  1
  O  O306  1  0.797049  0.202894  0.779651  1
  O  O307  1  0.297079  0.296926  0.812434  1
  O  O308  1  0.702975  0.296949  0.812435  1
  O  O309  1  -0.000000  0.499887  0.833516  1
  O  O310  1  0.224173  0.499895  0.810956  1
  O  O311  1  0.289223  0.000000  0.612036  1
  O  O312  1  0.710855  0.000000  0.612029  1
  O  O313  1  -0.000000  0.710724  0.612033  1
  O  O314  1  0.203734  0.000000  0.588559  1
  O  O315  1  -0.000000  0.796221  0.588560  1
  O  O316  1  0.896260  0.896111  0.606626  1
  O  O317  1  0.103835  0.896116  0.606628  1
  O  O318  1  0.647569  0.852359  0.657718  1
  O  O319  1  0.147556  0.647291  0.657718  1
  O  O320  1  0.352548  0.852360  0.657722  1
  O  O321  1  0.852535  0.647285  0.657715  1
  O  O322  1  0.647896  0.896859  0.632906  1
  O  O323  1  0.103018  0.647588  0.632907  1
  O  O324  1  0.352207  0.896868  0.632910  1
  O  O325  1  0.897104  0.647587  0.632906  1
  O  O326  1  0.500055  0.775775  0.642806  1
  O  O327  1  -0.000000  0.723870  0.672631  1
  O  O328  1  0.275905  0.000000  0.672632  1
  O  O329  1  0.702992  0.702765  0.641328  1
  O  O330  1  0.297115  0.702773  0.641332  1
  O  O331  1  0.797082  0.796849  0.674108  1
  O  O332  1  0.202977  0.796885  0.674107  1
  O  O333  1  0.724173  0.000000  0.672634  1
  O  O334  1  0.500042  0.000000  0.620265  1
  O  O335  1  0.796389  0.000000  0.588555  1
  O  O336  1  0.500019  0.789061  0.750353  1
  O  O337  1  0.500031  0.789008  0.703405  1
  O  O338  1  0.500018  0.703539  0.726879  1
  O  O339  1  0.603809  0.603672  0.744949  1
  O  O340  1  0.396231  0.603670  0.744949  1
  O  O341  1  0.603811  0.603629  0.708812  1
  O  O342  1  0.396237  0.603620  0.708812  1
  O  O343  1  0.852180  0.602857  0.771237  1
  O  O344  1  0.397090  0.852141  0.771230  1
  O  O345  1  0.147885  0.602794  0.771242  1
  O  O346  1  0.603001  0.852159  0.771226  1
  O  O347  1  0.852195  0.602749  0.682525  1
  O  O348  1  0.397069  0.852110  0.682533  1
  O  O349  1  0.147874  0.602787  0.682529  1
  O  O350  1  0.602975  0.852076  0.682529  1
  O  O351  1  0.500064  0.000000  0.695190  1
  O  O352  1  0.500011  0.000000  0.758572  1
  O  O353  1  -0.000000  0.710710  0.841737  1
  O  O354  1  0.289258  0.000000  0.841733  1
  O  O355  1  0.852553  0.647397  0.796047  1
  O  O356  1  0.352549  0.852396  0.796041  1
  O  O357  1  0.147518  0.647399  0.796051  1
  O  O358  1  0.647518  0.852411  0.796038  1
  O  O359  1  0.647901  0.896977  0.820847  1
  O  O360  1  0.103008  0.647630  0.820863  1
  O  O361  1  0.352207  0.896969  0.820851  1
  O  O362  1  0.897097  0.647648  0.820860  1
  O  O363  1  -0.000000  0.723949  0.781129  1
  O  O364  1  0.275896  0.000000  0.781133  1
  O  O365  1  0.724150  0.000000  0.781130  1
  O  O366  1  0.500047  0.775848  0.810959  1
  O  O367  1  0.797097  0.796964  0.779654  1
  O  O368  1  0.202999  0.796911  0.779654  1
  O  O369  1  0.703002  0.702869  0.812433  1
  O  O370  1  0.297095  0.702857  0.812436  1
  O  O371  1  0.710887  0.000000  0.841728  1
  O  O372  1  0.500065  -0.000000  0.833497  1
  Si  Si373  1  0.000000  0.373150  0.070553  1
  Si  Si374  1  0.304745  0.125721  0.118681  1
  Si  Si375  1  0.874110  0.304563  0.118672  1
  Si  Si376  1  0.695351  0.125694  0.118678  1
  Si  Si377  1  0.374145  0.195083  0.090173  1
  Si  Si378  1  0.804767  0.373936  0.090162  1
  Si  Si379  1  0.626008  0.195064  0.090169  1
  Si  Si380  1  0.195373  0.373943  0.090162  1
  Si  Si381  1  0.125973  0.304579  0.118670  1
  Si  Si382  1  0.873250  0.499823  0.138273  1
  Si  Si383  1  0.321229  0.499890  0.188922  1
  Si  Si384  1  0.500025  0.321089  0.188924  1
  Si  Si385  1  0.321238  0.499843  0.158244  1
  Si  Si386  1  0.500038  0.321046  0.158245  1
  Si  Si387  1  0.873244  0.499923  0.208893  1
  Si  Si388  1  0.126808  0.499889  0.208894  1
  Si  Si389  1  0.500000  0.126613  0.208880  1
  Si  Si390  1  0.126813  0.499835  0.138273  1
  Si  Si391  1  0.500056  0.126563  0.138289  1
  Si  Si392  1  0.678821  0.499860  0.158245  1
  Si  Si393  1  0.678815  0.499896  0.188922  1
  Si  Si394  1  -0.000000  0.373167  0.276611  1
  Si  Si395  1  0.304706  0.125751  0.228491  1
  Si  Si396  1  0.374098  0.195153  0.256997  1
  Si  Si397  1  0.195339  0.374026  0.257000  1
  Si  Si398  1  0.625962  0.195172  0.256997  1
  Si  Si399  1  0.804727  0.374035  0.257003  1
  Si  Si400  1  -0.000000  0.178682  0.296566  1
  Si  Si401  1  0.125943  0.304620  0.228494  1
  Si  Si402  1  0.695314  0.125788  0.228488  1
  Si  Si403  1  0.874079  0.304655  0.228494  1
  Si  Si404  1  0.000000  0.626596  0.070556  1
  Si  Si405  1  0.625988  0.804552  0.090166  1
  Si  Si406  1  0.195366  0.625684  0.090167  1
  Si  Si407  1  0.374124  0.804556  0.090170  1
  Si  Si408  1  0.804742  0.625677  0.090163  1
  Si  Si409  1  0.874103  0.695078  0.118671  1
  Si  Si410  1  0.304724  0.873979  0.118675  1
  Si  Si411  1  0.125968  0.695101  0.118672  1
  Si  Si412  1  0.695345  0.873952  0.118674  1
  Si  Si413  1  0.373266  0.000000  0.070571  1
  Si  Si414  1  0.626827  0.000000  0.070565  1
  Si  Si415  1  0.500038  0.873116  0.138283  1
  Si  Si416  1  0.500031  0.873167  0.208878  1
  Si  Si417  1  0.500021  0.678657  0.158242  1
  Si  Si418  1  0.500019  0.678697  0.188921  1
  Si  Si419  1  0.821276  0.000000  0.296567  1
  Si  Si420  1  -0.000000  0.821075  0.296571  1
  Si  Si421  1  0.874107  0.695184  0.228494  1
  Si  Si422  1  0.304740  0.874010  0.228490  1
  Si  Si423  1  0.125970  0.695149  0.228496  1
  Si  Si424  1  0.695337  0.874045  0.228488  1
  Si  Si425  1  0.625977  0.804636  0.256995  1
  Si  Si426  1  0.195347  0.625767  0.257004  1
  Si  Si427  1  0.374115  0.804628  0.256998  1
  Si  Si428  1  0.804750  0.625778  0.257002  1
  Si  Si429  1  -0.000000  0.626612  0.276613  1
  Si  Si430  1  0.373281  0.000000  0.276599  1
  Si  Si431  1  0.626843  0.000000  0.276596  1
  Si  Si432  1  0.178863  0.000000  0.296571  1
  Si  Si433  1  -0.000000  0.373150  0.347202  1
  Si  Si434  1  0.304745  0.125721  0.395330  1
  Si  Si435  1  0.874110  0.304563  0.395321  1
  Si  Si436  1  -0.000000  0.178692  0.327244  1
  Si  Si437  1  0.695351  0.125694  0.395327  1
  Si  Si438  1  0.374145  0.195083  0.366823  1
  Si  Si439  1  0.804767  0.373936  0.366812  1
  Si  Si440  1  0.626008  0.195064  0.366818  1
  Si  Si441  1  0.195373  0.373943  0.366812  1
  Si  Si442  1  0.125973  0.304579  0.395319  1
  Si  Si443  1  0.873250  0.499823  0.414923  1
  Si  Si444  1  0.321229  0.499890  0.465571  1
  Si  Si445  1  0.500025  0.321089  0.465573  1
  Si  Si446  1  0.321238  0.499843  0.434894  1
  Si  Si447  1  0.500038  0.321046  0.434894  1
  Si  Si448  1  0.873244  0.499923  0.485542  1
  Si  Si449  1  0.126808  0.499889  0.485543  1
  Si  Si450  1  0.500000  0.126613  0.485529  1
  Si  Si451  1  0.126813  0.499835  0.414922  1
  Si  Si452  1  0.500056  0.126563  0.414939  1
  Si  Si453  1  0.678821  0.499860  0.434894  1
  Si  Si454  1  0.678815  0.499896  0.465571  1
  Si  Si455  1  -0.000000  0.373167  0.553260  1
  Si  Si456  1  0.304706  0.125751  0.505140  1
  Si  Si457  1  0.374098  0.195153  0.533647  1
  Si  Si458  1  0.195339  0.374026  0.533649  1
  Si  Si459  1  0.625962  0.195172  0.533646  1
  Si  Si460  1  0.804727  0.374035  0.533652  1
  Si  Si461  1  -0.000000  0.178682  0.573215  1
  Si  Si462  1  0.125943  0.304620  0.505143  1
  Si  Si463  1  0.695314  0.125788  0.505138  1
  Si  Si464  1  0.874079  0.304655  0.505143  1
  Si  Si465  1  -0.000000  0.626596  0.347206  1
  Si  Si466  1  -0.000000  0.821082  0.327250  1
  Si  Si467  1  0.625988  0.804552  0.366815  1
  Si  Si468  1  0.195366  0.625684  0.366816  1
  Si  Si469  1  0.374124  0.804556  0.366819  1
  Si  Si470  1  0.804742  0.625677  0.366813  1
  Si  Si471  1  0.874103  0.695078  0.395320  1
  Si  Si472  1  0.304724  0.873979  0.395324  1
  Si  Si473  1  0.125968  0.695101  0.395322  1
  Si  Si474  1  0.695345  0.873952  0.395323  1
  Si  Si475  1  0.373266  0.000000  0.347220  1
  Si  Si476  1  0.626827  -0.000000  0.347215  1
  Si  Si477  1  0.178840  0.000000  0.327248  1
  Si  Si478  1  0.821257  0.000000  0.327244  1
  Si  Si479  1  0.500038  0.873116  0.414933  1
  Si  Si480  1  0.500031  0.873167  0.485528  1
  Si  Si481  1  0.500021  0.678657  0.434891  1
  Si  Si482  1  0.500019  0.678697  0.465570  1
  Si  Si483  1  0.821276  0.000000  0.573216  1
  Si  Si484  1  -0.000000  0.821075  0.573220  1
  Si  Si485  1  0.874107  0.695184  0.505144  1
  Si  Si486  1  0.304740  0.874010  0.505140  1
  Si  Si487  1  0.125970  0.695149  0.505145  1
  Si  Si488  1  0.695337  0.874045  0.505137  1
  Si  Si489  1  0.625977  0.804636  0.533644  1
  Si  Si490  1  0.195347  0.625767  0.533653  1
  Si  Si491  1  0.374115  0.804628  0.533647  1
  Si  Si492  1  0.804750  0.625778  0.533651  1
  Si  Si493  1  -0.000000  0.626612  0.553263  1
  Si  Si494  1  0.373281  0.000000  0.553248  1
  Si  Si495  1  0.626843  0.000000  0.553246  1
  Si  Si496  1  0.178863  0.000000  0.573220  1
  Si  Si497  1  -0.000000  0.373150  0.623851  1
  Si  Si498  1  0.304745  0.125721  0.671980  1
  Si  Si499  1  0.874110  0.304563  0.671970  1
  Si  Si500  1  -0.000000  0.178692  0.603894  1
  Si  Si501  1  0.695351  0.125694  0.671976  1
  Si  Si502  1  0.374145  0.195083  0.643472  1
  Si  Si503  1  0.804767  0.373936  0.643461  1
  Si  Si504  1  0.626008  0.195064  0.643467  1
  Si  Si505  1  0.195373  0.373943  0.643461  1
  Si  Si506  1  0.125973  0.304579  0.671968  1
  Si  Si507  1  0.873250  0.499823  0.691572  1
  Si  Si508  1  0.321229  0.499890  0.742220  1
  Si  Si509  1  0.500025  0.321089  0.742222  1
  Si  Si510  1  0.321238  0.499843  0.711543  1
  Si  Si511  1  0.500038  0.321046  0.711544  1
  Si  Si512  1  0.873244  0.499923  0.762192  1
  Si  Si513  1  0.126808  0.499889  0.762193  1
  Si  Si514  1  0.500000  0.126613  0.762179  1
  Si  Si515  1  0.126813  0.499835  0.691572  1
  Si  Si516  1  0.500056  0.126563  0.691588  1
  Si  Si517  1  0.678821  0.499860  0.711543  1
  Si  Si518  1  0.678815  0.499896  0.742220  1
  Si  Si519  1  -0.000000  0.373167  0.829909  1
  Si  Si520  1  0.304706  0.125751  0.781790  1
  Si  Si521  1  0.374098  0.195153  0.810296  1
  Si  Si522  1  0.195339  0.374026  0.810299  1
  Si  Si523  1  0.625962  0.195172  0.810295  1
  Si  Si524  1  0.804727  0.374035  0.810301  1
  Si  Si525  1  0.125943  0.304620  0.781793  1
  Si  Si526  1  0.695314  0.125788  0.781787  1
  Si  Si527  1  0.874079  0.304655  0.781792  1
  Si  Si528  1  -0.000000  0.626596  0.623855  1
  Si  Si529  1  -0.000000  0.821082  0.603899  1
  Si  Si530  1  0.625988  0.804552  0.643465  1
  Si  Si531  1  0.195366  0.625684  0.643466  1
  Si  Si532  1  0.374124  0.804556  0.643468  1
  Si  Si533  1  0.804742  0.625677  0.643462  1
  Si  Si534  1  0.874103  0.695078  0.671969  1
  Si  Si535  1  0.304724  0.873979  0.671974  1
  Si  Si536  1  0.125968  0.695101  0.671971  1
  Si  Si537  1  0.695345  0.873952  0.671972  1
  Si  Si538  1  0.373266  0.000000  0.623869  1
  Si  Si539  1  0.626827  0.000000  0.623864  1
  Si  Si540  1  0.178840  0.000000  0.603898  1
  Si  Si541  1  0.821257  0.000000  0.603893  1
  Si  Si542  1  0.500038  0.873116  0.691582  1
  Si  Si543  1  0.500031  0.873167  0.762177  1
  Si  Si544  1  0.500021  0.678657  0.711541  1
  Si  Si545  1  0.500019  0.678697  0.742219  1
  Si  Si546  1  0.874107  0.695184  0.781793  1
  Si  Si547  1  0.304740  0.874010  0.781789  1
  Si  Si548  1  0.125970  0.695149  0.781795  1
  Si  Si549  1  0.695337  0.874045  0.781786  1
  Si  Si550  1  0.625977  0.804636  0.810293  1
  Si  Si551  1  0.195347  0.625767  0.810302  1
  Si  Si552  1  0.374115  0.804628  0.810297  1
  Si  Si553  1  0.804750  0.625778  0.810300  1
  Si  Si554  1  -0.000000  0.626612  0.829912  1
  Si  Si555  1  0.373281  0.000000  0.829898  1
  Si  Si556  1  0.626843  0.000000  0.829895  1
  H  H557  1  -0.000000  0.289063  0.049768  1
  H  H558  1  0.289223  0.000000  0.049779  1
  H  H559  1  0.710855  0.000000  0.049772  1
  H  H560  1  -0.000000  0.710724  0.049777  1
  H  H561  1  -0.000000  0.289047  0.850690  1
  H  H562  1  -0.000000  0.710710  0.850695  1
  H  H563  1  0.289258  0.000000  0.850692  1
  H  H564  1  0.710887  0.000000  0.850686  1
