# generated using pymatgen
data_Si32H2O65
_symmetry_space_group_name_H-M   'P 1'
_cell_length_a   12.16011045
_cell_length_b   12.16651561
_cell_length_c   77.38799189
_cell_angle_alpha   90.00000000
_cell_angle_beta   90.00000000
_cell_angle_gamma   90.00000000
_symmetry_Int_Tables_number   1
_chemical_formula_structural   Si32H2O65
_chemical_formula_sum   'Si128 H8 O260'
_cell_volume   11449.2572841
_cell_formula_units_Z   4
loop_
 _symmetry_equiv_pos_site_id
 _symmetry_equiv_pos_as_xyz
  1  'x, y, z'
loop_
 _atom_site_type_symbol
 _atom_site_label
 _atom_site_symmetry_multiplicity
 _atom_site_fract_x
 _atom_site_fract_y
 _atom_site_fract_z
 _atom_site_occupancy
  O  O1  1  -0.000000  0.289063  0.106709  1
  O  O2  1  0.103831  0.103666  0.099699  1
  O  O3  1  0.896256  0.103665  0.099697  1
  O  O4  1  0.352596  0.147354  0.166043  1
  O  O5  1  0.852555  0.352327  0.166024  1
  O  O6  1  0.647560  0.147307  0.166034  1
  O  O7  1  0.147526  0.352314  0.166020  1
  O  O8  1  0.352209  0.102716  0.133838  1
  O  O9  1  0.897137  0.352094  0.133814  1
  O  O10  1  0.647912  0.102709  0.133829  1
  O  O11  1  0.103046  0.352100  0.133806  1
  O  O12  1  0.500078  0.223855  0.146667  1
  O  O13  1  0.775926  0.499803  0.146665  1
  O  O14  1  0.224197  0.499815  0.146670  1
  O  O15  1  -0.000000  0.275793  0.185393  1
  O  O16  1  0.297124  0.296849  0.144752  1
  O  O17  1  0.703038  0.296825  0.144747  1
  O  O18  1  0.202996  0.202816  0.187310  1
  O  O19  1  0.797100  0.202784  0.187309  1
  O  O20  1  -0.000000  0.499877  0.117384  1
  O  O21  1  0.000000  0.203540  0.076239  1
  O  O22  1  0.789207  0.499911  0.286293  1
  O  O23  1  0.210841  0.499902  0.286294  1
  O  O24  1  0.500009  0.210727  0.286290  1
  O  O25  1  0.210847  0.499818  0.225340  1
  O  O26  1  0.500067  0.210673  0.225348  1
  O  O27  1  0.703700  0.499879  0.255817  1
  O  O28  1  0.500032  0.296214  0.255819  1
  O  O29  1  0.396238  0.396120  0.279274  1
  O  O30  1  0.603812  0.396120  0.279275  1
  O  O31  1  0.396245  0.396067  0.232361  1
  O  O32  1  0.603821  0.396081  0.232361  1
  O  O33  1  0.147867  0.396944  0.313398  1
  O  O34  1  0.602951  0.147643  0.313389  1
  O  O35  1  0.852172  0.397008  0.313402  1
  O  O36  1  0.397041  0.147629  0.313388  1
  O  O37  1  0.147891  0.396939  0.198226  1
  O  O38  1  0.602993  0.147586  0.198245  1
  O  O39  1  0.852178  0.396900  0.198232  1
  O  O40  1  0.397076  0.147581  0.198254  1
  O  O41  1  0.789212  0.499843  0.225340  1
  O  O42  1  0.296351  0.499865  0.255816  1
  O  O43  1  -0.000000  0.499912  0.296983  1
  O  O44  1  -0.000000  0.499814  0.214652  1
  O  O45  1  0.000000  0.289047  0.404916  1
  O  O46  1  0.103862  0.103652  0.411933  1
  O  O47  1  0.896284  0.103653  0.411930  1
  O  O48  1  0.147520  0.352411  0.345606  1
  O  O49  1  0.647515  0.147410  0.345598  1
  O  O50  1  0.852527  0.352416  0.345609  1
  O  O51  1  0.352535  0.147374  0.345600  1
  O  O52  1  0.352192  0.102819  0.377809  1
  O  O53  1  0.897079  0.352150  0.377819  1
  O  O54  1  0.647899  0.102827  0.377805  1
  O  O55  1  0.102990  0.352157  0.377817  1
  O  O56  1  0.000000  0.275858  0.326242  1
  O  O57  1  0.500028  0.223941  0.364967  1
  O  O58  1  0.775916  0.499909  0.364965  1
  O  O59  1  0.202950  0.202835  0.324329  1
  O  O60  1  0.797049  0.202894  0.324323  1
  O  O61  1  0.297079  0.296926  0.366881  1
  O  O62  1  0.702975  0.296949  0.366883  1
  O  O63  1  0.000000  0.499887  0.394250  1
  O  O64  1  0.224173  0.499895  0.364963  1
  O  O65  1  0.289223  0.000000  0.106723  1
  O  O66  1  0.710855  -0.000000  0.106714  1
  O  O67  1  -0.000000  0.710724  0.106720  1
  O  O68  1  0.203734  -0.000000  0.076246  1
  O  O69  1  -0.000000  0.796221  0.076246  1
  O  O70  1  0.896260  0.896111  0.099700  1
  O  O71  1  0.103835  0.896116  0.099703  1
  O  O72  1  0.647569  0.852359  0.166028  1
  O  O73  1  0.147556  0.647291  0.166028  1
  O  O74  1  0.352548  0.852360  0.166033  1
  O  O75  1  0.852535  0.647285  0.166025  1
  O  O76  1  0.647896  0.896859  0.133816  1
  O  O77  1  0.103018  0.647588  0.133818  1
  O  O78  1  0.352207  0.896868  0.133822  1
  O  O79  1  0.897104  0.647587  0.133816  1
  O  O80  1  0.500055  0.775775  0.146669  1
  O  O81  1  0.000000  0.723870  0.185388  1
  O  O82  1  0.275905  -0.000000  0.185389  1
  O  O83  1  0.702992  0.702765  0.144750  1
  O  O84  1  0.297115  0.702773  0.144756  1
  O  O85  1  0.797082  0.796849  0.187305  1
  O  O86  1  0.202977  0.796885  0.187305  1
  O  O87  1  0.724173  -0.000000  0.185392  1
  O  O88  1  0.500042  -0.000000  0.117407  1
  O  O89  1  0.796389  -0.000000  0.076240  1
  O  O90  1  0.500019  0.789061  0.286287  1
  O  O91  1  0.500031  0.789008  0.225340  1
  O  O92  1  0.500018  0.703539  0.255814  1
  O  O93  1  0.603809  0.603672  0.279272  1
  O  O94  1  0.396231  0.603670  0.279272  1
  O  O95  1  0.603811  0.603629  0.232359  1
  O  O96  1  0.396237  0.603620  0.232359  1
  O  O97  1  0.852180  0.602857  0.313399  1
  O  O98  1  0.397090  0.852141  0.313389  1
  O  O99  1  0.147885  0.602794  0.313406  1
  O  O100  1  0.603001  0.852159  0.313384  1
  O  O101  1  0.852195  0.602749  0.198233  1
  O  O102  1  0.397069  0.852110  0.198243  1
  O  O103  1  0.147874  0.602787  0.198238  1
  O  O104  1  0.602975  0.852076  0.198238  1
  O  O105  1  0.500064  -0.000000  0.214675  1
  O  O106  1  0.500011  -0.000000  0.296957  1
  O  O107  1  -0.000000  0.710710  0.404922  1
  O  O108  1  0.289258  -0.000000  0.404918  1
  O  O109  1  0.896283  0.896103  0.411934  1
  O  O110  1  0.103860  0.896097  0.411937  1
  O  O111  1  0.852553  0.647397  0.345608  1
  O  O112  1  0.352549  0.852396  0.345600  1
  O  O113  1  0.147518  0.647399  0.345613  1
  O  O114  1  0.647518  0.852411  0.345596  1
  O  O115  1  0.647901  0.896977  0.377803  1
  O  O116  1  0.103008  0.647630  0.377824  1
  O  O117  1  0.352207  0.896969  0.377808  1
  O  O118  1  0.897097  0.647648  0.377820  1
  O  O119  1  -0.000000  0.723949  0.326241  1
  O  O120  1  0.275896  -0.000000  0.326246  1
  O  O121  1  0.724150  -0.000000  0.326243  1
  O  O122  1  0.500047  0.775848  0.364967  1
  O  O123  1  0.797097  0.796964  0.324327  1
  O  O124  1  0.202999  0.796911  0.324326  1
  O  O125  1  0.703002  0.702869  0.366880  1
  O  O126  1  0.297095  0.702857  0.366884  1
  O  O127  1  0.710887  0.000000  0.404911  1
  O  O128  1  0.500065  -0.000000  0.394225  1
  O  O129  1  -0.000000  0.289063  0.465857  1
  O  O130  1  0.103831  0.103666  0.458847  1
  O  O131  1  0.896256  0.103665  0.458844  1
  O  O132  1  0.352596  0.147354  0.525190  1
  O  O133  1  0.852555  0.352327  0.525172  1
  O  O134  1  0.647560  0.147307  0.525182  1
  O  O135  1  0.147526  0.352314  0.525167  1
  O  O136  1  0.352209  0.102716  0.492985  1
  O  O137  1  0.897137  0.352094  0.492962  1
  O  O138  1  0.647912  0.102709  0.492976  1
  O  O139  1  0.103046  0.352100  0.492954  1
  O  O140  1  0.500078  0.223855  0.505814  1
  O  O141  1  0.775926  0.499803  0.505813  1
  O  O142  1  0.224197  0.499815  0.505818  1
  O  O143  1  -0.000000  0.275793  0.544541  1
  O  O144  1  0.297124  0.296849  0.503900  1
  O  O145  1  0.703038  0.296825  0.503894  1
  O  O146  1  0.202996  0.202816  0.546457  1
  O  O147  1  0.797100  0.202784  0.546456  1
  O  O148  1  -0.000000  0.499877  0.476531  1
  O  O149  1  -0.000000  0.203540  0.435387  1
  O  O150  1  0.789207  0.499911  0.645441  1
  O  O151  1  0.210841  0.499902  0.645441  1
  O  O152  1  0.500009  0.210727  0.645438  1
  O  O153  1  0.210847  0.499818  0.584488  1
  O  O154  1  0.500067  0.210673  0.584496  1
  O  O155  1  0.703700  0.499879  0.614965  1
  O  O156  1  0.500032  0.296214  0.614966  1
  O  O157  1  0.396238  0.396120  0.638422  1
  O  O158  1  0.603812  0.396120  0.638423  1
  O  O159  1  0.396245  0.396067  0.591508  1
  O  O160  1  0.603821  0.396081  0.591509  1
  O  O161  1  0.147867  0.396944  0.672546  1
  O  O162  1  0.602951  0.147643  0.672536  1
  O  O163  1  0.852172  0.397008  0.672550  1
  O  O164  1  0.397041  0.147629  0.672536  1
  O  O165  1  0.147891  0.396939  0.557374  1
  O  O166  1  0.602993  0.147586  0.557392  1
  O  O167  1  0.852178  0.396900  0.557380  1
  O  O168  1  0.397076  0.147581  0.557402  1
  O  O169  1  0.789212  0.499843  0.584488  1
  O  O170  1  0.296351  0.499865  0.614964  1
  O  O171  1  0.000000  0.499912  0.656130  1
  O  O172  1  0.000000  0.499814  0.573799  1
  O  O173  1  -0.000000  0.289047  0.764063  1
  O  O174  1  0.103862  0.103652  0.771081  1
  O  O175  1  0.896284  0.103653  0.771077  1
  O  O176  1  0.147520  0.352411  0.704754  1
  O  O177  1  0.647515  0.147410  0.704746  1
  O  O178  1  0.852527  0.352416  0.704757  1
  O  O179  1  0.352535  0.147374  0.704748  1
  O  O180  1  0.352192  0.102819  0.736956  1
  O  O181  1  0.897079  0.352150  0.736967  1
  O  O182  1  0.647899  0.102827  0.736952  1
  O  O183  1  0.102990  0.352157  0.736965  1
  O  O184  1  -0.000000  0.275858  0.685389  1
  O  O185  1  0.500028  0.223941  0.724115  1
  O  O186  1  0.775916  0.499909  0.724113  1
  O  O187  1  0.202950  0.202835  0.683477  1
  O  O188  1  0.797049  0.202894  0.683470  1
  O  O189  1  0.297079  0.296926  0.726029  1
  O  O190  1  0.702975  0.296949  0.726030  1
  O  O191  1  -0.000000  0.499887  0.753398  1
  O  O192  1  0.224173  0.499895  0.724111  1
  O  O193  1  0.289223  -0.000000  0.465871  1
  O  O194  1  0.710855  -0.000000  0.465861  1
  O  O195  1  -0.000000  0.710724  0.465868  1
  O  O196  1  0.203734  -0.000000  0.435393  1
  O  O197  1  -0.000000  0.796221  0.435394  1
  O  O198  1  0.896260  0.896111  0.458848  1
  O  O199  1  0.103835  0.896116  0.458850  1
  O  O200  1  0.647569  0.852359  0.525175  1
  O  O201  1  0.147556  0.647291  0.525176  1
  O  O202  1  0.352548  0.852360  0.525180  1
  O  O203  1  0.852535  0.647285  0.525172  1
  O  O204  1  0.647896  0.896859  0.492964  1
  O  O205  1  0.103018  0.647588  0.492965  1
  O  O206  1  0.352207  0.896868  0.492970  1
  O  O207  1  0.897104  0.647587  0.492964  1
  O  O208  1  0.500055  0.775775  0.505816  1
  O  O209  1  0.000000  0.723870  0.544535  1
  O  O210  1  0.275905  0.000000  0.544537  1
  O  O211  1  0.702992  0.702765  0.503898  1
  O  O212  1  0.297115  0.702773  0.503904  1
  O  O213  1  0.797082  0.796849  0.546453  1
  O  O214  1  0.202977  0.796885  0.546452  1
  O  O215  1  0.724173  -0.000000  0.544540  1
  O  O216  1  0.500042  0.000000  0.476555  1
  O  O217  1  0.796389  -0.000000  0.435387  1
  O  O218  1  0.500019  0.789061  0.645434  1
  O  O219  1  0.500031  0.789008  0.584487  1
  O  O220  1  0.500018  0.703539  0.614961  1
  O  O221  1  0.603809  0.603672  0.638420  1
  O  O222  1  0.396231  0.603670  0.638419  1
  O  O223  1  0.603811  0.603629  0.591507  1
  O  O224  1  0.396237  0.603620  0.591506  1
  O  O225  1  0.852180  0.602857  0.672547  1
  O  O226  1  0.397090  0.852141  0.672537  1
  O  O227  1  0.147885  0.602794  0.672554  1
  O  O228  1  0.603001  0.852159  0.672532  1
  O  O229  1  0.852195  0.602749  0.557380  1
  O  O230  1  0.397069  0.852110  0.557391  1
  O  O231  1  0.147874  0.602787  0.557385  1
  O  O232  1  0.602975  0.852076  0.557385  1
  O  O233  1  0.500064  0.000000  0.573823  1
  O  O234  1  0.500011  -0.000000  0.656105  1
  O  O235  1  -0.000000  0.710710  0.764070  1
  O  O236  1  0.289258  -0.000000  0.764066  1
  O  O237  1  0.896283  0.896103  0.771082  1
  O  O238  1  0.103860  0.896097  0.771085  1
  O  O239  1  0.852553  0.647397  0.704756  1
  O  O240  1  0.352549  0.852396  0.704748  1
  O  O241  1  0.147518  0.647399  0.704760  1
  O  O242  1  0.647518  0.852411  0.704744  1
  O  O243  1  0.647901  0.896977  0.736951  1
  O  O244  1  0.103008  0.647630  0.736971  1
  O  O245  1  0.352207  0.896969  0.736956  1
  O  O246  1  0.897097  0.647648  0.736968  1
  O  O247  1  0.000000  0.723949  0.685389  1
  O  O248  1  0.275896  -0.000000  0.685393  1
  O  O249  1  0.724150  0.000000  0.685390  1
  O  O250  1  0.500047  0.775848  0.724114  1
  O  O251  1  0.797097  0.796964  0.683474  1
  O  O252  1  0.202999  0.796911  0.683474  1
  O  O253  1  0.703002  0.702869  0.726028  1
  O  O254  1  0.297095  0.702857  0.726032  1
  O  O255  1  0.710887  -0.000000  0.764058  1
  O  O256  1  0.500065  -0.000000  0.753373  1
  O  O257  1  0.000000  0.203540  0.794535  1
  O  O258  1  0.203734  -0.000000  0.794541  1
  O  O259  1  -0.000000  0.796221  0.794542  1
  O  O260  1  0.796389  -0.000000  0.794535  1
  Si  Si261  1  0.000000  0.373150  0.122062  1
  Si  Si262  1  0.304745  0.125721  0.184542  1
  Si  Si263  1  0.874110  0.304563  0.184531  1
  Si  Si264  1  -0.000000  0.178692  0.096153  1
  Si  Si265  1  0.695351  0.125694  0.184538  1
  Si  Si266  1  0.374145  0.195083  0.147534  1
  Si  Si267  1  0.804767  0.373936  0.147519  1
  Si  Si268  1  0.626008  0.195064  0.147528  1
  Si  Si269  1  0.195373  0.373943  0.147519  1
  Si  Si270  1  0.125973  0.304579  0.184528  1
  Si  Si271  1  0.873250  0.499823  0.209977  1
  Si  Si272  1  0.321229  0.499890  0.275729  1
  Si  Si273  1  0.500025  0.321089  0.275732  1
  Si  Si274  1  0.321238  0.499843  0.235904  1
  Si  Si275  1  0.500038  0.321046  0.235905  1
  Si  Si276  1  0.873244  0.499923  0.301656  1
  Si  Si277  1  0.126808  0.499889  0.301658  1
  Si  Si278  1  0.500000  0.126613  0.301639  1
  Si  Si279  1  0.126813  0.499835  0.209977  1
  Si  Si280  1  0.500056  0.126563  0.209998  1
  Si  Si281  1  0.678821  0.499860  0.235904  1
  Si  Si282  1  0.678815  0.499896  0.275730  1
  Si  Si283  1  -0.000000  0.373167  0.389568  1
  Si  Si284  1  0.304706  0.125751  0.327098  1
  Si  Si285  1  0.374098  0.195153  0.364105  1
  Si  Si286  1  0.195339  0.374026  0.364109  1
  Si  Si287  1  0.625962  0.195172  0.364105  1
  Si  Si288  1  0.804727  0.374035  0.364112  1
  Si  Si289  1  -0.000000  0.178682  0.415474  1
  Si  Si290  1  0.125943  0.304620  0.327102  1
  Si  Si291  1  0.695314  0.125788  0.327095  1
  Si  Si292  1  0.874079  0.304655  0.327102  1
  Si  Si293  1  -0.000000  0.626596  0.122067  1
  Si  Si294  1  0.000000  0.821082  0.096160  1
  Si  Si295  1  0.625988  0.804552  0.147524  1
  Si  Si296  1  0.195366  0.625684  0.147525  1
  Si  Si297  1  0.374124  0.804556  0.147529  1
  Si  Si298  1  0.804742  0.625677  0.147521  1
  Si  Si299  1  0.874103  0.695078  0.184529  1
  Si  Si300  1  0.304724  0.873979  0.184535  1
  Si  Si301  1  0.125968  0.695101  0.184531  1
  Si  Si302  1  0.695345  0.873952  0.184533  1
  Si  Si303  1  0.373266  -0.000000  0.122085  1
  Si  Si304  1  0.626827  -0.000000  0.122078  1
  Si  Si305  1  0.178840  -0.000000  0.096158  1
  Si  Si306  1  0.821257  -0.000000  0.096153  1
  Si  Si307  1  0.500038  0.873116  0.209990  1
  Si  Si308  1  0.500031  0.873167  0.301637  1
  Si  Si309  1  0.500021  0.678657  0.235901  1
  Si  Si310  1  0.500019  0.678697  0.275728  1
  Si  Si311  1  0.821276  -0.000000  0.415475  1
  Si  Si312  1  0.000000  0.821075  0.415480  1
  Si  Si313  1  0.874107  0.695184  0.327103  1
  Si  Si314  1  0.304740  0.874010  0.327097  1
  Si  Si315  1  0.125970  0.695149  0.327105  1
  Si  Si316  1  0.695337  0.874045  0.327094  1
  Si  Si317  1  0.625977  0.804636  0.364102  1
  Si  Si318  1  0.195347  0.625767  0.364114  1
  Si  Si319  1  0.374115  0.804628  0.364107  1
  Si  Si320  1  0.804750  0.625778  0.364111  1
  Si  Si321  1  -0.000000  0.626612  0.389571  1
  Si  Si322  1  0.373281  0.000000  0.389552  1
  Si  Si323  1  0.626843  -0.000000  0.389549  1
  Si  Si324  1  0.178863  0.000000  0.415480  1
  Si  Si325  1  -0.000000  0.373150  0.481209  1
  Si  Si326  1  0.304745  0.125721  0.543690  1
  Si  Si327  1  0.874110  0.304563  0.543678  1
  Si  Si328  1  -0.000000  0.178692  0.455301  1
  Si  Si329  1  0.695351  0.125694  0.543686  1
  Si  Si330  1  0.374145  0.195083  0.506681  1
  Si  Si331  1  0.804767  0.373936  0.506667  1
  Si  Si332  1  0.626008  0.195064  0.506675  1
  Si  Si333  1  0.195373  0.373943  0.506667  1
  Si  Si334  1  0.125973  0.304579  0.543676  1
  Si  Si335  1  0.873250  0.499823  0.569125  1
  Si  Si336  1  0.321229  0.499890  0.634877  1
  Si  Si337  1  0.500025  0.321089  0.634879  1
  Si  Si338  1  0.321238  0.499843  0.595051  1
  Si  Si339  1  0.500038  0.321046  0.595052  1
  Si  Si340  1  0.873244  0.499923  0.660804  1
  Si  Si341  1  0.126808  0.499889  0.660805  1
  Si  Si342  1  0.500000  0.126613  0.660787  1
  Si  Si343  1  0.126813  0.499835  0.569125  1
  Si  Si344  1  0.500056  0.126563  0.569146  1
  Si  Si345  1  0.678821  0.499860  0.595052  1
  Si  Si346  1  0.678815  0.499896  0.634877  1
  Si  Si347  1  -0.000000  0.373167  0.748716  1
  Si  Si348  1  0.304706  0.125751  0.686246  1
  Si  Si349  1  0.374098  0.195153  0.723253  1
  Si  Si350  1  0.195339  0.374026  0.723257  1
  Si  Si351  1  0.625962  0.195172  0.723252  1
  Si  Si352  1  0.804727  0.374035  0.723260  1
  Si  Si353  1  -0.000000  0.178682  0.774621  1
  Si  Si354  1  0.125943  0.304620  0.686250  1
  Si  Si355  1  0.695314  0.125788  0.686243  1
  Si  Si356  1  0.874079  0.304655  0.686250  1
  Si  Si357  1  -0.000000  0.626596  0.481215  1
  Si  Si358  1  0.000000  0.821082  0.455307  1
  Si  Si359  1  0.625988  0.804552  0.506672  1
  Si  Si360  1  0.195366  0.625684  0.506673  1
  Si  Si361  1  0.374124  0.804556  0.506677  1
  Si  Si362  1  0.804742  0.625677  0.506668  1
  Si  Si363  1  0.874103  0.695078  0.543677  1
  Si  Si364  1  0.304724  0.873979  0.543682  1
  Si  Si365  1  0.125968  0.695101  0.543679  1
  Si  Si366  1  0.695345  0.873952  0.543681  1
  Si  Si367  1  0.373266  -0.000000  0.481233  1
  Si  Si368  1  0.626827  -0.000000  0.481226  1
  Si  Si369  1  0.178840  0.000000  0.455306  1
  Si  Si370  1  0.821257  0.000000  0.455300  1
  Si  Si371  1  0.500038  0.873116  0.569138  1
  Si  Si372  1  0.500031  0.873167  0.660785  1
  Si  Si373  1  0.500021  0.678657  0.595049  1
  Si  Si374  1  0.500019  0.678697  0.634876  1
  Si  Si375  1  0.821276  -0.000000  0.774622  1
  Si  Si376  1  -0.000000  0.821075  0.774628  1
  Si  Si377  1  0.874107  0.695184  0.686250  1
  Si  Si378  1  0.304740  0.874010  0.686245  1
  Si  Si379  1  0.125970  0.695149  0.686253  1
  Si  Si380  1  0.695337  0.874045  0.686242  1
  Si  Si381  1  0.625977  0.804636  0.723250  1
  Si  Si382  1  0.195347  0.625767  0.723261  1
  Si  Si383  1  0.374115  0.804628  0.723254  1
  Si  Si384  1  0.804750  0.625778  0.723259  1
  Si  Si385  1  0.000000  0.626612  0.748719  1
  Si  Si386  1  0.373281  -0.000000  0.748700  1
  Si  Si387  1  0.626843  -0.000000  0.748697  1
  Si  Si388  1  0.178863  -0.000000  0.774628  1
  H  H389  1  0.000000  0.203540  0.064610  1
  H  H390  1  0.203734  -0.000000  0.064616  1
  H  H391  1  -0.000000  0.796221  0.064617  1
  H  H392  1  0.796389  -0.000000  0.064610  1
  H  H393  1  -0.000000  0.203540  0.806164  1
  H  H394  1  0.203734  0.000000  0.806171  1
  H  H395  1  -0.000000  0.796221  0.806171  1
  H  H396  1  0.796389  -0.000000  0.806165  1
