# generated using pymatgen
data_Si13H2O27
_symmetry_space_group_name_H-M   'P 1'
_cell_length_a   12.70128613
_cell_length_b   11.41729918
_cell_length_c   41.39877343
_cell_angle_alpha   90.00000000
_cell_angle_beta   90.00000000
_cell_angle_gamma   90.00000000
_symmetry_Int_Tables_number   1
_chemical_formula_structural   Si13H2O27
_chemical_formula_sum   'Si52 H8 O108'
_cell_volume   6003.41761608
_cell_formula_units_Z   4
loop_
 _symmetry_equiv_pos_site_id
 _symmetry_equiv_pos_as_xyz
  1  'x, y, z'
loop_
 _atom_site_type_symbol
 _atom_site_label
 _atom_site_symmetry_multiplicity
 _atom_site_fract_x
 _atom_site_fract_y
 _atom_site_fract_z
 _atom_site_occupancy
  O  O1  1  0.175262  0.289560  0.142519  1
  O  O2  1  0.175283  0.710517  0.142521  1
  O  O3  1  0.360303  0.347617  0.249561  1
  O  O4  1  0.360323  0.652553  0.249568  1
  O  O5  1  0.298452  0.290089  0.192223  1
  O  O6  1  0.298470  0.710100  0.192229  1
  O  O7  1  0.360262  0.500094  0.206149  1
  O  O8  1  0.499820  0.658456  0.205917  1
  O  O9  1  0.169332  0.114381  0.183914  1
  O  O10  1  0.169296  0.885745  0.183901  1
  O  O11  1  0.101583  0.312204  0.198653  1
  O  O12  1  0.101605  0.687911  0.198655  1
  O  O13  1  0.137645  -0.000000  0.236472  1
  O  O14  1  0.499800  0.341713  0.205912  1
  O  O15  1  -0.000000  0.342789  0.250896  1
  O  O16  1  0.824399  0.710513  0.142522  1
  O  O17  1  0.824392  0.289578  0.142516  1
  O  O18  1  0.639292  0.652544  0.249575  1
  O  O19  1  0.639273  0.347578  0.249569  1
  O  O20  1  0.701172  0.710043  0.192228  1
  O  O21  1  0.701149  0.290103  0.192220  1
  O  O22  1  0.639352  0.500073  0.206161  1
  O  O23  1  0.830258  0.885744  0.183905  1
  O  O24  1  0.830230  0.114387  0.183910  1
  O  O25  1  0.898039  0.687960  0.198663  1
  O  O26  1  0.898016  0.312180  0.198659  1
  O  O27  1  0.000000  0.000000  0.193226  1
  O  O28  1  0.861882  -0.000000  0.236475  1
  O  O29  1  -0.000000  0.657344  0.250897  1
  O  O30  1  -0.000000  0.500064  0.208040  1
  O  O31  1  0.298924  0.283179  0.305223  1
  O  O32  1  0.299137  0.716987  0.453208  1
  O  O33  1  0.298949  0.716969  0.305232  1
  O  O34  1  0.299158  0.283202  0.453193  1
  O  O35  1  0.499974  0.657749  0.465266  1
  O  O36  1  0.358559  0.500074  0.293046  1
  O  O37  1  0.358768  0.500090  0.465391  1
  O  O38  1  0.100920  0.308995  0.302740  1
  O  O39  1  0.101161  0.691150  0.455746  1
  O  O40  1  0.100952  0.691130  0.302740  1
  O  O41  1  0.101188  0.309095  0.455725  1
  O  O42  1  0.171655  0.111701  0.289574  1
  O  O43  1  0.171898  0.888495  0.468856  1
  O  O44  1  0.171673  0.888444  0.289587  1
  O  O45  1  0.171885  0.111749  0.468857  1
  O  O46  1  0.172829  0.184543  0.347660  1
  O  O47  1  0.172868  0.815487  0.410781  1
  O  O48  1  0.172823  0.815564  0.347670  1
  O  O49  1  0.172877  0.184669  0.410773  1
  O  O50  1  0.133117  -0.000000  0.379249  1
  O  O51  1  0.499793  0.657708  0.293188  1
  O  O52  1  0.499771  0.342415  0.293181  1
  O  O53  1  0.499997  0.342456  0.465253  1
  O  O54  1  0.000000  0.000000  0.477868  1
  O  O55  1  0.700850  0.283230  0.453211  1
  O  O56  1  0.700635  0.716937  0.305247  1
  O  O57  1  0.700817  0.717018  0.453225  1
  O  O58  1  0.700609  0.283155  0.305240  1
  O  O59  1  0.641209  0.500116  0.465399  1
  O  O60  1  0.641001  0.500050  0.293052  1
  O  O61  1  0.898852  0.309048  0.455696  1
  O  O62  1  0.898612  0.691100  0.302713  1
  O  O63  1  0.898818  0.691179  0.455709  1
  O  O64  1  0.898579  0.309050  0.302709  1
  O  O65  1  0.828114  0.111757  0.468868  1
  O  O66  1  0.827872  0.888436  0.289591  1
  O  O67  1  0.828099  0.888498  0.468860  1
  O  O68  1  0.827885  0.111691  0.289588  1
  O  O69  1  0.826953  0.184571  0.410780  1
  O  O70  1  0.826898  0.815474  0.347669  1
  O  O71  1  0.826929  0.815597  0.410781  1
  O  O72  1  0.826893  0.184667  0.347667  1
  O  O73  1  0.000000  0.000000  0.280578  1
  O  O74  1  -0.000000  0.500069  0.293619  1
  O  O75  1  0.866652  0.000000  0.379194  1
  O  O76  1  -0.000000  0.159748  0.379219  1
  O  O77  1  0.000000  0.840395  0.379226  1
  O  O78  1  -0.000000  0.500116  0.464826  1
  O  O79  1  0.175345  0.710543  0.615929  1
  O  O80  1  0.175363  0.289614  0.615922  1
  O  O81  1  0.360465  0.652551  0.508877  1
  O  O82  1  0.360488  0.347586  0.508866  1
  O  O83  1  0.298579  0.710014  0.566225  1
  O  O84  1  0.298599  0.290078  0.566214  1
  O  O85  1  0.360398  0.500048  0.552282  1
  O  O86  1  0.169518  0.885746  0.574536  1
  O  O87  1  0.169498  0.114393  0.574542  1
  O  O88  1  0.101708  0.687964  0.559789  1
  O  O89  1  0.101733  0.312184  0.559780  1
  O  O90  1  0.137878  -0.000000  0.521971  1
  O  O91  1  0.499929  0.658431  0.552535  1
  O  O92  1  0.499951  0.341687  0.552524  1
  O  O93  1  0.824481  0.289599  0.615919  1
  O  O94  1  0.824472  0.710559  0.615931  1
  O  O95  1  0.000000  0.342816  0.507542  1
  O  O96  1  0.639455  0.347627  0.508875  1
  O  O97  1  0.639436  0.652563  0.508887  1
  O  O98  1  0.701301  0.290063  0.566211  1
  O  O99  1  0.701274  0.710075  0.566227  1
  O  O100  1  0.639488  0.500071  0.552296  1
  O  O101  1  0.830447  0.114387  0.574536  1
  O  O102  1  0.830429  0.885753  0.574537  1
  O  O103  1  0.898169  0.312206  0.559782  1
  O  O104  1  0.898139  0.687913  0.559798  1
  O  O105  1  0.862117  0.000000  0.521972  1
  O  O106  1  -0.000000  0.657370  0.507554  1
  O  O107  1  -0.000000  0.500070  0.550405  1
  O  O108  1  0.000000  -0.000000  0.565219  1
  Si  Si109  1  0.121647  0.000000  0.273922  1
  Si  Si110  1  0.189041  0.751452  0.178724  1
  Si  Si111  1  0.121515  -0.000000  0.198983  1
  Si  Si112  1  0.378782  0.365173  0.212305  1
  Si  Si113  1  0.378799  0.635010  0.212309  1
  Si  Si114  1  0.189034  0.248676  0.178727  1
  Si  Si115  1  -0.000000  0.635225  0.213661  1
  Si  Si116  1  -0.000000  0.364901  0.213659  1
  Si  Si117  1  0.877883  0.000000  0.273927  1
  Si  Si118  1  0.620835  0.634992  0.212316  1
  Si  Si119  1  0.620818  0.365154  0.212311  1
  Si  Si120  1  0.810588  0.751436  0.178725  1
  Si  Si121  1  0.810568  0.248691  0.178723  1
  Si  Si122  1  0.878026  0.000000  0.198986  1
  Si  Si123  1  0.121599  0.135830  0.379227  1
  Si  Si124  1  0.121592  0.864306  0.379233  1
  Si  Si125  1  0.378716  0.365140  0.286860  1
  Si  Si126  1  0.378915  0.635024  0.471580  1
  Si  Si127  1  0.378734  0.635008  0.286865  1
  Si  Si128  1  0.378934  0.365154  0.471570  1
  Si  Si129  1  0.190343  0.220990  0.311686  1
  Si  Si130  1  0.190533  0.779157  0.446758  1
  Si  Si131  1  0.190360  0.779143  0.311695  1
  Si  Si132  1  0.190543  0.221048  0.446746  1
  Si  Si133  1  -0.000000  0.635181  0.470267  1
  Si  Si134  1  0.000000  0.635137  0.288184  1
  Si  Si135  1  0.878170  0.864315  0.379216  1
  Si  Si136  1  0.878177  0.135839  0.379214  1
  Si  Si137  1  0.621052  0.365178  0.471577  1
  Si  Si138  1  0.620852  0.634988  0.286871  1
  Si  Si139  1  0.621033  0.635045  0.471588  1
  Si  Si140  1  0.620834  0.365118  0.286866  1
  Si  Si141  1  0.809431  0.221036  0.446752  1
  Si  Si142  1  0.809236  0.779113  0.311695  1
  Si  Si143  1  0.809404  0.779188  0.446757  1
  Si  Si144  1  0.809224  0.221011  0.311692  1
  Si  Si145  1  -0.000000  0.365001  0.288183  1
  Si  Si146  1  -0.000000  0.365045  0.470255  1
  Si  Si147  1  0.189178  0.248699  0.579718  1
  Si  Si148  1  0.121885  0.000000  0.484520  1
  Si  Si149  1  0.121729  -0.000000  0.559460  1
  Si  Si150  1  0.378915  0.634972  0.546135  1
  Si  Si151  1  0.378933  0.365134  0.546125  1
  Si  Si152  1  0.189167  0.751439  0.579724  1
  Si  Si153  1  0.878121  -0.000000  0.484522  1
  Si  Si154  1  0.878240  -0.000000  0.559462  1
  Si  Si155  1  0.620969  0.365154  0.546133  1
  Si  Si156  1  0.620951  0.634991  0.546143  1
  Si  Si157  1  0.810724  0.248684  0.579713  1
  Si  Si158  1  0.810701  0.751463  0.579724  1
  Si  Si159  1  -0.000000  0.635235  0.544789  1
  Si  Si160  1  -0.000000  0.364911  0.544779  1
  H  H161  1  0.175262  0.289560  0.120779  1
  H  H162  1  0.175283  0.710517  0.120781  1
  H  H163  1  0.824399  0.710513  0.120782  1
  H  H164  1  0.824392  0.289578  0.120777  1
  H  H165  1  0.175345  0.710543  0.637669  1
  H  H166  1  0.175363  0.289614  0.637662  1
  H  H167  1  0.824481  0.289599  0.637658  1
  H  H168  1  0.824472  0.710559  0.637670  1
