# generated using pymatgen
data_Si14H2O29
_symmetry_space_group_name_H-M   'P 1'
_cell_length_a   12.70128613
_cell_length_b   11.41729918
_cell_length_c   44.12354816
_cell_angle_alpha   90.00000000
_cell_angle_beta   90.00000000
_cell_angle_gamma   90.00000000
_symmetry_Int_Tables_number   1
_chemical_formula_structural   Si14H2O29
_chemical_formula_sum   'Si56 H8 O116'
_cell_volume   6398.54914454
_cell_formula_units_Z   4
loop_
 _symmetry_equiv_pos_site_id
 _symmetry_equiv_pos_as_xyz
  1  'x, y, z'
loop_
 _atom_site_type_symbol
 _atom_site_label
 _atom_site_symmetry_multiplicity
 _atom_site_fract_x
 _atom_site_fract_y
 _atom_site_fract_z
 _atom_site_occupancy
  O  O1  1  0.299137  0.716987  0.173530  1
  O  O2  1  0.299158  0.283202  0.173516  1
  O  O3  1  0.499974  0.657749  0.184843  1
  O  O4  1  0.358768  0.500090  0.184961  1
  O  O5  1  0.101161  0.691150  0.175911  1
  O  O6  1  0.101188  0.309095  0.175891  1
  O  O7  1  0.171898  0.888495  0.188212  1
  O  O8  1  0.171885  0.111749  0.188213  1
  O  O9  1  0.172868  0.815487  0.133723  1
  O  O10  1  0.172877  0.184669  0.133715  1
  O  O11  1  0.499997  0.342456  0.184831  1
  O  O12  1  0.000000  0.000000  0.196667  1
  O  O13  1  0.700850  0.283230  0.173533  1
  O  O14  1  0.700817  0.717018  0.173546  1
  O  O15  1  0.641209  0.500116  0.184968  1
  O  O16  1  0.898852  0.309048  0.175864  1
  O  O17  1  0.898818  0.691179  0.175877  1
  O  O18  1  0.828114  0.111757  0.188223  1
  O  O19  1  0.828099  0.888498  0.188215  1
  O  O20  1  0.826953  0.184571  0.133722  1
  O  O21  1  0.826929  0.815597  0.133723  1
  O  O22  1  0.000000  0.500116  0.184430  1
  O  O23  1  0.141903  0.500068  0.346883  1
  O  O24  1  0.175345  0.710543  0.326203  1
  O  O25  1  0.175363  0.289614  0.326196  1
  O  O26  1  0.360465  0.652551  0.225761  1
  O  O27  1  0.360488  0.347586  0.225751  1
  O  O28  1  0.298579  0.710014  0.279568  1
  O  O29  1  0.298599  0.290078  0.279557  1
  O  O30  1  0.360398  0.500048  0.266486  1
  O  O31  1  0.169518  0.885746  0.287366  1
  O  O32  1  0.169498  0.114393  0.287371  1
  O  O33  1  0.101708  0.687964  0.273529  1
  O  O34  1  0.101733  0.312184  0.273521  1
  O  O35  1  0.137878  0.000000  0.238047  1
  O  O36  1  0.499929  0.658431  0.266724  1
  O  O37  1  0.499951  0.341687  0.266713  1
  O  O38  1  0.857900  0.500067  0.346881  1
  O  O39  1  0.824481  0.289599  0.326193  1
  O  O40  1  0.824472  0.710559  0.326204  1
  O  O41  1  0.000000  0.342816  0.224508  1
  O  O42  1  0.639455  0.347627  0.225759  1
  O  O43  1  0.639436  0.652563  0.225770  1
  O  O44  1  0.701301  0.290063  0.279555  1
  O  O45  1  0.701274  0.710075  0.279570  1
  O  O46  1  0.639488  0.500071  0.266499  1
  O  O47  1  0.830447  0.114387  0.287366  1
  O  O48  1  0.830429  0.885753  0.287367  1
  O  O49  1  0.898169  0.312206  0.273523  1
  O  O50  1  0.898139  0.687913  0.273538  1
  O  O51  1  0.862117  0.000000  0.238048  1
  O  O52  1  0.000000  0.657370  0.224520  1
  O  O53  1  0.000000  0.500070  0.264725  1
  O  O54  1  0.000000  0.348282  0.348355  1
  O  O55  1  0.000000  0.651850  0.348362  1
  O  O56  1  0.000000  0.000000  0.278624  1
  O  O57  1  0.141845  0.500038  0.426485  1
  O  O58  1  0.175262  0.289560  0.447166  1
  O  O59  1  0.175283  0.710517  0.447168  1
  O  O60  1  0.360303  0.347617  0.547598  1
  O  O61  1  0.360323  0.652553  0.547604  1
  O  O62  1  0.298452  0.290089  0.493801  1
  O  O63  1  0.298470  0.710100  0.493807  1
  O  O64  1  0.360262  0.500094  0.506867  1
  O  O65  1  0.146641  0.660674  0.386687  1
  O  O66  1  0.499820  0.658456  0.506650  1
  O  O67  1  0.169332  0.114381  0.486005  1
  O  O68  1  0.169296  0.885745  0.485993  1
  O  O69  1  0.101583  0.312204  0.499833  1
  O  O70  1  0.101605  0.687911  0.499835  1
  O  O71  1  0.137645  0.000000  0.535317  1
  O  O72  1  0.499800  0.341713  0.506644  1
  O  O73  1  0.146641  0.339431  0.386682  1
  O  O74  1  0.000000  0.342789  0.548850  1
  O  O75  1  0.857841  0.500042  0.426483  1
  O  O76  1  0.824399  0.710513  0.447169  1
  O  O77  1  0.824392  0.289578  0.447164  1
  O  O78  1  0.639292  0.652544  0.547611  1
  O  O79  1  0.639273  0.347578  0.547605  1
  O  O80  1  0.701172  0.710043  0.493806  1
  O  O81  1  0.701149  0.290103  0.493798  1
  O  O82  1  0.639352  0.500073  0.506878  1
  O  O83  1  0.830258  0.885744  0.485996  1
  O  O84  1  0.830230  0.114387  0.486001  1
  O  O85  1  0.898039  0.687960  0.499843  1
  O  O86  1  0.898016  0.312180  0.499840  1
  O  O87  1  0.000000  0.000000  0.494742  1
  O  O88  1  0.861882  0.000000  0.535320  1
  O  O89  1  0.000000  0.657344  0.548851  1
  O  O90  1  0.000000  0.500064  0.508641  1
  O  O91  1  0.853104  0.660675  0.386685  1
  O  O92  1  0.000000  0.348257  0.425003  1
  O  O93  1  0.000000  0.651823  0.425010  1
  O  O94  1  0.853103  0.339433  0.386677  1
  O  O95  1  0.298924  0.283179  0.599822  1
  O  O96  1  0.298949  0.716969  0.599831  1
  O  O97  1  0.358559  0.500074  0.588397  1
  O  O98  1  0.100920  0.308995  0.597493  1
  O  O99  1  0.100952  0.691130  0.597493  1
  O  O100  1  0.171655  0.111701  0.585140  1
  O  O101  1  0.171673  0.888444  0.585152  1
  O  O102  1  0.172829  0.184543  0.639639  1
  O  O103  1  0.172823  0.815564  0.639648  1
  O  O104  1  0.499793  0.657708  0.588531  1
  O  O105  1  0.499771  0.342415  0.588525  1
  O  O106  1  0.700635  0.716937  0.599845  1
  O  O107  1  0.700609  0.283155  0.599838  1
  O  O108  1  0.641001  0.500050  0.588403  1
  O  O109  1  0.898612  0.691100  0.597467  1
  O  O110  1  0.898579  0.309050  0.597464  1
  O  O111  1  0.827872  0.888436  0.585156  1
  O  O112  1  0.827885  0.111691  0.585154  1
  O  O113  1  0.826898  0.815474  0.639648  1
  O  O114  1  0.826893  0.184667  0.639646  1
  O  O115  1  0.000000  0.000000  0.576699  1
  O  O116  1  0.000000  0.500069  0.588935  1
  Si  Si117  1  0.378915  0.635024  0.190767  1
  Si  Si118  1  0.378934  0.365154  0.190758  1
  Si  Si119  1  0.190533  0.779157  0.167478  1
  Si  Si120  1  0.190543  0.221048  0.167467  1
  Si  Si121  1  0.000000  0.635181  0.189535  1
  Si  Si122  1  0.621052  0.365178  0.190765  1
  Si  Si123  1  0.621033  0.635045  0.190775  1
  Si  Si124  1  0.809431  0.221036  0.167472  1
  Si  Si125  1  0.809404  0.779188  0.167477  1
  Si  Si126  1  0.000000  0.365045  0.189525  1
  Si  Si127  1  0.189178  0.248699  0.292228  1
  Si  Si128  1  0.121885  0.000000  0.202908  1
  Si  Si129  1  0.121729  0.000000  0.273221  1
  Si  Si130  1  0.121822  0.635155  0.351961  1
  Si  Si131  1  0.121826  0.364978  0.351957  1
  Si  Si132  1  0.378915  0.634972  0.260719  1
  Si  Si133  1  0.378933  0.365134  0.260710  1
  Si  Si134  1  0.189167  0.751439  0.292233  1
  Si  Si135  1  0.878121  0.000000  0.202910  1
  Si  Si136  1  0.878240  0.000000  0.273222  1
  Si  Si137  1  0.877982  0.364978  0.351956  1
  Si  Si138  1  0.877977  0.635154  0.351963  1
  Si  Si139  1  0.620969  0.365154  0.260716  1
  Si  Si140  1  0.620951  0.634991  0.260726  1
  Si  Si141  1  0.810724  0.248684  0.292223  1
  Si  Si142  1  0.810701  0.751463  0.292234  1
  Si  Si143  1  0.000000  0.635235  0.259456  1
  Si  Si144  1  0.000000  0.364911  0.259446  1
  Si  Si145  1  0.121647  0.000000  0.570455  1
  Si  Si146  1  0.189041  0.751452  0.481136  1
  Si  Si147  1  0.121515  0.000000  0.500143  1
  Si  Si148  1  0.121763  0.364952  0.421404  1
  Si  Si149  1  0.121769  0.635127  0.421408  1
  Si  Si150  1  0.378782  0.365173  0.512642  1
  Si  Si151  1  0.378799  0.635010  0.512647  1
  Si  Si152  1  0.189034  0.248676  0.481138  1
  Si  Si153  1  0.000000  0.635225  0.513915  1
  Si  Si154  1  0.000000  0.364901  0.513913  1
  Si  Si155  1  0.877883  0.000000  0.570459  1
  Si  Si156  1  0.877924  0.635132  0.421410  1
  Si  Si157  1  0.877919  0.364955  0.421403  1
  Si  Si158  1  0.620835  0.634992  0.512653  1
  Si  Si159  1  0.620818  0.365154  0.512648  1
  Si  Si160  1  0.810588  0.751436  0.481136  1
  Si  Si161  1  0.810568  0.248691  0.481134  1
  Si  Si162  1  0.878026  0.000000  0.500146  1
  Si  Si163  1  0.378716  0.365140  0.582593  1
  Si  Si164  1  0.378734  0.635008  0.582599  1
  Si  Si165  1  0.190343  0.220990  0.605887  1
  Si  Si166  1  0.190360  0.779143  0.605895  1
  Si  Si167  1  0.000000  0.635137  0.583836  1
  Si  Si168  1  0.620852  0.634988  0.582604  1
  Si  Si169  1  0.620834  0.365118  0.582599  1
  Si  Si170  1  0.809236  0.779113  0.605895  1
  Si  Si171  1  0.809224  0.221011  0.605892  1
  Si  Si172  1  0.000000  0.365001  0.583835  1
  H  H173  1  0.172868  0.815487  0.113326  1
  H  H174  1  0.172877  0.184669  0.113318  1
  H  H175  1  0.826953  0.184571  0.113324  1
  H  H176  1  0.826929  0.815597  0.113326  1
  H  H177  1  0.172829  0.184543  0.660036  1
  H  H178  1  0.172823  0.815564  0.660045  1
  H  H179  1  0.826898  0.815474  0.660045  1
  H  H180  1  0.826893  0.184667  0.660043  1
