# generated using pymatgen
data_Si30H2O61
_symmetry_space_group_name_H-M   'P 1'
_cell_length_a   12.70128613
_cell_length_b   11.41729918
_cell_length_c   71.67229717
_cell_angle_alpha   90.00000000
_cell_angle_beta   90.00000000
_cell_angle_gamma   90.00000000
_symmetry_Int_Tables_number   1
_chemical_formula_structural   Si30H2O61
_chemical_formula_sum   'Si120 H8 O244'
_cell_volume   10393.5140038
_cell_formula_units_Z   4
loop_
 _symmetry_equiv_pos_site_id
 _symmetry_equiv_pos_as_xyz
  1  'x, y, z'
loop_
 _atom_site_type_symbol
 _atom_site_label
 _atom_site_symmetry_multiplicity
 _atom_site_fract_x
 _atom_site_fract_y
 _atom_site_fract_z
 _atom_site_occupancy
  O  O1  1  0.141845  0.500038  0.106826  1
  O  O2  1  0.175262  0.289560  0.119558  1
  O  O3  1  0.175283  0.710517  0.119559  1
  O  O4  1  0.360303  0.347617  0.181387  1
  O  O5  1  0.360323  0.652553  0.181390  1
  O  O6  1  0.298452  0.290089  0.148268  1
  O  O7  1  0.298470  0.710100  0.148271  1
  O  O8  1  0.360262  0.500094  0.156311  1
  O  O9  1  0.146641  0.660674  0.082325  1
  O  O10  1  0.499820  0.658456  0.156177  1
  O  O11  1  0.169332  0.114381  0.143468  1
  O  O12  1  0.169296  0.885745  0.143460  1
  O  O13  1  0.101583  0.312204  0.151981  1
  O  O14  1  0.101605  0.687911  0.151982  1
  O  O15  1  0.137645  0.000000  0.173826  1
  O  O16  1  0.499800  0.341713  0.156174  1
  O  O17  1  0.146641  0.339431  0.082322  1
  O  O18  1  0.000000  0.342789  0.182157  1
  O  O19  1  0.857841  0.500042  0.106825  1
  O  O20  1  0.824399  0.710513  0.119559  1
  O  O21  1  0.824392  0.289578  0.119556  1
  O  O22  1  0.639292  0.652544  0.181394  1
  O  O23  1  0.639273  0.347578  0.181391  1
  O  O24  1  0.701172  0.710043  0.148270  1
  O  O25  1  0.701149  0.290103  0.148266  1
  O  O26  1  0.639352  0.500073  0.156318  1
  O  O27  1  0.830258  0.885744  0.143463  1
  O  O28  1  0.830230  0.114387  0.143466  1
  O  O29  1  0.898039  0.687960  0.151987  1
  O  O30  1  0.898016  0.312180  0.151985  1
  O  O31  1  -0.000000  0.000000  0.148847  1
  O  O32  1  0.861882  0.000000  0.173828  1
  O  O33  1  -0.000000  0.657344  0.182158  1
  O  O34  1  -0.000000  0.500064  0.157403  1
  O  O35  1  0.853104  0.660675  0.082324  1
  O  O36  1  0.000000  0.348257  0.105914  1
  O  O37  1  0.000000  0.651823  0.105918  1
  O  O38  1  0.853103  0.339433  0.082319  1
  O  O39  1  0.298924  0.283179  0.213537  1
  O  O40  1  0.299137  0.716987  0.299015  1
  O  O41  1  0.298949  0.716969  0.213543  1
  O  O42  1  0.299158  0.283202  0.299007  1
  O  O43  1  0.499974  0.657749  0.305980  1
  O  O44  1  0.358559  0.500074  0.206504  1
  O  O45  1  0.358768  0.500090  0.306053  1
  O  O46  1  0.100920  0.308995  0.212104  1
  O  O47  1  0.101161  0.691150  0.300481  1
  O  O48  1  0.100952  0.691130  0.212104  1
  O  O49  1  0.101188  0.309095  0.300469  1
  O  O50  1  0.171655  0.111701  0.204499  1
  O  O51  1  0.171898  0.888495  0.308054  1
  O  O52  1  0.171673  0.888444  0.204506  1
  O  O53  1  0.171885  0.111749  0.308055  1
  O  O54  1  0.172829  0.184543  0.238050  1
  O  O55  1  0.172868  0.815487  0.274509  1
  O  O56  1  0.172823  0.815564  0.238055  1
  O  O57  1  0.172877  0.184669  0.274504  1
  O  O58  1  0.133117  -0.000000  0.256296  1
  O  O59  1  0.499793  0.657708  0.206586  1
  O  O60  1  0.499771  0.342415  0.206582  1
  O  O61  1  0.499997  0.342456  0.305973  1
  O  O62  1  -0.000000  0.000000  0.313259  1
  O  O63  1  0.700850  0.283230  0.299017  1
  O  O64  1  0.700635  0.716937  0.213551  1
  O  O65  1  0.700817  0.717018  0.299026  1
  O  O66  1  0.700609  0.283155  0.213547  1
  O  O67  1  0.641209  0.500116  0.306057  1
  O  O68  1  0.641001  0.500050  0.206507  1
  O  O69  1  0.898852  0.309048  0.300452  1
  O  O70  1  0.898612  0.691100  0.212088  1
  O  O71  1  0.898818  0.691179  0.300460  1
  O  O72  1  0.898579  0.309050  0.212086  1
  O  O73  1  0.828114  0.111757  0.308061  1
  O  O74  1  0.827872  0.888436  0.204508  1
  O  O75  1  0.828099  0.888498  0.308056  1
  O  O76  1  0.827885  0.111691  0.204507  1
  O  O77  1  0.826953  0.184571  0.274508  1
  O  O78  1  0.826898  0.815474  0.238055  1
  O  O79  1  0.826929  0.815597  0.274509  1
  O  O80  1  0.826893  0.184667  0.238054  1
  O  O81  1  0.000000  0.000000  0.199302  1
  O  O82  1  -0.000000  0.500069  0.206835  1
  O  O83  1  0.866652  -0.000000  0.256264  1
  O  O84  1  -0.000000  0.159748  0.256278  1
  O  O85  1  0.000000  0.840395  0.256283  1
  O  O86  1  0.000000  0.500116  0.305726  1
  O  O87  1  0.141903  0.500068  0.405737  1
  O  O88  1  0.175345  0.710543  0.393005  1
  O  O89  1  0.175363  0.289614  0.393001  1
  O  O90  1  0.360465  0.652551  0.331171  1
  O  O91  1  0.360488  0.347586  0.331164  1
  O  O92  1  0.298579  0.710014  0.364296  1
  O  O93  1  0.298599  0.290078  0.364289  1
  O  O94  1  0.360398  0.500048  0.356242  1
  O  O95  1  0.169518  0.885746  0.369096  1
  O  O96  1  0.169498  0.114393  0.369099  1
  O  O97  1  0.101708  0.687964  0.360578  1
  O  O98  1  0.101733  0.312184  0.360573  1
  O  O99  1  0.137878  -0.000000  0.338734  1
  O  O100  1  0.499929  0.658431  0.356388  1
  O  O101  1  0.499951  0.341687  0.356382  1
  O  O102  1  0.857900  0.500067  0.405735  1
  O  O103  1  0.824481  0.289599  0.392999  1
  O  O104  1  0.824472  0.710559  0.393006  1
  O  O105  1  -0.000000  0.342816  0.330399  1
  O  O106  1  0.639455  0.347627  0.331169  1
  O  O107  1  0.639436  0.652563  0.331176  1
  O  O108  1  0.701301  0.290063  0.364287  1
  O  O109  1  0.701274  0.710075  0.364297  1
  O  O110  1  0.639488  0.500071  0.356250  1
  O  O111  1  0.830447  0.114387  0.369096  1
  O  O112  1  0.830429  0.885753  0.369097  1
  O  O113  1  0.898169  0.312206  0.360574  1
  O  O114  1  0.898139  0.687913  0.360583  1
  O  O115  1  0.862117  0.000000  0.338735  1
  O  O116  1  0.000000  0.657370  0.330407  1
  O  O117  1  0.000000  0.500070  0.355158  1
  O  O118  1  0.000000  0.348282  0.406643  1
  O  O119  1  0.000000  0.651850  0.406647  1
  O  O120  1  0.000000  0.000000  0.363714  1
  O  O121  1  0.141845  0.500038  0.454742  1
  O  O122  1  0.175262  0.289560  0.467474  1
  O  O123  1  0.175283  0.710517  0.467475  1
  O  O124  1  0.360303  0.347617  0.529303  1
  O  O125  1  0.360323  0.652553  0.529306  1
  O  O126  1  0.298452  0.290089  0.496184  1
  O  O127  1  0.298470  0.710100  0.496187  1
  O  O128  1  0.360262  0.500094  0.504227  1
  O  O129  1  0.146641  0.660674  0.430241  1
  O  O130  1  0.499820  0.658456  0.504093  1
  O  O131  1  0.169332  0.114381  0.491384  1
  O  O132  1  0.169296  0.885745  0.491376  1
  O  O133  1  0.101583  0.312204  0.499897  1
  O  O134  1  0.101605  0.687911  0.499898  1
  O  O135  1  0.137645  -0.000000  0.521742  1
  O  O136  1  0.499800  0.341713  0.504090  1
  O  O137  1  0.146641  0.339431  0.430238  1
  O  O138  1  0.000000  0.342789  0.530073  1
  O  O139  1  0.857841  0.500042  0.454741  1
  O  O140  1  0.824399  0.710513  0.467475  1
  O  O141  1  0.824392  0.289578  0.467472  1
  O  O142  1  0.639292  0.652544  0.529310  1
  O  O143  1  0.639273  0.347578  0.529307  1
  O  O144  1  0.701172  0.710043  0.496186  1
  O  O145  1  0.701149  0.290103  0.496182  1
  O  O146  1  0.639352  0.500073  0.504234  1
  O  O147  1  0.830258  0.885744  0.491379  1
  O  O148  1  0.830230  0.114387  0.491382  1
  O  O149  1  0.898039  0.687960  0.499903  1
  O  O150  1  0.898016  0.312180  0.499901  1
  O  O151  1  0.000000  0.000000  0.496763  1
  O  O152  1  0.861882  -0.000000  0.521744  1
  O  O153  1  -0.000000  0.657344  0.530074  1
  O  O154  1  -0.000000  0.500064  0.505319  1
  O  O155  1  0.853104  0.660675  0.430240  1
  O  O156  1  0.000000  0.348257  0.453830  1
  O  O157  1  0.000000  0.651823  0.453834  1
  O  O158  1  0.853103  0.339433  0.430235  1
  O  O159  1  0.298924  0.283179  0.561453  1
  O  O160  1  0.299137  0.716987  0.646931  1
  O  O161  1  0.298949  0.716969  0.561459  1
  O  O162  1  0.299158  0.283202  0.646923  1
  O  O163  1  0.499974  0.657749  0.653896  1
  O  O164  1  0.358559  0.500074  0.554420  1
  O  O165  1  0.358768  0.500090  0.653969  1
  O  O166  1  0.100920  0.308995  0.560020  1
  O  O167  1  0.101161  0.691150  0.648397  1
  O  O168  1  0.100952  0.691130  0.560020  1
  O  O169  1  0.101188  0.309095  0.648385  1
  O  O170  1  0.171655  0.111701  0.552414  1
  O  O171  1  0.171898  0.888495  0.655970  1
  O  O172  1  0.171673  0.888444  0.552422  1
  O  O173  1  0.171885  0.111749  0.655971  1
  O  O174  1  0.172829  0.184543  0.585966  1
  O  O175  1  0.172868  0.815487  0.622425  1
  O  O176  1  0.172823  0.815564  0.585971  1
  O  O177  1  0.172877  0.184669  0.622420  1
  O  O178  1  0.133117  -0.000000  0.604212  1
  O  O179  1  0.499793  0.657708  0.554502  1
  O  O180  1  0.499771  0.342415  0.554498  1
  O  O181  1  0.499997  0.342456  0.653889  1
  O  O182  1  0.000000  0.000000  0.661175  1
  O  O183  1  0.700850  0.283230  0.646933  1
  O  O184  1  0.700635  0.716937  0.561467  1
  O  O185  1  0.700817  0.717018  0.646942  1
  O  O186  1  0.700609  0.283155  0.561463  1
  O  O187  1  0.641209  0.500116  0.653973  1
  O  O188  1  0.641001  0.500050  0.554423  1
  O  O189  1  0.898852  0.309048  0.648368  1
  O  O190  1  0.898612  0.691100  0.560004  1
  O  O191  1  0.898818  0.691179  0.648376  1
  O  O192  1  0.898579  0.309050  0.560001  1
  O  O193  1  0.828114  0.111757  0.655977  1
  O  O194  1  0.827872  0.888436  0.552424  1
  O  O195  1  0.828099  0.888498  0.655972  1
  O  O196  1  0.827885  0.111691  0.552423  1
  O  O197  1  0.826953  0.184571  0.622424  1
  O  O198  1  0.826898  0.815474  0.585971  1
  O  O199  1  0.826929  0.815597  0.622425  1
  O  O200  1  0.826893  0.184667  0.585970  1
  O  O201  1  0.000000  0.000000  0.547218  1
  O  O202  1  0.000000  0.500069  0.554751  1
  O  O203  1  0.866652  -0.000000  0.604180  1
  O  O204  1  -0.000000  0.159748  0.604194  1
  O  O205  1  -0.000000  0.840395  0.604199  1
  O  O206  1  0.000000  0.500116  0.653642  1
  O  O207  1  0.141903  0.500068  0.753653  1
  O  O208  1  0.175345  0.710543  0.740921  1
  O  O209  1  0.175363  0.289614  0.740917  1
  O  O210  1  0.360465  0.652551  0.679087  1
  O  O211  1  0.360488  0.347586  0.679080  1
  O  O212  1  0.298579  0.710014  0.712212  1
  O  O213  1  0.298599  0.290078  0.712205  1
  O  O214  1  0.360398  0.500048  0.704158  1
  O  O215  1  0.169518  0.885746  0.717012  1
  O  O216  1  0.169498  0.114393  0.717015  1
  O  O217  1  0.101708  0.687964  0.708494  1
  O  O218  1  0.101733  0.312184  0.708489  1
  O  O219  1  0.137878  0.000000  0.686650  1
  O  O220  1  0.499929  0.658431  0.704304  1
  O  O221  1  0.499951  0.341687  0.704298  1
  O  O222  1  0.857900  0.500067  0.753651  1
  O  O223  1  0.824481  0.289599  0.740915  1
  O  O224  1  0.824472  0.710559  0.740922  1
  O  O225  1  -0.000000  0.342816  0.678315  1
  O  O226  1  0.639455  0.347627  0.679085  1
  O  O227  1  0.639436  0.652563  0.679092  1
  O  O228  1  0.701301  0.290063  0.712203  1
  O  O229  1  0.701274  0.710075  0.712213  1
  O  O230  1  0.639488  0.500071  0.704166  1
  O  O231  1  0.830447  0.114387  0.717012  1
  O  O232  1  0.830429  0.885753  0.717012  1
  O  O233  1  0.898169  0.312206  0.708490  1
  O  O234  1  0.898139  0.687913  0.708499  1
  O  O235  1  0.862117  0.000000  0.686651  1
  O  O236  1  0.000000  0.657370  0.678322  1
  O  O237  1  0.000000  0.500070  0.703074  1
  O  O238  1  0.000000  0.348282  0.754559  1
  O  O239  1  -0.000000  0.651850  0.754563  1
  O  O240  1  0.000000  -0.000000  0.711630  1
  O  O241  1  0.146641  0.660674  0.778157  1
  O  O242  1  0.146641  0.339431  0.778154  1
  O  O243  1  0.853104  0.660675  0.778156  1
  O  O244  1  0.853103  0.339433  0.778151  1
  Si  Si245  1  0.121647  0.000000  0.195458  1
  Si  Si246  1  0.189041  0.751452  0.140470  1
  Si  Si247  1  0.121515  0.000000  0.152172  1
  Si  Si248  1  0.121763  0.364952  0.103698  1
  Si  Si249  1  0.121769  0.635127  0.103701  1
  Si  Si250  1  0.378782  0.365173  0.159867  1
  Si  Si251  1  0.378799  0.635010  0.159870  1
  Si  Si252  1  0.189034  0.248676  0.140472  1
  Si  Si253  1  0.000000  0.635225  0.160650  1
  Si  Si254  1  0.000000  0.364901  0.160649  1
  Si  Si255  1  0.877883  0.000000  0.195460  1
  Si  Si256  1  0.877924  0.635132  0.103701  1
  Si  Si257  1  0.877919  0.364955  0.103698  1
  Si  Si258  1  0.620835  0.634992  0.159873  1
  Si  Si259  1  0.620818  0.365154  0.159870  1
  Si  Si260  1  0.810588  0.751436  0.140471  1
  Si  Si261  1  0.810568  0.248691  0.140469  1
  Si  Si262  1  0.878026  0.000000  0.152174  1
  Si  Si263  1  0.121599  0.135830  0.256283  1
  Si  Si264  1  0.121592  0.864306  0.256286  1
  Si  Si265  1  0.378716  0.365140  0.202931  1
  Si  Si266  1  0.378915  0.635024  0.309627  1
  Si  Si267  1  0.378734  0.635008  0.202934  1
  Si  Si268  1  0.378934  0.365154  0.309622  1
  Si  Si269  1  0.190343  0.220990  0.217271  1
  Si  Si270  1  0.190533  0.779157  0.295290  1
  Si  Si271  1  0.190360  0.779143  0.217276  1
  Si  Si272  1  0.190543  0.221048  0.295283  1
  Si  Si273  1  0.000000  0.635181  0.308869  1
  Si  Si274  1  0.000000  0.635137  0.203696  1
  Si  Si275  1  0.878170  0.864315  0.256277  1
  Si  Si276  1  0.878177  0.135839  0.256275  1
  Si  Si277  1  0.621052  0.365178  0.309626  1
  Si  Si278  1  0.620852  0.634988  0.202937  1
  Si  Si279  1  0.621033  0.635045  0.309632  1
  Si  Si280  1  0.620834  0.365118  0.202934  1
  Si  Si281  1  0.809431  0.221036  0.295286  1
  Si  Si282  1  0.809236  0.779113  0.217276  1
  Si  Si283  1  0.809404  0.779188  0.295289  1
  Si  Si284  1  0.809224  0.221011  0.217274  1
  Si  Si285  1  -0.000000  0.365001  0.203695  1
  Si  Si286  1  0.000000  0.365045  0.308862  1
  Si  Si287  1  0.189178  0.248699  0.372089  1
  Si  Si288  1  0.121885  0.000000  0.317102  1
  Si  Si289  1  0.121729  0.000000  0.360388  1
  Si  Si290  1  0.121822  0.635155  0.408863  1
  Si  Si291  1  0.121826  0.364978  0.408860  1
  Si  Si292  1  0.378915  0.634972  0.352691  1
  Si  Si293  1  0.378933  0.365134  0.352686  1
  Si  Si294  1  0.189167  0.751439  0.372092  1
  Si  Si295  1  0.878121  0.000000  0.317103  1
  Si  Si296  1  0.878240  0.000000  0.360389  1
  Si  Si297  1  0.877982  0.364978  0.408859  1
  Si  Si298  1  0.877977  0.635154  0.408864  1
  Si  Si299  1  0.620969  0.365154  0.352690  1
  Si  Si300  1  0.620951  0.634991  0.352696  1
  Si  Si301  1  0.810724  0.248684  0.372086  1
  Si  Si302  1  0.810701  0.751463  0.372093  1
  Si  Si303  1  0.000000  0.635235  0.351914  1
  Si  Si304  1  0.000000  0.364911  0.351908  1
  Si  Si305  1  0.121647  0.000000  0.543374  1
  Si  Si306  1  0.189041  0.751452  0.488386  1
  Si  Si307  1  0.121515  0.000000  0.500088  1
  Si  Si308  1  0.121763  0.364952  0.451614  1
  Si  Si309  1  0.121769  0.635127  0.451617  1
  Si  Si310  1  0.378782  0.365173  0.507783  1
  Si  Si311  1  0.378799  0.635010  0.507786  1
  Si  Si312  1  0.189034  0.248676  0.488388  1
  Si  Si313  1  -0.000000  0.635225  0.508566  1
  Si  Si314  1  0.000000  0.364901  0.508565  1
  Si  Si315  1  0.877883  0.000000  0.543376  1
  Si  Si316  1  0.877924  0.635132  0.451617  1
  Si  Si317  1  0.877919  0.364955  0.451613  1
  Si  Si318  1  0.620835  0.634992  0.507789  1
  Si  Si319  1  0.620818  0.365154  0.507786  1
  Si  Si320  1  0.810588  0.751436  0.488387  1
  Si  Si321  1  0.810568  0.248691  0.488385  1
  Si  Si322  1  0.878026  0.000000  0.500090  1
  Si  Si323  1  0.121599  0.135830  0.604199  1
  Si  Si324  1  0.121592  0.864306  0.604202  1
  Si  Si325  1  0.378716  0.365140  0.550847  1
  Si  Si326  1  0.378915  0.635024  0.657543  1
  Si  Si327  1  0.378734  0.635008  0.550850  1
  Si  Si328  1  0.378934  0.365154  0.657538  1
  Si  Si329  1  0.190343  0.220990  0.565187  1
  Si  Si330  1  0.190533  0.779157  0.643206  1
  Si  Si331  1  0.190360  0.779143  0.565192  1
  Si  Si332  1  0.190543  0.221048  0.643199  1
  Si  Si333  1  0.000000  0.635181  0.656785  1
  Si  Si334  1  -0.000000  0.635137  0.551612  1
  Si  Si335  1  0.878170  0.864315  0.604193  1
  Si  Si336  1  0.878177  0.135839  0.604191  1
  Si  Si337  1  0.621052  0.365178  0.657542  1
  Si  Si338  1  0.620852  0.634988  0.550853  1
  Si  Si339  1  0.621033  0.635045  0.657548  1
  Si  Si340  1  0.620834  0.365118  0.550850  1
  Si  Si341  1  0.809431  0.221036  0.643202  1
  Si  Si342  1  0.809236  0.779113  0.565192  1
  Si  Si343  1  0.809404  0.779188  0.643205  1
  Si  Si344  1  0.809224  0.221011  0.565190  1
  Si  Si345  1  0.000000  0.365001  0.551611  1
  Si  Si346  1  0.000000  0.365045  0.656778  1
  Si  Si347  1  0.189178  0.248699  0.720005  1
  Si  Si348  1  0.121885  0.000000  0.665017  1
  Si  Si349  1  0.121729  -0.000000  0.708304  1
  Si  Si350  1  0.121822  0.635155  0.756779  1
  Si  Si351  1  0.121826  0.364978  0.756776  1
  Si  Si352  1  0.378915  0.634972  0.700607  1
  Si  Si353  1  0.378933  0.365134  0.700602  1
  Si  Si354  1  0.189167  0.751439  0.720008  1
  Si  Si355  1  0.878121  -0.000000  0.665019  1
  Si  Si356  1  0.878240  -0.000000  0.708305  1
  Si  Si357  1  0.877982  0.364978  0.756775  1
  Si  Si358  1  0.877977  0.635154  0.756780  1
  Si  Si359  1  0.620969  0.365154  0.700606  1
  Si  Si360  1  0.620951  0.634991  0.700612  1
  Si  Si361  1  0.810724  0.248684  0.720002  1
  Si  Si362  1  0.810701  0.751463  0.720009  1
  Si  Si363  1  0.000000  0.635235  0.699830  1
  Si  Si364  1  0.000000  0.364911  0.699824  1
  H  H365  1  0.146641  0.660674  0.069768  1
  H  H366  1  0.146641  0.339431  0.069765  1
  H  H367  1  0.853104  0.660675  0.069766  1
  H  H368  1  0.853103  0.339433  0.069762  1
  H  H369  1  0.146641  0.660674  0.790714  1
  H  H370  1  0.146641  0.339431  0.790711  1
  H  H371  1  0.853104  0.660675  0.790713  1
  H  H372  1  0.853103  0.339433  0.790708  1
