# generated using pymatgen
data_Si24H2O49
_symmetry_space_group_name_H-M   'P 1'
_cell_length_a   8.96222512
_cell_length_b   15.01261002
_cell_length_c   60.23771168
_cell_angle_alpha   90.00000000
_cell_angle_beta   90.00000000
_cell_angle_gamma   90.00000000
_symmetry_Int_Tables_number   1
_chemical_formula_structural   Si24H2O49
_chemical_formula_sum   'Si96 H8 O196'
_cell_volume   8104.76668731
_cell_formula_units_Z   4
loop_
 _symmetry_equiv_pos_site_id
 _symmetry_equiv_pos_as_xyz
  1  'x, y, z'
loop_
 _atom_site_type_symbol
 _atom_site_label
 _atom_site_symmetry_multiplicity
 _atom_site_fract_x
 _atom_site_fract_y
 _atom_site_fract_z
 _atom_site_occupancy
  O  O1  1  0.749834  0.115193  0.337226  1
  O  O2  1  0.249851  0.615191  0.337237  1
  O  O3  1  0.249885  0.115198  0.177716  1
  O  O4  1  0.749879  0.615200  0.177705  1
  O  O5  1  0.749873  0.115200  0.177713  1
  O  O6  1  0.249889  0.615197  0.177704  1
  O  O7  1  0.249845  0.115191  0.337231  1
  O  O8  1  0.749838  0.615193  0.337241  1
  O  O9  1  0.696662  0.237657  0.309287  1
  O  O10  1  0.196655  0.737658  0.309300  1
  O  O11  1  0.196715  0.237661  0.149776  1
  O  O12  1  0.696725  0.737663  0.149763  1
  O  O13  1  0.696723  0.237667  0.205655  1
  O  O14  1  0.196717  0.737663  0.205644  1
  O  O15  1  0.196654  0.237657  0.365168  1
  O  O16  1  0.696662  0.737663  0.365179  1
  O  O17  1  0.302998  0.237658  0.309289  1
  O  O18  1  0.803004  0.737655  0.309301  1
  O  O19  1  0.803064  0.237666  0.149777  1
  O  O20  1  0.303060  0.737665  0.149766  1
  O  O21  1  0.303059  0.237667  0.205654  1
  O  O22  1  0.803067  0.737669  0.205641  1
  O  O23  1  0.803004  0.237661  0.365165  1
  O  O24  1  0.302999  0.737657  0.365178  1
  O  O25  1  0.796296  0.909781  0.295514  1
  O  O26  1  0.296311  0.409797  0.295507  1
  O  O27  1  0.296365  0.909802  0.135985  1
  O  O28  1  0.796354  0.409790  0.135993  1
  O  O29  1  0.796354  0.909794  0.219424  1
  O  O30  1  0.296363  0.409804  0.219434  1
  O  O31  1  0.296305  0.909796  0.378962  1
  O  O32  1  0.796299  0.409788  0.378951  1
  O  O33  1  0.203365  0.909784  0.295517  1
  O  O34  1  0.703355  0.409796  0.295506  1
  O  O35  1  0.703409  0.909806  0.135980  1
  O  O36  1  0.203423  0.409790  0.135990  1
  O  O37  1  0.203425  0.909792  0.219430  1
  O  O38  1  0.703410  0.409809  0.219438  1
  O  O39  1  0.703351  0.909803  0.378959  1
  O  O40  1  0.203370  0.409783  0.378951  1
  O  O41  1  0.758559  0.576907  0.295339  1
  O  O42  1  0.258546  0.076900  0.295330  1
  O  O43  1  0.258605  0.576908  0.135803  1
  O  O44  1  0.758609  0.076920  0.135811  1
  O  O45  1  0.758606  0.576924  0.219608  1
  O  O46  1  0.258607  0.076911  0.219617  1
  O  O47  1  0.258555  0.576899  0.379137  1
  O  O48  1  0.758548  0.076915  0.379128  1
  O  O49  1  0.241104  0.576910  0.295334  1
  O  O50  1  0.741106  0.076897  0.295325  1
  O  O51  1  0.741163  0.576904  0.135804  1
  O  O52  1  0.241152  0.076912  0.135814  1
  O  O53  1  0.241151  0.576915  0.219607  1
  O  O54  1  0.741167  0.076908  0.219614  1
  O  O55  1  0.741117  0.576905  0.379142  1
  O  O56  1  0.241094  0.076908  0.379133  1
  O  O57  1  0.749818  0.862861  0.337237  1
  O  O58  1  0.249835  0.362859  0.337228  1
  O  O59  1  0.249915  0.862865  0.177707  1
  O  O60  1  0.749905  0.362868  0.177717  1
  O  O61  1  0.749913  0.862868  0.177700  1
  O  O62  1  0.249908  0.362865  0.177712  1
  O  O63  1  0.249820  0.862859  0.337240  1
  O  O64  1  0.749832  0.362861  0.337227  1
  O  O65  1  -0.000000  0.847840  0.319440  1
  O  O66  1  0.499832  0.347833  0.319429  1
  O  O67  1  0.499904  0.847840  0.159905  1
  O  O68  1  0.000000  0.347847  0.159916  1
  O  O69  1  0.000000  0.847850  0.195502  1
  O  O70  1  0.499900  0.347843  0.195513  1
  O  O71  1  0.499823  0.847836  0.355037  1
  O  O72  1  0.000000  0.347843  0.355027  1
  O  O73  1  0.792299  0.994952  0.257469  1
  O  O74  1  0.292291  0.495021  0.257470  1
  O  O75  1  0.292286  0.995021  0.097949  1
  O  O76  1  0.792303  0.494951  0.097949  1
  O  O77  1  0.207420  0.994961  0.257474  1
  O  O78  1  0.707428  0.495035  0.257473  1
  O  O79  1  0.707423  0.995034  0.097945  1
  O  O80  1  0.207423  0.494962  0.097946  1
  O  O81  1  0.000000  0.617936  0.316362  1
  O  O82  1  0.499833  0.117938  0.316349  1
  O  O83  1  0.499886  0.617945  0.156826  1
  O  O84  1  0.000000  0.117943  0.156838  1
  O  O85  1  0.000000  0.617945  0.198581  1
  O  O86  1  0.499884  0.117947  0.198594  1
  O  O87  1  0.499839  0.617940  0.358118  1
  O  O88  1  0.000000  0.117938  0.358105  1
  O  O89  1  0.000000  0.018271  0.285298  1
  O  O90  1  0.499837  0.518308  0.285299  1
  O  O91  1  0.499877  0.018315  0.125775  1
  O  O92  1  -0.000000  0.518278  0.125774  1
  O  O93  1  0.000000  0.018279  0.229645  1
  O  O94  1  0.499877  0.518317  0.229644  1
  O  O95  1  0.499828  0.018310  0.389168  1
  O  O96  1  0.000000  0.518272  0.389169  1
  O  O97  1  0.749834  0.115193  0.656274  1
  O  O98  1  0.249851  0.615191  0.656285  1
  O  O99  1  0.249885  0.115198  0.496764  1
  O  O100  1  0.749879  0.615200  0.496753  1
  O  O101  1  0.749873  0.115200  0.496762  1
  O  O102  1  0.249889  0.615197  0.496753  1
  O  O103  1  0.249845  0.115191  0.656279  1
  O  O104  1  0.749838  0.615193  0.656289  1
  O  O105  1  0.696662  0.237657  0.628335  1
  O  O106  1  0.196655  0.737658  0.628348  1
  O  O107  1  0.196715  0.237661  0.468824  1
  O  O108  1  0.696725  0.737663  0.468811  1
  O  O109  1  0.696723  0.237667  0.524703  1
  O  O110  1  0.196717  0.737663  0.524692  1
  O  O111  1  0.196654  0.237657  0.684216  1
  O  O112  1  0.696662  0.737663  0.684227  1
  O  O113  1  0.302998  0.237658  0.628338  1
  O  O114  1  0.803004  0.737655  0.628349  1
  O  O115  1  0.803064  0.237666  0.468825  1
  O  O116  1  0.303060  0.737665  0.468814  1
  O  O117  1  0.303059  0.237667  0.524702  1
  O  O118  1  0.803067  0.737669  0.524689  1
  O  O119  1  0.803004  0.237661  0.684214  1
  O  O120  1  0.302999  0.737657  0.684227  1
  O  O121  1  0.796296  0.909781  0.614562  1
  O  O122  1  0.296311  0.409797  0.614555  1
  O  O123  1  0.296365  0.909802  0.455033  1
  O  O124  1  0.796354  0.409790  0.455042  1
  O  O125  1  0.796354  0.909794  0.538472  1
  O  O126  1  0.296363  0.409804  0.538482  1
  O  O127  1  0.296305  0.909796  0.698010  1
  O  O128  1  0.796299  0.409788  0.697999  1
  O  O129  1  0.203365  0.909784  0.614565  1
  O  O130  1  0.703355  0.409796  0.614554  1
  O  O131  1  0.703409  0.909806  0.455028  1
  O  O132  1  0.203423  0.409790  0.455038  1
  O  O133  1  0.203425  0.909792  0.538478  1
  O  O134  1  0.703410  0.409809  0.538486  1
  O  O135  1  0.703351  0.909803  0.698007  1
  O  O136  1  0.203370  0.409783  0.698000  1
  O  O137  1  0.758559  0.576907  0.614387  1
  O  O138  1  0.258546  0.076900  0.614379  1
  O  O139  1  0.258605  0.576908  0.454851  1
  O  O140  1  0.758609  0.076920  0.454859  1
  O  O141  1  0.758606  0.576924  0.538656  1
  O  O142  1  0.258607  0.076911  0.538665  1
  O  O143  1  0.258555  0.576899  0.698186  1
  O  O144  1  0.758548  0.076915  0.698176  1
  O  O145  1  0.241104  0.576910  0.614382  1
  O  O146  1  0.741106  0.076897  0.614374  1
  O  O147  1  0.741163  0.576904  0.454852  1
  O  O148  1  0.241152  0.076912  0.454862  1
  O  O149  1  0.241151  0.576915  0.538655  1
  O  O150  1  0.741167  0.076908  0.538662  1
  O  O151  1  0.741117  0.576905  0.698190  1
  O  O152  1  0.241094  0.076908  0.698181  1
  O  O153  1  0.749818  0.862861  0.656286  1
  O  O154  1  0.249835  0.362859  0.656276  1
  O  O155  1  0.249915  0.862865  0.496755  1
  O  O156  1  0.749905  0.362868  0.496765  1
  O  O157  1  0.749913  0.862868  0.496748  1
  O  O158  1  0.249908  0.362865  0.496761  1
  O  O159  1  0.249820  0.862859  0.656288  1
  O  O160  1  0.749832  0.362861  0.656275  1
  O  O161  1  0.000000  0.847840  0.638488  1
  O  O162  1  0.499832  0.347833  0.638478  1
  O  O163  1  0.499904  0.847840  0.478953  1
  O  O164  1  0.000000  0.347847  0.478964  1
  O  O165  1  0.000000  0.847850  0.514550  1
  O  O166  1  0.499900  0.347843  0.514562  1
  O  O167  1  0.499823  0.847836  0.674086  1
  O  O168  1  0.000000  0.347843  0.674075  1
  O  O169  1  0.792299  0.994952  0.576518  1
  O  O170  1  0.292291  0.495021  0.576518  1
  O  O171  1  0.292286  0.995021  0.416998  1
  O  O172  1  0.792303  0.494951  0.416997  1
  O  O173  1  0.207420  0.994961  0.576522  1
  O  O174  1  0.707428  0.495035  0.576521  1
  O  O175  1  0.707423  0.995034  0.416993  1
  O  O176  1  0.207423  0.494962  0.416994  1
  O  O177  1  0.000000  0.617936  0.635411  1
  O  O178  1  0.499833  0.117938  0.635398  1
  O  O179  1  0.499886  0.617945  0.475874  1
  O  O180  1  0.000000  0.117943  0.475887  1
  O  O181  1  0.000000  0.617945  0.517630  1
  O  O182  1  0.499884  0.117947  0.517642  1
  O  O183  1  0.499839  0.617940  0.677166  1
  O  O184  1  0.000000  0.117938  0.677153  1
  O  O185  1  0.000000  0.018271  0.604346  1
  O  O186  1  0.499837  0.518308  0.604347  1
  O  O187  1  0.499877  0.018315  0.444823  1
  O  O188  1  0.000000  0.518278  0.444822  1
  O  O189  1  0.000000  0.018279  0.548693  1
  O  O190  1  0.499877  0.518317  0.548692  1
  O  O191  1  0.499828  0.018310  0.708216  1
  O  O192  1  0.000000  0.518272  0.708217  1
  O  O193  1  0.292286  0.995021  0.736046  1
  O  O194  1  0.792303  0.494951  0.736045  1
  O  O195  1  0.707423  0.995034  0.736042  1
  O  O196  1  0.207423  0.494962  0.736043  1
  Si  Si197  1  0.827274  0.635257  0.314310  1
  Si  Si198  1  0.327269  0.135258  0.314299  1
  Si  Si199  1  0.327322  0.635264  0.154773  1
  Si  Si200  1  0.827319  0.135264  0.154783  1
  Si  Si201  1  0.827321  0.635267  0.200635  1
  Si  Si202  1  0.327321  0.135266  0.200647  1
  Si  Si203  1  0.327275  0.635259  0.360168  1
  Si  Si204  1  0.827267  0.135261  0.360157  1
  Si  Si205  1  0.172399  0.635256  0.314307  1
  Si  Si206  1  0.672395  0.135257  0.314295  1
  Si  Si207  1  0.672449  0.635265  0.154774  1
  Si  Si208  1  0.172445  0.135263  0.154785  1
  Si  Si209  1  0.172446  0.635265  0.200635  1
  Si  Si210  1  0.672448  0.135268  0.200645  1
  Si  Si211  1  0.672401  0.635262  0.360172  1
  Si  Si212  1  0.172393  0.135257  0.360161  1
  Si  Si213  1  0.671163  0.339791  0.314535  1
  Si  Si214  1  0.171155  0.839791  0.314547  1
  Si  Si215  1  0.171228  0.339798  0.155021  1
  Si  Si216  1  0.671232  0.839800  0.155008  1
  Si  Si217  1  0.671228  0.339803  0.200410  1
  Si  Si218  1  0.171232  0.839800  0.200399  1
  Si  Si219  1  0.171162  0.339791  0.359921  1
  Si  Si220  1  0.671155  0.839796  0.359931  1
  Si  Si221  1  0.328501  0.339793  0.314535  1
  Si  Si222  1  0.828494  0.839791  0.314545  1
  Si  Si223  1  0.828567  0.339799  0.155024  1
  Si  Si224  1  0.328570  0.839798  0.155013  1
  Si  Si225  1  0.328567  0.339800  0.200406  1
  Si  Si226  1  0.828571  0.839802  0.200394  1
  Si  Si227  1  0.828501  0.339796  0.359920  1
  Si  Si228  1  0.328494  0.839793  0.359933  1
  Si  Si229  1  0.827449  0.000000  0.283038  1
  Si  Si230  1  0.327453  0.500723  0.283039  1
  Si  Si231  1  0.327492  0.000000  0.123517  1
  Si  Si232  1  0.827496  0.500693  0.123516  1
  Si  Si233  1  0.827497  0.000000  0.231902  1
  Si  Si234  1  0.327493  0.500728  0.231903  1
  Si  Si235  1  0.327445  0.000000  0.391429  1
  Si  Si236  1  0.827455  0.500690  0.391428  1
  Si  Si237  1  0.172220  0.000000  0.283041  1
  Si  Si238  1  0.672223  0.500726  0.283040  1
  Si  Si239  1  0.672262  0.000000  0.123514  1
  Si  Si240  1  0.172268  0.500697  0.123515  1
  Si  Si241  1  0.172268  -0.000000  0.231905  1
  Si  Si242  1  0.672263  0.500737  0.231904  1
  Si  Si243  1  0.672215  0.000000  0.391426  1
  Si  Si244  1  0.172227  0.500690  0.391427  1
  Si  Si245  1  0.827274  0.635257  0.633358  1
  Si  Si246  1  0.327269  0.135258  0.633347  1
  Si  Si247  1  0.327322  0.635264  0.473821  1
  Si  Si248  1  0.827319  0.135264  0.473832  1
  Si  Si249  1  0.827321  0.635267  0.519683  1
  Si  Si250  1  0.327321  0.135266  0.519695  1
  Si  Si251  1  0.327275  0.635259  0.679217  1
  Si  Si252  1  0.827267  0.135261  0.679205  1
  Si  Si253  1  0.172399  0.635256  0.633355  1
  Si  Si254  1  0.672395  0.135257  0.633344  1
  Si  Si255  1  0.672449  0.635265  0.473822  1
  Si  Si256  1  0.172445  0.135263  0.473833  1
  Si  Si257  1  0.172446  0.635265  0.519683  1
  Si  Si258  1  0.672448  0.135268  0.519693  1
  Si  Si259  1  0.672401  0.635262  0.679220  1
  Si  Si260  1  0.172393  0.135257  0.679209  1
  Si  Si261  1  0.671163  0.339791  0.633583  1
  Si  Si262  1  0.171155  0.839791  0.633595  1
  Si  Si263  1  0.171228  0.339798  0.474069  1
  Si  Si264  1  0.671232  0.839800  0.474056  1
  Si  Si265  1  0.671228  0.339803  0.519458  1
  Si  Si266  1  0.171232  0.839800  0.519447  1
  Si  Si267  1  0.171162  0.339791  0.678969  1
  Si  Si268  1  0.671155  0.839796  0.678979  1
  Si  Si269  1  0.328501  0.339793  0.633583  1
  Si  Si270  1  0.828494  0.839791  0.633594  1
  Si  Si271  1  0.828567  0.339799  0.474072  1
  Si  Si272  1  0.328570  0.839798  0.474061  1
  Si  Si273  1  0.328567  0.339800  0.519454  1
  Si  Si274  1  0.828571  0.839802  0.519442  1
  Si  Si275  1  0.828501  0.339796  0.678968  1
  Si  Si276  1  0.328494  0.839793  0.678981  1
  Si  Si277  1  0.827449  0.000000  0.602086  1
  Si  Si278  1  0.327453  0.500723  0.602087  1
  Si  Si279  1  0.327492  0.000000  0.442565  1
  Si  Si280  1  0.827496  0.500693  0.442564  1
  Si  Si281  1  0.827497  0.000000  0.550950  1
  Si  Si282  1  0.327493  0.500728  0.550951  1
  Si  Si283  1  0.327445  0.000000  0.710477  1
  Si  Si284  1  0.827455  0.500690  0.710477  1
  Si  Si285  1  0.172220  0.000000  0.602089  1
  Si  Si286  1  0.672223  0.500726  0.602089  1
  Si  Si287  1  0.672262  0.000000  0.442562  1
  Si  Si288  1  0.172268  0.500697  0.442563  1
  Si  Si289  1  0.172268  0.000000  0.550953  1
  Si  Si290  1  0.672263  0.500737  0.550952  1
  Si  Si291  1  0.672215  0.000000  0.710474  1
  Si  Si292  1  0.172227  0.500690  0.710475  1
  H  H293  1  0.292286  0.995021  0.083009  1
  H  H294  1  0.792303  0.494951  0.083008  1
  H  H295  1  0.707423  0.995034  0.083004  1
  H  H296  1  0.207423  0.494962  0.083005  1
  H  H297  1  0.292286  0.995021  0.750987  1
  H  H298  1  0.792303  0.494951  0.750986  1
  H  H299  1  0.707423  0.995034  0.750982  1
  H  H300  1  0.207423  0.494962  0.750983  1
