# generated using pymatgen
data_Si12H2O25
_symmetry_space_group_name_H-M   'P 1'
_cell_length_a   7.65737943
_cell_length_b   8.96913389
_cell_length_c   31.48462646
_cell_angle_alpha   90.00000000
_cell_angle_beta   90.00000000
_cell_angle_gamma   90.00000000
_symmetry_Int_Tables_number   1
_chemical_formula_structural   Si12H2O25
_chemical_formula_sum   'Si12 H2 O25'
_cell_volume   2162.36607701
_cell_formula_units_Z   1
loop_
 _symmetry_equiv_pos_site_id
 _symmetry_equiv_pos_as_xyz
  1  'x, y, z'
loop_
 _atom_site_type_symbol
 _atom_site_label
 _atom_site_symmetry_multiplicity
 _atom_site_fract_x
 _atom_site_fract_y
 _atom_site_fract_z
 _atom_site_occupancy
  O  O1  1  0.770877  0.314105  0.355585  1
  O  O2  1  0.770797  0.686880  0.326705  1
  O  O3  1  0.228762  0.686675  0.326618  1
  O  O4  1  0.228637  0.314253  0.355675  1
  O  O5  1  0.000000  0.250733  0.300971  1
  O  O6  1  0.000000  0.750109  0.381309  1
  O  O7  1  0.766410  0.447865  0.285556  1
  O  O8  1  0.766355  0.553060  0.396735  1
  O  O9  1  0.233580  0.553601  0.396728  1
  O  O10  1  0.233540  0.447277  0.285565  1
  O  O11  1  0.665938  0.168193  0.291339  1
  O  O12  1  0.666017  0.832720  0.390965  1
  O  O13  1  0.332932  0.834217  0.390348  1
  O  O14  1  0.332948  0.166654  0.291955  1
  O  O15  1  0.665541  0.698171  0.250168  1
  O  O16  1  0.665520  0.302676  0.432103  1
  O  O17  1  0.334204  0.303052  0.432126  1
  O  O18  1  0.334291  0.697742  0.250153  1
  O  O19  1  0.000000  0.644053  0.270358  1
  O  O20  1  0.000000  0.356934  0.411945  1
  O  O21  1  0.503855  0.001731  0.341447  1
  O  O22  1  0.499612  0.938515  0.261756  1
  O  O23  1  0.499588  0.061606  0.421124  1
  O  O24  1  0.499736  0.187749  0.494992  1
  O  O25  1  0.499737  0.813974  0.187393  1
  Si  Si26  1  0.799605  0.290280  0.306482  1
  Si  Si27  1  0.799603  0.710639  0.375806  1
  Si  Si28  1  0.200063  0.711006  0.375670  1
  Si  Si29  1  0.200014  0.289874  0.306620  1
  Si  Si30  1  0.799399  0.620986  0.280881  1
  Si  Si31  1  0.799367  0.379946  0.401412  1
  Si  Si32  1  0.200338  0.380436  0.401462  1
  Si  Si33  1  0.200381  0.620456  0.280832  1
  Si  Si34  1  0.500094  0.065704  0.295445  1
  Si  Si35  1  0.500102  0.935182  0.387146  1
  Si  Si36  1  0.499741  0.211982  0.445998  1
  Si  Si37  1  0.499769  0.789148  0.236406  1
  H  H38  1  0.499736  0.187749  0.523577  1
  H  H39  1  0.499737  0.813974  0.158808  1
