# generated using pymatgen
data_Si19H2O39
_symmetry_space_group_name_H-M   'P 1'
_cell_length_a   13.87556409
_cell_length_b   12.44431264
_cell_length_c   52.41058130
_cell_angle_alpha   104.91000000
_cell_angle_beta   90.00000000
_cell_angle_gamma   90.00000000
_symmetry_Int_Tables_number   1
_chemical_formula_structural   Si19H2O39
_chemical_formula_sum   'Si76 H8 O156'
_cell_volume   8745.13530943
_cell_formula_units_Z   4
loop_
 _symmetry_equiv_pos_site_id
 _symmetry_equiv_pos_as_xyz
  1  'x, y, z'
loop_
 _atom_site_type_symbol
 _atom_site_label
 _atom_site_symmetry_multiplicity
 _atom_site_fract_x
 _atom_site_fract_y
 _atom_site_fract_z
 _atom_site_occupancy
  O  O1  1  0.134552  0.143634  0.115897  1
  O  O2  1  0.865768  0.143524  0.115944  1
  O  O3  1  0.172434  0.250759  0.168199  1
  O  O4  1  0.134567  0.856693  0.122819  1
  O  O5  1  -0.000000  0.907254  0.156638  1
  O  O6  1  0.124510  0.048654  0.153322  1
  O  O7  1  0.172430  0.895639  0.175709  1
  O  O8  1  0.499915  0.154845  0.270116  1
  O  O9  1  0.403170  0.159159  0.230211  1
  O  O10  1  0.096619  0.840704  0.290453  1
  O  O11  1  0.402113  0.780366  0.236383  1
  O  O12  1  0.097775  0.220136  0.284296  1
  O  O13  1  0.000000  0.244010  0.246160  1
  O  O14  1  0.499929  0.943665  0.263314  1
  O  O15  1  0.499950  0.548345  0.274203  1
  O  O16  1  0.092621  0.310201  0.211885  1
  O  O17  1  0.403746  0.477253  0.233885  1
  O  O18  1  0.095979  0.522133  0.287105  1
  O  O19  1  0.240039  0.812478  0.215145  1
  O  O20  1  0.259727  0.187457  0.305515  1
  O  O21  1  0.251304  0.813006  0.263913  1
  O  O22  1  0.248465  0.186148  0.256724  1
  O  O23  1  0.277008  0.627856  0.230093  1
  O  O24  1  0.224142  0.371760  0.290153  1
  O  O25  1  0.245387  0.415321  0.210189  1
  O  O26  1  0.249004  0.501989  0.260376  1
  O  O27  1  0.249069  0.212378  0.210042  1
  O  O28  1  0.259360  0.018167  0.217009  1
  O  O29  1  0.240474  0.981537  0.303594  1
  O  O30  1  0.094097  0.938313  0.219914  1
  O  O31  1  0.405630  0.061629  0.300797  1
  O  O32  1  0.499943  0.333850  0.252140  1
  O  O33  1  0.000000  0.189626  0.149757  1
  O  O34  1  0.827737  0.250754  0.168210  1
  O  O35  1  0.865770  0.856583  0.122806  1
  O  O36  1  0.875767  0.048606  0.153349  1
  O  O37  1  0.827725  0.895522  0.175678  1
  O  O38  1  -0.000000  0.844737  0.250563  1
  O  O39  1  0.903152  0.840612  0.290434  1
  O  O40  1  0.596597  0.159064  0.230192  1
  O  O41  1  0.902040  0.220179  0.284260  1
  O  O42  1  0.597701  0.780411  0.236347  1
  O  O43  1  -0.000000  0.056217  0.257472  1
  O  O44  1  0.907136  0.310094  0.211940  1
  O  O45  1  0.903846  0.522111  0.287093  1
  O  O46  1  0.596066  0.477226  0.233863  1
  O  O47  1  0.740105  0.187418  0.305460  1
  O  O48  1  0.759795  0.812446  0.215089  1
  O  O49  1  0.751395  0.186034  0.256663  1
  O  O50  1  0.748559  0.812899  0.263853  1
  O  O51  1  0.775604  0.371729  0.290087  1
  O  O52  1  0.722746  0.627831  0.230028  1
  O  O53  1  0.754489  0.415301  0.210168  1
  O  O54  1  0.750711  0.502140  0.260357  1
  O  O55  1  0.750613  0.212348  0.209995  1
  O  O56  1  0.759338  0.981466  0.303516  1
  O  O57  1  0.740453  0.018092  0.216929  1
  O  O58  1  0.594166  0.061668  0.300808  1
  O  O59  1  0.905697  0.938352  0.219925  1
  O  O60  1  -0.000000  0.451504  0.246707  1
  O  O61  1  -0.000000  0.665762  0.268734  1
  O  O62  1  0.500044  0.755525  0.274444  1
  O  O63  1  0.327816  0.250898  0.450084  1
  O  O64  1  0.327662  0.749401  0.352503  1
  O  O65  1  0.365779  0.143583  0.397810  1
  O  O66  1  0.365771  0.856741  0.404740  1
  O  O67  1  0.375857  0.048773  0.435243  1
  O  O68  1  0.375836  0.951545  0.367308  1
  O  O69  1  0.327526  0.895817  0.457569  1
  O  O70  1  0.327440  0.104294  0.344948  1
  O  O71  1  0.407128  0.690313  0.308803  1
  O  O72  1  0.407087  0.309549  0.493846  1
  O  O73  1  0.254967  0.415622  0.492072  1
  O  O74  1  0.254720  0.584455  0.310586  1
  O  O75  1  0.250144  0.212622  0.491836  1
  O  O76  1  0.250450  0.787531  0.310687  1
  O  O77  1  0.672513  0.749398  0.352517  1
  O  O78  1  0.672580  0.250676  0.450074  1
  O  O79  1  0.634555  0.856626  0.404788  1
  O  O80  1  0.634553  0.143470  0.397797  1
  O  O81  1  0.500208  0.189687  0.431638  1
  O  O82  1  0.624440  0.951501  0.367336  1
  O  O83  1  0.624521  0.048612  0.435252  1
  O  O84  1  0.672713  0.104178  0.344917  1
  O  O85  1  0.672536  0.895813  0.457697  1
  O  O86  1  0.500159  0.907339  0.438599  1
  O  O87  1  0.592569  0.310407  0.493707  1
  O  O88  1  0.592625  0.690213  0.308859  1
  O  O89  1  0.745142  0.584426  0.310566  1
  O  O90  1  0.745592  0.415383  0.492008  1
  O  O91  1  0.749239  0.787503  0.310639  1
  O  O92  1  0.748774  0.212345  0.491985  1
  O  O93  1  0.500129  0.092905  0.363959  1
  O  O94  1  0.500148  0.810498  0.370932  1
  O  O95  1  0.172595  0.749543  0.634390  1
  O  O96  1  0.134552  0.143634  0.679732  1
  O  O97  1  0.124529  0.951682  0.649229  1
  O  O98  1  0.172514  0.104476  0.626805  1
  O  O99  1  0.000000  0.093000  0.645920  1
  O  O100  1  0.402731  0.840773  0.572311  1
  O  O101  1  0.096178  0.159221  0.512070  1
  O  O102  1  0.499692  0.666031  0.550537  1
  O  O103  1  0.401632  0.220277  0.566112  1
  O  O104  1  0.097292  0.780498  0.518198  1
  O  O105  1  0.092574  0.689676  0.590765  1
  O  O106  1  0.404141  0.522103  0.568895  1
  O  O107  1  0.096386  0.477208  0.515684  1
  O  O108  1  0.239661  0.187700  0.587313  1
  O  O109  1  0.259349  0.812721  0.496943  1
  O  O110  1  0.251030  0.186402  0.538513  1
  O  O111  1  0.248192  0.813262  0.545703  1
  O  O112  1  0.275556  0.372007  0.571951  1
  O  O113  1  0.222689  0.628097  0.511891  1
  O  O114  1  0.245623  0.584753  0.592470  1
  O  O115  1  0.250818  0.502657  0.542275  1
  O  O116  1  0.248768  0.787782  0.592481  1
  O  O117  1  0.259022  0.981780  0.585387  1
  O  O118  1  0.240136  0.018404  0.498801  1
  O  O119  1  0.093816  0.061766  0.582683  1
  O  O120  1  0.405344  0.938456  0.501800  1
  O  O121  1  -0.000000  0.810565  0.652812  1
  O  O122  1  0.499630  0.845026  0.532469  1
  O  O123  1  -0.000000  0.755819  0.556382  1
  O  O124  1  0.499979  0.451646  0.528483  1
  O  O125  1  0.499475  0.056357  0.539324  1
  O  O126  1  0.827803  0.749325  0.634379  1
  O  O127  1  0.865768  0.143524  0.679779  1
  O  O128  1  0.875846  0.951515  0.649238  1
  O  O129  1  0.827546  0.104474  0.626936  1
  O  O130  1  0.000000  0.155120  0.552021  1
  O  O131  1  0.902734  0.159395  0.512175  1
  O  O132  1  0.596180  0.840950  0.572417  1
  O  O133  1  -0.000000  0.334111  0.533946  1
  O  O134  1  0.901634  0.779858  0.518375  1
  O  O135  1  0.597297  0.219635  0.566288  1
  O  O136  1  0.907078  0.690536  0.590626  1
  O  O137  1  0.904131  0.478009  0.515577  1
  O  O138  1  0.596376  0.522903  0.568787  1
  O  O139  1  0.739675  0.812444  0.497172  1
  O  O140  1  0.759364  0.187427  0.587541  1
  O  O141  1  0.751022  0.813798  0.545969  1
  O  O142  1  0.748187  0.186938  0.538779  1
  O  O143  1  0.775542  0.628127  0.512539  1
  O  O144  1  0.722675  0.372038  0.572598  1
  O  O145  1  0.754935  0.584517  0.592405  1
  O  O146  1  0.750827  0.497436  0.542204  1
  O  O147  1  0.750148  0.787505  0.592630  1
  O  O148  1  0.759035  0.018396  0.499118  1
  O  O149  1  0.740149  0.981769  0.585703  1
  O  O150  1  0.593820  0.938386  0.501814  1
  O  O151  1  0.905353  0.061699  0.582697  1
  O  O152  1  0.500319  0.244319  0.528100  1
  O  O153  1  -0.000000  0.943793  0.545167  1
  O  O154  1  0.000000  0.548479  0.555985  1
  O  O155  1  0.134567  0.856693  0.686654  1
  O  O156  1  0.865770  0.856583  0.686641  1
  Si  Si157  1  0.499908  0.058346  0.284447  1
  Si  Si158  1  0.499927  0.454387  0.247636  1
  Si  Si159  1  0.499910  0.202973  0.245097  1
  Si  Si160  1  0.194218  0.300017  0.198840  1
  Si  Si161  1  0.111415  0.163621  0.146480  1
  Si  Si162  1  0.111427  0.922507  0.152460  1
  Si  Si163  1  0.290290  0.756934  0.235555  1
  Si  Si164  1  0.209727  0.242977  0.285051  1
  Si  Si165  1  0.293459  0.506991  0.233213  1
  Si  Si166  1  0.206619  0.493063  0.287478  1
  Si  Si167  1  0.290498  0.142377  0.228266  1
  Si  Si168  1  0.209308  0.857295  0.292370  1
  Si  Si169  1  0.194453  0.912863  0.206178  1
  Si  Si170  1  0.499937  0.814732  0.251415  1
  Si  Si171  1  0.499941  0.670715  0.291843  1
  Si  Si172  1  -0.000000  0.941539  0.236307  1
  Si  Si173  1  0.888877  0.163610  0.146526  1
  Si  Si174  1  0.888831  0.922414  0.152445  1
  Si  Si175  1  0.790078  0.242942  0.284992  1
  Si  Si176  1  0.709518  0.756912  0.235497  1
  Si  Si177  1  0.793192  0.493060  0.287439  1
  Si  Si178  1  0.706342  0.506991  0.233174  1
  Si  Si179  1  0.790459  0.857199  0.292319  1
  Si  Si180  1  0.709267  0.142276  0.228215  1
  Si  Si181  1  0.805441  0.912823  0.206136  1
  Si  Si182  1  0.805653  0.299987  0.198835  1
  Si  Si183  1  -0.000000  0.796607  0.275590  1
  Si  Si184  1  -0.000000  0.329422  0.228917  1
  Si  Si185  1  0.000000  0.545297  0.273306  1
  Si  Si186  1  -0.000000  0.185287  0.269275  1
  Si  Si187  1  0.305587  0.700030  0.321879  1
  Si  Si188  1  0.305675  0.300051  0.480712  1
  Si  Si189  1  0.388925  0.163725  0.428394  1
  Si  Si190  1  0.388873  0.836593  0.374162  1
  Si  Si191  1  0.388885  0.922614  0.434373  1
  Si  Si192  1  0.388828  0.077686  0.368167  1
  Si  Si193  1  0.305073  0.913099  0.488012  1
  Si  Si194  1  0.305191  0.086973  0.314483  1
  Si  Si195  1  0.611415  0.836579  0.374204  1
  Si  Si196  1  0.611467  0.163532  0.428383  1
  Si  Si197  1  0.611428  0.077607  0.368158  1
  Si  Si198  1  0.611481  0.922509  0.434430  1
  Si  Si199  1  0.694704  0.086933  0.314441  1
  Si  Si200  1  0.694354  0.912967  0.488182  1
  Si  Si201  1  0.694276  0.700015  0.321875  1
  Si  Si202  1  0.694286  0.300047  0.480717  1
  Si  Si203  1  0.499577  0.185361  0.551174  1
  Si  Si204  1  0.194301  0.700079  0.603750  1
  Si  Si205  1  0.499561  0.796893  0.557491  1
  Si  Si206  1  0.194334  0.087209  0.596319  1
  Si  Si207  1  0.111465  0.836714  0.656073  1
  Si  Si208  1  0.111485  0.077819  0.650082  1
  Si  Si209  1  0.289720  0.243182  0.566849  1
  Si  Si210  1  0.209155  0.757137  0.517354  1
  Si  Si211  1  0.293453  0.493304  0.569319  1
  Si  Si212  1  0.206618  0.507237  0.515057  1
  Si  Si213  1  0.290050  0.857483  0.574176  1
  Si  Si214  1  0.208860  0.142559  0.510072  1
  Si  Si215  1  0.499568  0.941675  0.518176  1
  Si  Si216  1  -0.000000  0.454602  0.529403  1
  Si  Si217  1  0.499987  0.329406  0.510772  1
  Si  Si218  1  -0.000000  0.058472  0.566316  1
  Si  Si219  1  0.500070  0.545521  0.555067  1
  Si  Si220  1  0.000000  0.203253  0.526999  1
  Si  Si221  1  -0.000000  0.814794  0.533313  1
  Si  Si222  1  0.888924  0.836524  0.656067  1
  Si  Si223  1  0.888879  0.077701  0.650134  1
  Si  Si224  1  0.789719  0.756954  0.517637  1
  Si  Si225  1  0.709155  0.243003  0.567132  1
  Si  Si226  1  0.793442  0.506817  0.515159  1
  Si  Si227  1  0.706608  0.492888  0.569422  1
  Si  Si228  1  0.790054  0.142707  0.510307  1
  Si  Si229  1  0.708862  0.857629  0.574412  1
  Si  Si230  1  0.805100  0.087075  0.596491  1
  Si  Si231  1  0.805653  0.700068  0.603754  1
  Si  Si232  1  -0.000000  0.670703  0.573702  1
  H  H233  1  0.134552  0.143634  0.098725  1
  H  H234  1  0.865768  0.143524  0.098772  1
  H  H235  1  0.134567  0.856693  0.105647  1
  H  H236  1  0.865770  0.856583  0.105634  1
  H  H237  1  0.134552  0.143634  0.696904  1
  H  H238  1  0.865768  0.143524  0.696952  1
  H  H239  1  0.134567  0.856693  0.703826  1
  H  H240  1  0.865770  0.856583  0.703813  1
