# generated using pymatgen
data_Si16H2O33
_symmetry_space_group_name_H-M   'P 1'
_cell_length_a   12.16011045
_cell_length_b   12.16651561
_cell_length_c   49.59427388
_cell_angle_alpha   90.00000000
_cell_angle_beta   90.00000000
_cell_angle_gamma   90.00000000
_symmetry_Int_Tables_number   1
_chemical_formula_structural   Si16H2O33
_chemical_formula_sum   'Si64 H8 O132'
_cell_volume   7337.28305412
_cell_formula_units_Z   4
loop_
 _symmetry_equiv_pos_site_id
 _symmetry_equiv_pos_as_xyz
  1  'x, y, z'
loop_
 _atom_site_type_symbol
 _atom_site_label
 _atom_site_symmetry_multiplicity
 _atom_site_fract_x
 _atom_site_fract_y
 _atom_site_fract_z
 _atom_site_occupancy
  O  O1  1  -0.000000  0.289063  0.166512  1
  O  O2  1  0.103831  0.103666  0.155573  1
  O  O3  1  0.896256  0.103665  0.155569  1
  O  O4  1  0.352596  0.147354  0.259097  1
  O  O5  1  0.852555  0.352327  0.259067  1
  O  O6  1  0.647560  0.147307  0.259084  1
  O  O7  1  0.147526  0.352314  0.259061  1
  O  O8  1  0.352209  0.102716  0.208843  1
  O  O9  1  0.897137  0.352094  0.208806  1
  O  O10  1  0.647912  0.102709  0.208829  1
  O  O11  1  0.103046  0.352100  0.208794  1
  O  O12  1  0.500078  0.223855  0.228862  1
  O  O13  1  0.775926  0.499803  0.228859  1
  O  O14  1  0.224197  0.499815  0.228867  1
  O  O15  1  -0.000000  0.275793  0.289291  1
  O  O16  1  0.297124  0.296849  0.225874  1
  O  O17  1  0.703038  0.296825  0.225866  1
  O  O18  1  0.202996  0.202816  0.292282  1
  O  O19  1  0.797100  0.202784  0.292280  1
  O  O20  1  0.000000  0.499877  0.183168  1
  O  O21  1  -0.000000  0.203540  0.118965  1
  O  O22  1  0.789207  0.499911  0.446738  1
  O  O23  1  0.210841  0.499902  0.446739  1
  O  O24  1  0.500009  0.210727  0.446734  1
  O  O25  1  0.210847  0.499818  0.351626  1
  O  O26  1  0.500067  0.210673  0.351638  1
  O  O27  1  0.703700  0.499879  0.399182  1
  O  O28  1  0.500032  0.296214  0.399185  1
  O  O29  1  0.396238  0.396120  0.435786  1
  O  O30  1  0.603812  0.396120  0.435787  1
  O  O31  1  0.396245  0.396067  0.362581  1
  O  O32  1  0.603821  0.396081  0.362582  1
  O  O33  1  0.147867  0.396944  0.489033  1
  O  O34  1  0.602951  0.147643  0.489019  1
  O  O35  1  0.852172  0.397008  0.489040  1
  O  O36  1  0.397041  0.147629  0.489018  1
  O  O37  1  0.147891  0.396939  0.309317  1
  O  O38  1  0.602993  0.147586  0.309345  1
  O  O39  1  0.852178  0.396900  0.309326  1
  O  O40  1  0.397076  0.147581  0.309360  1
  O  O41  1  0.789212  0.499843  0.351626  1
  O  O42  1  0.296351  0.499865  0.399181  1
  O  O43  1  -0.000000  0.499912  0.463418  1
  O  O44  1  -0.000000  0.499814  0.334947  1
  O  O45  1  0.000000  0.289047  0.631839  1
  O  O46  1  0.103862  0.103652  0.642789  1
  O  O47  1  0.896284  0.103653  0.642784  1
  O  O48  1  0.147520  0.352411  0.539292  1
  O  O49  1  0.647515  0.147410  0.539279  1
  O  O50  1  0.852527  0.352416  0.539296  1
  O  O51  1  0.352535  0.147374  0.539282  1
  O  O52  1  0.352192  0.102819  0.589541  1
  O  O53  1  0.897079  0.352150  0.589558  1
  O  O54  1  0.647899  0.102827  0.589535  1
  O  O55  1  0.102990  0.352157  0.589554  1
  O  O56  1  -0.000000  0.275858  0.509074  1
  O  O57  1  0.500028  0.223941  0.569503  1
  O  O58  1  0.775916  0.499909  0.569500  1
  O  O59  1  0.202950  0.202835  0.506090  1
  O  O60  1  0.797049  0.202894  0.506080  1
  O  O61  1  0.297079  0.296926  0.572489  1
  O  O62  1  0.702975  0.296949  0.572492  1
  O  O63  1  0.000000  0.499887  0.615197  1
  O  O64  1  0.224173  0.499895  0.569496  1
  O  O65  1  0.289223  0.000000  0.166533  1
  O  O66  1  0.710855  0.000000  0.166518  1
  O  O67  1  -0.000000  0.710724  0.166528  1
  O  O68  1  0.203734  -0.000000  0.118975  1
  O  O69  1  -0.000000  0.796221  0.118977  1
  O  O70  1  0.896260  0.896111  0.155574  1
  O  O71  1  0.103835  0.896116  0.155578  1
  O  O72  1  0.647569  0.852359  0.259073  1
  O  O73  1  0.147556  0.647291  0.259074  1
  O  O74  1  0.352548  0.852360  0.259081  1
  O  O75  1  0.852535  0.647285  0.259069  1
  O  O76  1  0.647896  0.896859  0.208810  1
  O  O77  1  0.103018  0.647588  0.208812  1
  O  O78  1  0.352207  0.896868  0.208819  1
  O  O79  1  0.897104  0.647587  0.208810  1
  O  O80  1  0.500055  0.775775  0.228865  1
  O  O81  1  -0.000000  0.723870  0.289283  1
  O  O82  1  0.275905  -0.000000  0.289285  1
  O  O83  1  0.702992  0.702765  0.225871  1
  O  O84  1  0.297115  0.702773  0.225880  1
  O  O85  1  0.797082  0.796849  0.292275  1
  O  O86  1  0.202977  0.796885  0.292274  1
  O  O87  1  0.724173  -0.000000  0.289290  1
  O  O88  1  0.500042  -0.000000  0.183204  1
  O  O89  1  0.796389  -0.000000  0.118966  1
  O  O90  1  0.500019  0.789061  0.446728  1
  O  O91  1  0.500031  0.789008  0.351625  1
  O  O92  1  0.500018  0.703539  0.399177  1
  O  O93  1  0.603809  0.603672  0.435782  1
  O  O94  1  0.396231  0.603670  0.435781  1
  O  O95  1  0.603811  0.603629  0.362578  1
  O  O96  1  0.396237  0.603620  0.362577  1
  O  O97  1  0.852180  0.602857  0.489035  1
  O  O98  1  0.397090  0.852141  0.489020  1
  O  O99  1  0.147885  0.602794  0.489046  1
  O  O100  1  0.603001  0.852159  0.489011  1
  O  O101  1  0.852195  0.602749  0.309327  1
  O  O102  1  0.397069  0.852110  0.309343  1
  O  O103  1  0.147874  0.602787  0.309335  1
  O  O104  1  0.602975  0.852076  0.309335  1
  O  O105  1  0.500064  -0.000000  0.334983  1
  O  O106  1  0.500011  0.000000  0.463379  1
  O  O107  1  -0.000000  0.710710  0.631849  1
  O  O108  1  0.289258  -0.000000  0.631843  1
  O  O109  1  0.896283  0.896103  0.642791  1
  O  O110  1  0.103860  0.896097  0.642796  1
  O  O111  1  0.852553  0.647397  0.539294  1
  O  O112  1  0.352549  0.852396  0.539282  1
  O  O113  1  0.147518  0.647399  0.539301  1
  O  O114  1  0.647518  0.852411  0.539276  1
  O  O115  1  0.647901  0.896977  0.589533  1
  O  O116  1  0.103008  0.647630  0.589565  1
  O  O117  1  0.352207  0.896969  0.589540  1
  O  O118  1  0.897097  0.647648  0.589559  1
  O  O119  1  0.000000  0.723949  0.509074  1
  O  O120  1  0.275896  -0.000000  0.509081  1
  O  O121  1  0.724150  -0.000000  0.509076  1
  O  O122  1  0.500047  0.775848  0.569502  1
  O  O123  1  0.797097  0.796964  0.506086  1
  O  O124  1  0.202999  0.796911  0.506086  1
  O  O125  1  0.703002  0.702869  0.572488  1
  O  O126  1  0.297095  0.702857  0.572494  1
  O  O127  1  0.710887  -0.000000  0.631832  1
  O  O128  1  0.500065  0.000000  0.615158  1
  O  O129  1  -0.000000  0.203540  0.679387  1
  O  O130  1  0.203734  -0.000000  0.679397  1
  O  O131  1  -0.000000  0.796221  0.679398  1
  O  O132  1  0.796389  0.000000  0.679388  1
  Si  Si133  1  0.000000  0.373150  0.190468  1
  Si  Si134  1  0.304745  0.125721  0.287964  1
  Si  Si135  1  0.874110  0.304563  0.287945  1
  Si  Si136  1  -0.000000  0.178692  0.150039  1
  Si  Si137  1  0.695351  0.125694  0.287958  1
  Si  Si138  1  0.374145  0.195083  0.230215  1
  Si  Si139  1  0.804767  0.373936  0.230192  1
  Si  Si140  1  0.626008  0.195064  0.230205  1
  Si  Si141  1  0.195373  0.373943  0.230192  1
  Si  Si142  1  0.125973  0.304579  0.287942  1
  Si  Si143  1  0.873250  0.499823  0.327653  1
  Si  Si144  1  0.321229  0.499890  0.430254  1
  Si  Si145  1  0.500025  0.321089  0.430258  1
  Si  Si146  1  0.321238  0.499843  0.368109  1
  Si  Si147  1  0.500038  0.321046  0.368111  1
  Si  Si148  1  0.873244  0.499923  0.470711  1
  Si  Si149  1  0.126808  0.499889  0.470713  1
  Si  Si150  1  0.500000  0.126613  0.470684  1
  Si  Si151  1  0.126813  0.499835  0.327652  1
  Si  Si152  1  0.500056  0.126563  0.327686  1
  Si  Si153  1  0.678821  0.499860  0.368110  1
  Si  Si154  1  0.678815  0.499896  0.430255  1
  Si  Si155  1  -0.000000  0.373167  0.607890  1
  Si  Si156  1  0.304706  0.125751  0.510412  1
  Si  Si157  1  0.374098  0.195153  0.568158  1
  Si  Si158  1  0.195339  0.374026  0.568164  1
  Si  Si159  1  0.625962  0.195172  0.568157  1
  Si  Si160  1  0.804727  0.374035  0.568169  1
  Si  Si161  1  -0.000000  0.178682  0.648314  1
  Si  Si162  1  0.125943  0.304620  0.510418  1
  Si  Si163  1  0.695314  0.125788  0.510406  1
  Si  Si164  1  0.874079  0.304655  0.510417  1
  Si  Si165  1  0.000000  0.626596  0.190476  1
  Si  Si166  1  -0.000000  0.821082  0.150050  1
  Si  Si167  1  0.625988  0.804552  0.230200  1
  Si  Si168  1  0.195366  0.625684  0.230202  1
  Si  Si169  1  0.374124  0.804556  0.230207  1
  Si  Si170  1  0.804742  0.625677  0.230195  1
  Si  Si171  1  0.874103  0.695078  0.287943  1
  Si  Si172  1  0.304724  0.873979  0.287952  1
  Si  Si173  1  0.125968  0.695101  0.287947  1
  Si  Si174  1  0.695345  0.873952  0.287949  1
  Si  Si175  1  0.373266  0.000000  0.190504  1
  Si  Si176  1  0.626827  0.000000  0.190494  1
  Si  Si177  1  0.178840  0.000000  0.150047  1
  Si  Si178  1  0.821257  0.000000  0.150039  1
  Si  Si179  1  0.500038  0.873116  0.327674  1
  Si  Si180  1  0.500031  0.873167  0.470681  1
  Si  Si181  1  0.500021  0.678657  0.368105  1
  Si  Si182  1  0.500019  0.678697  0.430252  1
  Si  Si183  1  0.821276  0.000000  0.648316  1
  Si  Si184  1  -0.000000  0.821075  0.648325  1
  Si  Si185  1  0.874107  0.695184  0.510418  1
  Si  Si186  1  0.304740  0.874010  0.510410  1
  Si  Si187  1  0.125970  0.695149  0.510422  1
  Si  Si188  1  0.695337  0.874045  0.510405  1
  Si  Si189  1  0.625977  0.804636  0.568153  1
  Si  Si190  1  0.195347  0.625767  0.568171  1
  Si  Si191  1  0.374115  0.804628  0.568160  1
  Si  Si192  1  0.804750  0.625778  0.568167  1
  Si  Si193  1  -0.000000  0.626612  0.607895  1
  Si  Si194  1  0.373281  -0.000000  0.607866  1
  Si  Si195  1  0.626843  -0.000000  0.607861  1
  Si  Si196  1  0.178863  -0.000000  0.648324  1
  H  H197  1  -0.000000  0.203540  0.100818  1
  H  H198  1  0.203734  0.000000  0.100828  1
  H  H199  1  0.000000  0.796221  0.100829  1
  H  H200  1  0.796389  -0.000000  0.100819  1
  H  H201  1  -0.000000  0.203540  0.697535  1
  H  H202  1  0.203734  -0.000000  0.697545  1
  H  H203  1  0.000000  0.796221  0.697546  1
  H  H204  1  0.796389  -0.000000  0.697535  1
