# generated using pymatgen
data_Si48H2O97
_symmetry_space_group_name_H-M   'P 1'
_cell_length_a   12.16011045
_cell_length_b   12.16651561
_cell_length_c   105.18170990
_cell_angle_alpha   90.00000000
_cell_angle_beta   90.00000000
_cell_angle_gamma   90.00000000
_symmetry_Int_Tables_number   1
_chemical_formula_structural   Si48H2O97
_chemical_formula_sum   'Si192 H8 O388'
_cell_volume   15561.231514
_cell_formula_units_Z   4
loop_
 _symmetry_equiv_pos_site_id
 _symmetry_equiv_pos_as_xyz
  1  'x, y, z'
loop_
 _atom_site_type_symbol
 _atom_site_label
 _atom_site_symmetry_multiplicity
 _atom_site_fract_x
 _atom_site_fract_y
 _atom_site_fract_z
 _atom_site_occupancy
  O  O1  1  -0.000000  0.289063  0.078512  1
  O  O2  1  0.103831  0.103666  0.073354  1
  O  O3  1  0.896256  0.103665  0.073352  1
  O  O4  1  0.352596  0.147354  0.122167  1
  O  O5  1  0.852555  0.352327  0.122153  1
  O  O6  1  0.647560  0.147307  0.122161  1
  O  O7  1  0.147526  0.352314  0.122150  1
  O  O8  1  0.352209  0.102716  0.098472  1
  O  O9  1  0.897137  0.352094  0.098454  1
  O  O10  1  0.647912  0.102709  0.098465  1
  O  O11  1  0.103046  0.352100  0.098449  1
  O  O12  1  0.500078  0.223855  0.107911  1
  O  O13  1  0.775926  0.499803  0.107909  1
  O  O14  1  0.224197  0.499815  0.107913  1
  O  O15  1  -0.000000  0.275793  0.136404  1
  O  O16  1  0.297124  0.296849  0.106502  1
  O  O17  1  0.703038  0.296825  0.106498  1
  O  O18  1  0.202996  0.202816  0.137814  1
  O  O19  1  0.797100  0.202784  0.137813  1
  O  O20  1  -0.000000  0.499877  0.086366  1
  O  O21  1  0.000000  0.203540  0.056093  1
  O  O22  1  0.789207  0.499911  0.210642  1
  O  O23  1  0.210841  0.499902  0.210642  1
  O  O24  1  0.500009  0.210727  0.210640  1
  O  O25  1  0.210847  0.499818  0.165795  1
  O  O26  1  0.500067  0.210673  0.165801  1
  O  O27  1  0.703700  0.499879  0.188219  1
  O  O28  1  0.500032  0.296214  0.188220  1
  O  O29  1  0.396238  0.396120  0.205478  1
  O  O30  1  0.603812  0.396120  0.205478  1
  O  O31  1  0.396245  0.396067  0.170961  1
  O  O32  1  0.603821  0.396081  0.170961  1
  O  O33  1  0.147867  0.396944  0.230584  1
  O  O34  1  0.602951  0.147643  0.230577  1
  O  O35  1  0.852172  0.397008  0.230587  1
  O  O36  1  0.397041  0.147629  0.230577  1
  O  O37  1  0.147891  0.396939  0.145846  1
  O  O38  1  0.602993  0.147586  0.145859  1
  O  O39  1  0.852178  0.396900  0.145850  1
  O  O40  1  0.397076  0.147581  0.145866  1
  O  O41  1  0.789212  0.499843  0.165795  1
  O  O42  1  0.296351  0.499865  0.188218  1
  O  O43  1  0.000000  0.499912  0.218506  1
  O  O44  1  -0.000000  0.499814  0.157931  1
  O  O45  1  0.000000  0.289047  0.297919  1
  O  O46  1  0.103862  0.103652  0.303082  1
  O  O47  1  0.896284  0.103653  0.303079  1
  O  O48  1  0.147520  0.352411  0.254282  1
  O  O49  1  0.647515  0.147410  0.254276  1
  O  O50  1  0.852527  0.352416  0.254284  1
  O  O51  1  0.352535  0.147374  0.254277  1
  O  O52  1  0.352192  0.102819  0.277975  1
  O  O53  1  0.897079  0.352150  0.277983  1
  O  O54  1  0.647899  0.102827  0.277972  1
  O  O55  1  0.102990  0.352157  0.277981  1
  O  O56  1  0.000000  0.275858  0.240034  1
  O  O57  1  0.500028  0.223941  0.268527  1
  O  O58  1  0.775916  0.499909  0.268525  1
  O  O59  1  0.202950  0.202835  0.238627  1
  O  O60  1  0.797049  0.202894  0.238622  1
  O  O61  1  0.297079  0.296926  0.269935  1
  O  O62  1  0.702975  0.296949  0.269936  1
  O  O63  1  -0.000000  0.499887  0.290072  1
  O  O64  1  0.224173  0.499895  0.268523  1
  O  O65  1  0.289223  -0.000000  0.078522  1
  O  O66  1  0.710855  -0.000000  0.078515  1
  O  O67  1  -0.000000  0.710724  0.078520  1
  O  O68  1  0.203734  -0.000000  0.056098  1
  O  O69  1  0.000000  0.796221  0.056099  1
  O  O70  1  0.896260  0.896111  0.073355  1
  O  O71  1  0.103835  0.896116  0.073357  1
  O  O72  1  0.647569  0.852359  0.122156  1
  O  O73  1  0.147556  0.647291  0.122156  1
  O  O74  1  0.352548  0.852360  0.122159  1
  O  O75  1  0.852535  0.647285  0.122154  1
  O  O76  1  0.647896  0.896859  0.098456  1
  O  O77  1  0.103018  0.647588  0.098457  1
  O  O78  1  0.352207  0.896868  0.098461  1
  O  O79  1  0.897104  0.647587  0.098456  1
  O  O80  1  0.500055  0.775775  0.107912  1
  O  O81  1  -0.000000  0.723870  0.136400  1
  O  O82  1  0.275905  -0.000000  0.136401  1
  O  O83  1  0.702992  0.702765  0.106500  1
  O  O84  1  0.297115  0.702773  0.106505  1
  O  O85  1  0.797082  0.796849  0.137811  1
  O  O86  1  0.202977  0.796885  0.137810  1
  O  O87  1  0.724173  -0.000000  0.136403  1
  O  O88  1  0.500042  0.000000  0.086383  1
  O  O89  1  0.796389  -0.000000  0.056094  1
  O  O90  1  0.500019  0.789061  0.210637  1
  O  O91  1  0.500031  0.789008  0.165795  1
  O  O92  1  0.500018  0.703539  0.188216  1
  O  O93  1  0.603809  0.603672  0.205476  1
  O  O94  1  0.396231  0.603670  0.205475  1
  O  O95  1  0.603811  0.603629  0.170959  1
  O  O96  1  0.396237  0.603620  0.170959  1
  O  O97  1  0.852180  0.602857  0.230585  1
  O  O98  1  0.397090  0.852141  0.230578  1
  O  O99  1  0.147885  0.602794  0.230590  1
  O  O100  1  0.603001  0.852159  0.230574  1
  O  O101  1  0.852195  0.602749  0.145851  1
  O  O102  1  0.397069  0.852110  0.145859  1
  O  O103  1  0.147874  0.602787  0.145854  1
  O  O104  1  0.602975  0.852076  0.145854  1
  O  O105  1  0.500064  -0.000000  0.157948  1
  O  O106  1  0.500011  -0.000000  0.218488  1
  O  O107  1  -0.000000  0.710710  0.297924  1
  O  O108  1  0.289258  -0.000000  0.297920  1
  O  O109  1  0.896283  0.896103  0.303082  1
  O  O110  1  0.103860  0.896097  0.303085  1
  O  O111  1  0.852553  0.647397  0.254283  1
  O  O112  1  0.352549  0.852396  0.254277  1
  O  O113  1  0.147518  0.647399  0.254286  1
  O  O114  1  0.647518  0.852411  0.254274  1
  O  O115  1  0.647901  0.896977  0.277971  1
  O  O116  1  0.103008  0.647630  0.277986  1
  O  O117  1  0.352207  0.896969  0.277974  1
  O  O118  1  0.897097  0.647648  0.277983  1
  O  O119  1  -0.000000  0.723949  0.240034  1
  O  O120  1  0.275896  -0.000000  0.240037  1
  O  O121  1  0.724150  -0.000000  0.240035  1
  O  O122  1  0.500047  0.775848  0.268526  1
  O  O123  1  0.797097  0.796964  0.238625  1
  O  O124  1  0.202999  0.796911  0.238625  1
  O  O125  1  0.703002  0.702869  0.269934  1
  O  O126  1  0.297095  0.702857  0.269937  1
  O  O127  1  0.710887  -0.000000  0.297915  1
  O  O128  1  0.500065  -0.000000  0.290053  1
  O  O129  1  0.000000  0.289063  0.342757  1
  O  O130  1  0.103831  0.103666  0.337599  1
  O  O131  1  0.896256  0.103665  0.337597  1
  O  O132  1  0.352596  0.147354  0.386412  1
  O  O133  1  0.852555  0.352327  0.386398  1
  O  O134  1  0.647560  0.147307  0.386405  1
  O  O135  1  0.147526  0.352314  0.386395  1
  O  O136  1  0.352209  0.102716  0.362716  1
  O  O137  1  0.897137  0.352094  0.362699  1
  O  O138  1  0.647912  0.102709  0.362710  1
  O  O139  1  0.103046  0.352100  0.362693  1
  O  O140  1  0.500078  0.223855  0.372156  1
  O  O141  1  0.775926  0.499803  0.372154  1
  O  O142  1  0.224197  0.499815  0.372158  1
  O  O143  1  0.000000  0.275793  0.400649  1
  O  O144  1  0.297124  0.296849  0.370747  1
  O  O145  1  0.703038  0.296825  0.370743  1
  O  O146  1  0.202996  0.202816  0.402059  1
  O  O147  1  0.797100  0.202784  0.402058  1
  O  O148  1  0.000000  0.499877  0.350610  1
  O  O149  1  0.000000  0.203540  0.320338  1
  O  O150  1  0.789207  0.499911  0.474887  1
  O  O151  1  0.210841  0.499902  0.474887  1
  O  O152  1  0.500009  0.210727  0.474884  1
  O  O153  1  0.210847  0.499818  0.430040  1
  O  O154  1  0.500067  0.210673  0.430046  1
  O  O155  1  0.703700  0.499879  0.452463  1
  O  O156  1  0.500032  0.296214  0.452465  1
  O  O157  1  0.396238  0.396120  0.469722  1
  O  O158  1  0.603812  0.396120  0.469723  1
  O  O159  1  0.396245  0.396067  0.435205  1
  O  O160  1  0.603821  0.396081  0.435206  1
  O  O161  1  0.147867  0.396944  0.494829  1
  O  O162  1  0.602951  0.147643  0.494822  1
  O  O163  1  0.852172  0.397008  0.494832  1
  O  O164  1  0.397041  0.147629  0.494822  1
  O  O165  1  0.147891  0.396939  0.410091  1
  O  O166  1  0.602993  0.147586  0.410104  1
  O  O167  1  0.852178  0.396900  0.410095  1
  O  O168  1  0.397076  0.147581  0.410111  1
  O  O169  1  0.789212  0.499843  0.430040  1
  O  O170  1  0.296351  0.499865  0.452463  1
  O  O171  1  0.000000  0.499912  0.482751  1
  O  O172  1  0.000000  0.499814  0.422176  1
  O  O173  1  0.000000  0.289047  0.562164  1
  O  O174  1  0.103862  0.103652  0.567327  1
  O  O175  1  0.896284  0.103653  0.567324  1
  O  O176  1  0.147520  0.352411  0.518527  1
  O  O177  1  0.647515  0.147410  0.518520  1
  O  O178  1  0.852527  0.352416  0.518528  1
  O  O179  1  0.352535  0.147374  0.518522  1
  O  O180  1  0.352192  0.102819  0.542220  1
  O  O181  1  0.897079  0.352150  0.542227  1
  O  O182  1  0.647899  0.102827  0.542217  1
  O  O183  1  0.102990  0.352157  0.542226  1
  O  O184  1  -0.000000  0.275858  0.504279  1
  O  O185  1  0.500028  0.223941  0.532771  1
  O  O186  1  0.775916  0.499909  0.532770  1
  O  O187  1  0.202950  0.202835  0.502872  1
  O  O188  1  0.797049  0.202894  0.502867  1
  O  O189  1  0.297079  0.296926  0.534179  1
  O  O190  1  0.702975  0.296949  0.534181  1
  O  O191  1  -0.000000  0.499887  0.554317  1
  O  O192  1  0.224173  0.499895  0.532768  1
  O  O193  1  0.289223  -0.000000  0.342767  1
  O  O194  1  0.710855  -0.000000  0.342760  1
  O  O195  1  0.000000  0.710724  0.342765  1
  O  O196  1  0.203734  -0.000000  0.320343  1
  O  O197  1  0.000000  0.796221  0.320343  1
  O  O198  1  0.896260  0.896111  0.337599  1
  O  O199  1  0.103835  0.896116  0.337602  1
  O  O200  1  0.647569  0.852359  0.386400  1
  O  O201  1  0.147556  0.647291  0.386401  1
  O  O202  1  0.352548  0.852360  0.386404  1
  O  O203  1  0.852535  0.647285  0.386398  1
  O  O204  1  0.647896  0.896859  0.362701  1
  O  O205  1  0.103018  0.647588  0.362702  1
  O  O206  1  0.352207  0.896868  0.362705  1
  O  O207  1  0.897104  0.647587  0.362701  1
  O  O208  1  0.500055  0.775775  0.372157  1
  O  O209  1  0.000000  0.723870  0.400645  1
  O  O210  1  0.275905  -0.000000  0.400646  1
  O  O211  1  0.702992  0.702765  0.370745  1
  O  O212  1  0.297115  0.702773  0.370750  1
  O  O213  1  0.797082  0.796849  0.402056  1
  O  O214  1  0.202977  0.796885  0.402055  1
  O  O215  1  0.724173  0.000000  0.400648  1
  O  O216  1  0.500042  -0.000000  0.350628  1
  O  O217  1  0.796389  -0.000000  0.320338  1
  O  O218  1  0.500019  0.789061  0.474882  1
  O  O219  1  0.500031  0.789008  0.430040  1
  O  O220  1  0.500018  0.703539  0.452461  1
  O  O221  1  0.603809  0.603672  0.469721  1
  O  O222  1  0.396231  0.603670  0.469720  1
  O  O223  1  0.603811  0.603629  0.435204  1
  O  O224  1  0.396237  0.603620  0.435204  1
  O  O225  1  0.852180  0.602857  0.494830  1
  O  O226  1  0.397090  0.852141  0.494823  1
  O  O227  1  0.147885  0.602794  0.494835  1
  O  O228  1  0.603001  0.852159  0.494819  1
  O  O229  1  0.852195  0.602749  0.410096  1
  O  O230  1  0.397069  0.852110  0.410103  1
  O  O231  1  0.147874  0.602787  0.410099  1
  O  O232  1  0.602975  0.852076  0.410099  1
  O  O233  1  0.500064  -0.000000  0.422193  1
  O  O234  1  0.500011  -0.000000  0.482733  1
  O  O235  1  0.000000  0.710710  0.562168  1
  O  O236  1  0.289258  -0.000000  0.562165  1
  O  O237  1  0.896283  0.896103  0.567327  1
  O  O238  1  0.103860  0.896097  0.567330  1
  O  O239  1  0.852553  0.647397  0.518528  1
  O  O240  1  0.352549  0.852396  0.518522  1
  O  O241  1  0.147518  0.647399  0.518531  1
  O  O242  1  0.647518  0.852411  0.518519  1
  O  O243  1  0.647901  0.896977  0.542216  1
  O  O244  1  0.103008  0.647630  0.542231  1
  O  O245  1  0.352207  0.896969  0.542219  1
  O  O246  1  0.897097  0.647648  0.542228  1
  O  O247  1  0.000000  0.723949  0.504278  1
  O  O248  1  0.275896  -0.000000  0.504282  1
  O  O249  1  0.724150  -0.000000  0.504280  1
  O  O250  1  0.500047  0.775848  0.532771  1
  O  O251  1  0.797097  0.796964  0.502870  1
  O  O252  1  0.202999  0.796911  0.502869  1
  O  O253  1  0.703002  0.702869  0.534179  1
  O  O254  1  0.297095  0.702857  0.534182  1
  O  O255  1  0.710887  -0.000000  0.562160  1
  O  O256  1  0.500065  -0.000000  0.554298  1
  O  O257  1  0.000000  0.289063  0.607001  1
  O  O258  1  0.103831  0.103666  0.601844  1
  O  O259  1  0.896256  0.103665  0.601842  1
  O  O260  1  0.352596  0.147354  0.650656  1
  O  O261  1  0.852555  0.352327  0.650643  1
  O  O262  1  0.647560  0.147307  0.650650  1
  O  O263  1  0.147526  0.352314  0.650639  1
  O  O264  1  0.352209  0.102716  0.626961  1
  O  O265  1  0.897137  0.352094  0.626944  1
  O  O266  1  0.647912  0.102709  0.626955  1
  O  O267  1  0.103046  0.352100  0.626938  1
  O  O268  1  0.500078  0.223855  0.636400  1
  O  O269  1  0.775926  0.499803  0.636399  1
  O  O270  1  0.224197  0.499815  0.636403  1
  O  O271  1  -0.000000  0.275793  0.664893  1
  O  O272  1  0.297124  0.296849  0.634992  1
  O  O273  1  0.703038  0.296825  0.634988  1
  O  O274  1  0.202996  0.202816  0.666304  1
  O  O275  1  0.797100  0.202784  0.666303  1
  O  O276  1  0.000000  0.499877  0.614855  1
  O  O277  1  0.000000  0.203540  0.584583  1
  O  O278  1  0.789207  0.499911  0.739131  1
  O  O279  1  0.210841  0.499902  0.739132  1
  O  O280  1  0.500009  0.210727  0.739129  1
  O  O281  1  0.210847  0.499818  0.694285  1
  O  O282  1  0.500067  0.210673  0.694291  1
  O  O283  1  0.703700  0.499879  0.716708  1
  O  O284  1  0.500032  0.296214  0.716710  1
  O  O285  1  0.396238  0.396120  0.733967  1
  O  O286  1  0.603812  0.396120  0.733968  1
  O  O287  1  0.396245  0.396067  0.699450  1
  O  O288  1  0.603821  0.396081  0.699451  1
  O  O289  1  0.147867  0.396944  0.759074  1
  O  O290  1  0.602951  0.147643  0.759067  1
  O  O291  1  0.852172  0.397008  0.759077  1
  O  O292  1  0.397041  0.147629  0.759066  1
  O  O293  1  0.147891  0.396939  0.674336  1
  O  O294  1  0.602993  0.147586  0.674349  1
  O  O295  1  0.852178  0.396900  0.674340  1
  O  O296  1  0.397076  0.147581  0.674356  1
  O  O297  1  0.789212  0.499843  0.694285  1
  O  O298  1  0.296351  0.499865  0.716708  1
  O  O299  1  -0.000000  0.499912  0.746996  1
  O  O300  1  -0.000000  0.499814  0.686421  1
  O  O301  1  0.000000  0.289047  0.826408  1
  O  O302  1  0.103862  0.103652  0.831572  1
  O  O303  1  0.896284  0.103653  0.831569  1
  O  O304  1  0.147520  0.352411  0.782771  1
  O  O305  1  0.647515  0.147410  0.782765  1
  O  O306  1  0.852527  0.352416  0.782773  1
  O  O307  1  0.352535  0.147374  0.782767  1
  O  O308  1  0.352192  0.102819  0.806464  1
  O  O309  1  0.897079  0.352150  0.806472  1
  O  O310  1  0.647899  0.102827  0.806461  1
  O  O311  1  0.102990  0.352157  0.806470  1
  O  O312  1  0.000000  0.275858  0.768523  1
  O  O313  1  0.500028  0.223941  0.797016  1
  O  O314  1  0.775916  0.499909  0.797015  1
  O  O315  1  0.202950  0.202835  0.767116  1
  O  O316  1  0.797049  0.202894  0.767112  1
  O  O317  1  0.297079  0.296926  0.798424  1
  O  O318  1  0.702975  0.296949  0.798425  1
  O  O319  1  0.000000  0.499887  0.818561  1
  O  O320  1  0.224173  0.499895  0.797013  1
  O  O321  1  0.289223  -0.000000  0.607012  1
  O  O322  1  0.710855  -0.000000  0.607005  1
  O  O323  1  0.000000  0.710724  0.607009  1
  O  O324  1  0.203734  -0.000000  0.584588  1
  O  O325  1  0.000000  0.796221  0.584588  1
  O  O326  1  0.896260  0.896111  0.601844  1
  O  O327  1  0.103835  0.896116  0.601846  1
  O  O328  1  0.647569  0.852359  0.650645  1
  O  O329  1  0.147556  0.647291  0.650646  1
  O  O330  1  0.352548  0.852360  0.650649  1
  O  O331  1  0.852535  0.647285  0.650643  1
  O  O332  1  0.647896  0.896859  0.626946  1
  O  O333  1  0.103018  0.647588  0.626947  1
  O  O334  1  0.352207  0.896868  0.626950  1
  O  O335  1  0.897104  0.647587  0.626946  1
  O  O336  1  0.500055  0.775775  0.636402  1
  O  O337  1  0.000000  0.723870  0.664890  1
  O  O338  1  0.275905  -0.000000  0.664891  1
  O  O339  1  0.702992  0.702765  0.634990  1
  O  O340  1  0.297115  0.702773  0.634995  1
  O  O341  1  0.797082  0.796849  0.666300  1
  O  O342  1  0.202977  0.796885  0.666300  1
  O  O343  1  0.724173  -0.000000  0.664893  1
  O  O344  1  0.500042  -0.000000  0.614872  1
  O  O345  1  0.796389  -0.000000  0.584583  1
  O  O346  1  0.500019  0.789061  0.739127  1
  O  O347  1  0.500031  0.789008  0.694284  1
  O  O348  1  0.500018  0.703539  0.716706  1
  O  O349  1  0.603809  0.603672  0.733965  1
  O  O350  1  0.396231  0.603670  0.733965  1
  O  O351  1  0.603811  0.603629  0.699449  1
  O  O352  1  0.396237  0.603620  0.699449  1
  O  O353  1  0.852180  0.602857  0.759075  1
  O  O354  1  0.397090  0.852141  0.759067  1
  O  O355  1  0.147885  0.602794  0.759080  1
  O  O356  1  0.603001  0.852159  0.759064  1
  O  O357  1  0.852195  0.602749  0.674340  1
  O  O358  1  0.397069  0.852110  0.674348  1
  O  O359  1  0.147874  0.602787  0.674344  1
  O  O360  1  0.602975  0.852076  0.674344  1
  O  O361  1  0.500064  -0.000000  0.686438  1
  O  O362  1  0.500011  -0.000000  0.746978  1
  O  O363  1  0.000000  0.710710  0.826413  1
  O  O364  1  0.289258  -0.000000  0.826410  1
  O  O365  1  0.896283  0.896103  0.831572  1
  O  O366  1  0.103860  0.896097  0.831574  1
  O  O367  1  0.852553  0.647397  0.782772  1
  O  O368  1  0.352549  0.852396  0.782767  1
  O  O369  1  0.147518  0.647399  0.782776  1
  O  O370  1  0.647518  0.852411  0.782764  1
  O  O371  1  0.647901  0.896977  0.806460  1
  O  O372  1  0.103008  0.647630  0.806475  1
  O  O373  1  0.352207  0.896969  0.806464  1
  O  O374  1  0.897097  0.647648  0.806473  1
  O  O375  1  0.000000  0.723949  0.768523  1
  O  O376  1  0.275896  -0.000000  0.768526  1
  O  O377  1  0.724150  -0.000000  0.768524  1
  O  O378  1  0.500047  0.775848  0.797016  1
  O  O379  1  0.797097  0.796964  0.767115  1
  O  O380  1  0.202999  0.796911  0.767114  1
  O  O381  1  0.703002  0.702869  0.798424  1
  O  O382  1  0.297095  0.702857  0.798426  1
  O  O383  1  0.710887  -0.000000  0.826405  1
  O  O384  1  0.500065  -0.000000  0.818543  1
  O  O385  1  -0.000000  0.203540  0.848828  1
  O  O386  1  0.203734  -0.000000  0.848833  1
  O  O387  1  0.000000  0.796221  0.848833  1
  O  O388  1  0.796389  -0.000000  0.848828  1
  Si  Si389  1  0.000000  0.373150  0.089808  1
  Si  Si390  1  0.304745  0.125721  0.135778  1
  Si  Si391  1  0.874110  0.304563  0.135769  1
  Si  Si392  1  -0.000000  0.178692  0.070745  1
  Si  Si393  1  0.695351  0.125694  0.135775  1
  Si  Si394  1  0.374145  0.195083  0.108549  1
  Si  Si395  1  0.804767  0.373936  0.108538  1
  Si  Si396  1  0.626008  0.195064  0.108544  1
  Si  Si397  1  0.195373  0.373943  0.108538  1
  Si  Si398  1  0.125973  0.304579  0.135767  1
  Si  Si399  1  0.873250  0.499823  0.154492  1
  Si  Si400  1  0.321229  0.499890  0.202869  1
  Si  Si401  1  0.500025  0.321089  0.202871  1
  Si  Si402  1  0.321238  0.499843  0.173567  1
  Si  Si403  1  0.500038  0.321046  0.173568  1
  Si  Si404  1  0.873244  0.499923  0.221945  1
  Si  Si405  1  0.126808  0.499889  0.221946  1
  Si  Si406  1  0.500000  0.126613  0.221933  1
  Si  Si407  1  0.126813  0.499835  0.154492  1
  Si  Si408  1  0.500056  0.126563  0.154507  1
  Si  Si409  1  0.678821  0.499860  0.173568  1
  Si  Si410  1  0.678815  0.499896  0.202869  1
  Si  Si411  1  -0.000000  0.373167  0.286627  1
  Si  Si412  1  0.304706  0.125751  0.240664  1
  Si  Si413  1  0.374098  0.195153  0.267892  1
  Si  Si414  1  0.195339  0.374026  0.267895  1
  Si  Si415  1  0.625962  0.195172  0.267892  1
  Si  Si416  1  0.804727  0.374035  0.267897  1
  Si  Si417  1  0.000000  0.178682  0.305687  1
  Si  Si418  1  0.125943  0.304620  0.240667  1
  Si  Si419  1  0.695314  0.125788  0.240662  1
  Si  Si420  1  0.874079  0.304655  0.240667  1
  Si  Si421  1  -0.000000  0.626596  0.089811  1
  Si  Si422  1  0.000000  0.821082  0.070750  1
  Si  Si423  1  0.625988  0.804552  0.108542  1
  Si  Si424  1  0.195366  0.625684  0.108543  1
  Si  Si425  1  0.374124  0.804556  0.108545  1
  Si  Si426  1  0.804742  0.625677  0.108539  1
  Si  Si427  1  0.874103  0.695078  0.135768  1
  Si  Si428  1  0.304724  0.873979  0.135772  1
  Si  Si429  1  0.125968  0.695101  0.135770  1
  Si  Si430  1  0.695345  0.873952  0.135771  1
  Si  Si431  1  0.373266  -0.000000  0.089825  1
  Si  Si432  1  0.626827  -0.000000  0.089820  1
  Si  Si433  1  0.178840  -0.000000  0.070749  1
  Si  Si434  1  0.821257  -0.000000  0.070745  1
  Si  Si435  1  0.500038  0.873116  0.154502  1
  Si  Si436  1  0.500031  0.873167  0.221931  1
  Si  Si437  1  0.500021  0.678657  0.173565  1
  Si  Si438  1  0.500019  0.678697  0.202868  1
  Si  Si439  1  0.821276  -0.000000  0.305688  1
  Si  Si440  1  -0.000000  0.821075  0.305692  1
  Si  Si441  1  0.874107  0.695184  0.240668  1
  Si  Si442  1  0.304740  0.874010  0.240664  1
  Si  Si443  1  0.125970  0.695149  0.240669  1
  Si  Si444  1  0.695337  0.874045  0.240661  1
  Si  Si445  1  0.625977  0.804636  0.267890  1
  Si  Si446  1  0.195347  0.625767  0.267899  1
  Si  Si447  1  0.374115  0.804628  0.267893  1
  Si  Si448  1  0.804750  0.625778  0.267897  1
  Si  Si449  1  0.000000  0.626612  0.286629  1
  Si  Si450  1  0.373281  -0.000000  0.286615  1
  Si  Si451  1  0.626843  0.000000  0.286613  1
  Si  Si452  1  0.178863  -0.000000  0.305692  1
  Si  Si453  1  0.000000  0.373150  0.354052  1
  Si  Si454  1  0.304745  0.125721  0.400023  1
  Si  Si455  1  0.874110  0.304563  0.400014  1
  Si  Si456  1  -0.000000  0.178692  0.334990  1
  Si  Si457  1  0.695351  0.125694  0.400020  1
  Si  Si458  1  0.374145  0.195083  0.372793  1
  Si  Si459  1  0.804767  0.373936  0.372783  1
  Si  Si460  1  0.626008  0.195064  0.372789  1
  Si  Si461  1  0.195373  0.373943  0.372783  1
  Si  Si462  1  0.125973  0.304579  0.400012  1
  Si  Si463  1  0.873250  0.499823  0.418737  1
  Si  Si464  1  0.321229  0.499890  0.467114  1
  Si  Si465  1  0.500025  0.321089  0.467116  1
  Si  Si466  1  0.321238  0.499843  0.437812  1
  Si  Si467  1  0.500038  0.321046  0.437813  1
  Si  Si468  1  0.873244  0.499923  0.486190  1
  Si  Si469  1  0.126808  0.499889  0.486191  1
  Si  Si470  1  0.500000  0.126613  0.486177  1
  Si  Si471  1  0.126813  0.499835  0.418736  1
  Si  Si472  1  0.500056  0.126563  0.418752  1
  Si  Si473  1  0.678821  0.499860  0.437812  1
  Si  Si474  1  0.678815  0.499896  0.467114  1
  Si  Si475  1  -0.000000  0.373167  0.550871  1
  Si  Si476  1  0.304706  0.125751  0.504909  1
  Si  Si477  1  0.374098  0.195153  0.532137  1
  Si  Si478  1  0.195339  0.374026  0.532140  1
  Si  Si479  1  0.625962  0.195172  0.532137  1
  Si  Si480  1  0.804727  0.374035  0.532142  1
  Si  Si481  1  -0.000000  0.178682  0.569932  1
  Si  Si482  1  0.125943  0.304620  0.504912  1
  Si  Si483  1  0.695314  0.125788  0.504907  1
  Si  Si484  1  0.874079  0.304655  0.504912  1
  Si  Si485  1  -0.000000  0.626596  0.354056  1
  Si  Si486  1  0.000000  0.821082  0.334995  1
  Si  Si487  1  0.625988  0.804552  0.372787  1
  Si  Si488  1  0.195366  0.625684  0.372787  1
  Si  Si489  1  0.374124  0.804556  0.372790  1
  Si  Si490  1  0.804742  0.625677  0.372784  1
  Si  Si491  1  0.874103  0.695078  0.400013  1
  Si  Si492  1  0.304724  0.873979  0.400017  1
  Si  Si493  1  0.125968  0.695101  0.400015  1
  Si  Si494  1  0.695345  0.873952  0.400016  1
  Si  Si495  1  0.373266  -0.000000  0.354070  1
  Si  Si496  1  0.626827  -0.000000  0.354065  1
  Si  Si497  1  0.178840  -0.000000  0.334993  1
  Si  Si498  1  0.821257  -0.000000  0.334990  1
  Si  Si499  1  0.500038  0.873116  0.418746  1
  Si  Si500  1  0.500031  0.873167  0.486176  1
  Si  Si501  1  0.500021  0.678657  0.437810  1
  Si  Si502  1  0.500019  0.678697  0.467113  1
  Si  Si503  1  0.821276  -0.000000  0.569932  1
  Si  Si504  1  0.000000  0.821075  0.569937  1
  Si  Si505  1  0.874107  0.695184  0.504912  1
  Si  Si506  1  0.304740  0.874010  0.504908  1
  Si  Si507  1  0.125970  0.695149  0.504914  1
  Si  Si508  1  0.695337  0.874045  0.504906  1
  Si  Si509  1  0.625977  0.804636  0.532135  1
  Si  Si510  1  0.195347  0.625767  0.532143  1
  Si  Si511  1  0.374115  0.804628  0.532138  1
  Si  Si512  1  0.804750  0.625778  0.532141  1
  Si  Si513  1  0.000000  0.626612  0.550874  1
  Si  Si514  1  0.373281  -0.000000  0.550860  1
  Si  Si515  1  0.626843  -0.000000  0.550857  1
  Si  Si516  1  0.178863  -0.000000  0.569936  1
  Si  Si517  1  0.000000  0.373150  0.618297  1
  Si  Si518  1  0.304745  0.125721  0.664268  1
  Si  Si519  1  0.874110  0.304563  0.664259  1
  Si  Si520  1  -0.000000  0.178692  0.599235  1
  Si  Si521  1  0.695351  0.125694  0.664265  1
  Si  Si522  1  0.374145  0.195083  0.637038  1
  Si  Si523  1  0.804767  0.373936  0.637028  1
  Si  Si524  1  0.626008  0.195064  0.637034  1
  Si  Si525  1  0.195373  0.373943  0.637028  1
  Si  Si526  1  0.125973  0.304579  0.664257  1
  Si  Si527  1  0.873250  0.499823  0.682981  1
  Si  Si528  1  0.321229  0.499890  0.731359  1
  Si  Si529  1  0.500025  0.321089  0.731361  1
  Si  Si530  1  0.321238  0.499843  0.702057  1
  Si  Si531  1  0.500038  0.321046  0.702058  1
  Si  Si532  1  0.873244  0.499923  0.750435  1
  Si  Si533  1  0.126808  0.499889  0.750436  1
  Si  Si534  1  0.500000  0.126613  0.750422  1
  Si  Si535  1  0.126813  0.499835  0.682981  1
  Si  Si536  1  0.500056  0.126563  0.682997  1
  Si  Si537  1  0.678821  0.499860  0.702057  1
  Si  Si538  1  0.678815  0.499896  0.731359  1
  Si  Si539  1  0.000000  0.373167  0.815116  1
  Si  Si540  1  0.304706  0.125751  0.769154  1
  Si  Si541  1  0.374098  0.195153  0.796382  1
  Si  Si542  1  0.195339  0.374026  0.796385  1
  Si  Si543  1  0.625962  0.195172  0.796382  1
  Si  Si544  1  0.804727  0.374035  0.796387  1
  Si  Si545  1  0.000000  0.178682  0.834176  1
  Si  Si546  1  0.125943  0.304620  0.769157  1
  Si  Si547  1  0.695314  0.125788  0.769151  1
  Si  Si548  1  0.874079  0.304655  0.769157  1
  Si  Si549  1  -0.000000  0.626596  0.618301  1
  Si  Si550  1  -0.000000  0.821082  0.599240  1
  Si  Si551  1  0.625988  0.804552  0.637031  1
  Si  Si552  1  0.195366  0.625684  0.637032  1
  Si  Si553  1  0.374124  0.804556  0.637035  1
  Si  Si554  1  0.804742  0.625677  0.637029  1
  Si  Si555  1  0.874103  0.695078  0.664258  1
  Si  Si556  1  0.304724  0.873979  0.664262  1
  Si  Si557  1  0.125968  0.695101  0.664259  1
  Si  Si558  1  0.695345  0.873952  0.664261  1
  Si  Si559  1  0.373266  0.000000  0.618314  1
  Si  Si560  1  0.626827  -0.000000  0.618309  1
  Si  Si561  1  0.178840  0.000000  0.599238  1
  Si  Si562  1  0.821257  -0.000000  0.599234  1
  Si  Si563  1  0.500038  0.873116  0.682991  1
  Si  Si564  1  0.500031  0.873167  0.750421  1
  Si  Si565  1  0.500021  0.678657  0.702055  1
  Si  Si566  1  0.500019  0.678697  0.731358  1
  Si  Si567  1  0.821276  -0.000000  0.834177  1
  Si  Si568  1  -0.000000  0.821075  0.834181  1
  Si  Si569  1  0.874107  0.695184  0.769157  1
  Si  Si570  1  0.304740  0.874010  0.769153  1
  Si  Si571  1  0.125970  0.695149  0.769159  1
  Si  Si572  1  0.695337  0.874045  0.769151  1
  Si  Si573  1  0.625977  0.804636  0.796380  1
  Si  Si574  1  0.195347  0.625767  0.796388  1
  Si  Si575  1  0.374115  0.804628  0.796383  1
  Si  Si576  1  0.804750  0.625778  0.796386  1
  Si  Si577  1  0.000000  0.626612  0.815119  1
  Si  Si578  1  0.373281  -0.000000  0.815105  1
  Si  Si579  1  0.626843  -0.000000  0.815102  1
  Si  Si580  1  0.178863  0.000000  0.834181  1
  H  H581  1  -0.000000  0.203540  0.047537  1
  H  H582  1  0.203734  0.000000  0.047542  1
  H  H583  1  -0.000000  0.796221  0.047542  1
  H  H584  1  0.796389  -0.000000  0.047537  1
  H  H585  1  0.000000  0.203540  0.857384  1
  H  H586  1  0.203734  -0.000000  0.857389  1
  H  H587  1  -0.000000  0.796221  0.857390  1
  H  H588  1  0.796389  -0.000000  0.857385  1
