# generated using pymatgen
data_Si14H2O29
_symmetry_space_group_name_H-M   'P 1'
_cell_length_a   12.16011045
_cell_length_b   12.16651561
_cell_length_c   44.87809684
_cell_angle_alpha   90.00000000
_cell_angle_beta   90.00000000
_cell_angle_gamma   90.00000000
_symmetry_Int_Tables_number   1
_chemical_formula_structural   Si14H2O29
_chemical_formula_sum   'Si56 H8 O116'
_cell_volume   6639.54270691
_cell_formula_units_Z   4
loop_
 _symmetry_equiv_pos_site_id
 _symmetry_equiv_pos_as_xyz
  1  'x, y, z'
loop_
 _atom_site_type_symbol
 _atom_site_label
 _atom_site_symmetry_multiplicity
 _atom_site_fract_x
 _atom_site_fract_y
 _atom_site_fract_z
 _atom_site_occupancy
  O  O1  1  -0.000000  0.289063  0.131467  1
  O  O2  1  0.352596  0.147354  0.233782  1
  O  O3  1  0.852555  0.352327  0.233750  1
  O  O4  1  0.647560  0.147307  0.233768  1
  O  O5  1  0.147526  0.352314  0.233742  1
  O  O6  1  0.352209  0.102716  0.178247  1
  O  O7  1  0.897137  0.352094  0.178206  1
  O  O8  1  0.647912  0.102709  0.178232  1
  O  O9  1  0.103046  0.352100  0.178193  1
  O  O10  1  0.500078  0.223855  0.200370  1
  O  O11  1  0.775926  0.499803  0.200367  1
  O  O12  1  0.224197  0.499815  0.200375  1
  O  O13  1  0.000000  0.275793  0.267149  1
  O  O14  1  0.297124  0.296849  0.197068  1
  O  O15  1  0.703038  0.296825  0.197059  1
  O  O16  1  0.202996  0.202816  0.270455  1
  O  O17  1  0.797100  0.202784  0.270453  1
  O  O18  1  -0.000000  0.499877  0.149874  1
  O  O19  1  0.789207  0.499911  0.441143  1
  O  O20  1  0.210841  0.499902  0.441143  1
  O  O21  1  0.500009  0.210727  0.441138  1
  O  O22  1  0.210847  0.499818  0.336035  1
  O  O23  1  0.500067  0.210673  0.336048  1
  O  O24  1  0.703700  0.499879  0.388589  1
  O  O25  1  0.500032  0.296214  0.388592  1
  O  O26  1  0.396238  0.396120  0.429039  1
  O  O27  1  0.603812  0.396120  0.429040  1
  O  O28  1  0.396245  0.396067  0.348141  1
  O  O29  1  0.603821  0.396081  0.348142  1
  O  O30  1  0.147867  0.396944  0.487882  1
  O  O31  1  0.602951  0.147643  0.487866  1
  O  O32  1  0.852172  0.397008  0.487890  1
  O  O33  1  0.397041  0.147629  0.487865  1
  O  O34  1  0.147891  0.396939  0.289279  1
  O  O35  1  0.602993  0.147586  0.289311  1
  O  O36  1  0.852178  0.396900  0.289290  1
  O  O37  1  0.397076  0.147581  0.289327  1
  O  O38  1  0.789212  0.499843  0.336035  1
  O  O39  1  0.296351  0.499865  0.388588  1
  O  O40  1  0.000000  0.499912  0.459575  1
  O  O41  1  -0.000000  0.499814  0.317603  1
  O  O42  1  -0.000000  0.289047  0.645696  1
  O  O43  1  0.147520  0.352411  0.543423  1
  O  O44  1  0.647515  0.147410  0.543408  1
  O  O45  1  0.852527  0.352416  0.543427  1
  O  O46  1  0.352535  0.147374  0.543411  1
  O  O47  1  0.352192  0.102819  0.598952  1
  O  O48  1  0.897079  0.352150  0.598971  1
  O  O49  1  0.647899  0.102827  0.598945  1
  O  O50  1  0.102990  0.352157  0.598967  1
  O  O51  1  0.000000  0.275858  0.510030  1
  O  O52  1  0.500028  0.223941  0.576809  1
  O  O53  1  0.775916  0.499909  0.576805  1
  O  O54  1  0.202950  0.202835  0.506732  1
  O  O55  1  0.797049  0.202894  0.506721  1
  O  O56  1  0.297079  0.296926  0.580108  1
  O  O57  1  0.702975  0.296949  0.580111  1
  O  O58  1  -0.000000  0.499887  0.627305  1
  O  O59  1  0.224173  0.499895  0.576801  1
  O  O60  1  0.289223  -0.000000  0.131491  1
  O  O61  1  0.710855  0.000000  0.131475  1
  O  O62  1  0.000000  0.710724  0.131486  1
  O  O63  1  0.647569  0.852359  0.233756  1
  O  O64  1  0.147556  0.647291  0.233757  1
  O  O65  1  0.352548  0.852360  0.233765  1
  O  O66  1  0.852535  0.647285  0.233751  1
  O  O67  1  0.647896  0.896859  0.178211  1
  O  O68  1  0.103018  0.647588  0.178213  1
  O  O69  1  0.352207  0.896868  0.178221  1
  O  O70  1  0.897104  0.647587  0.178211  1
  O  O71  1  0.500055  0.775775  0.200374  1
  O  O72  1  0.000000  0.723870  0.267141  1
  O  O73  1  0.275905  -0.000000  0.267143  1
  O  O74  1  0.702992  0.702765  0.197065  1
  O  O75  1  0.297115  0.702773  0.197075  1
  O  O76  1  0.797082  0.796849  0.270447  1
  O  O77  1  0.202977  0.796885  0.270446  1
  O  O78  1  0.724173  -0.000000  0.267148  1
  O  O79  1  0.500042  -0.000000  0.149914  1
  O  O80  1  0.500019  0.789061  0.441131  1
  O  O81  1  0.500031  0.789008  0.336034  1
  O  O82  1  0.500018  0.703539  0.388584  1
  O  O83  1  0.603809  0.603672  0.429035  1
  O  O84  1  0.396231  0.603670  0.429034  1
  O  O85  1  0.603811  0.603629  0.348138  1
  O  O86  1  0.396237  0.603620  0.348137  1
  O  O87  1  0.852180  0.602857  0.487884  1
  O  O88  1  0.397090  0.852141  0.487867  1
  O  O89  1  0.147885  0.602794  0.487896  1
  O  O90  1  0.603001  0.852159  0.487858  1
  O  O91  1  0.852195  0.602749  0.289291  1
  O  O92  1  0.397069  0.852110  0.289309  1
  O  O93  1  0.147874  0.602787  0.289299  1
  O  O94  1  0.602975  0.852076  0.289299  1
  O  O95  1  0.500064  -0.000000  0.317644  1
  O  O96  1  0.500011  -0.000000  0.459532  1
  O  O97  1  -0.000000  0.710710  0.645707  1
  O  O98  1  0.289258  0.000000  0.645699  1
  O  O99  1  0.852553  0.647397  0.543425  1
  O  O100  1  0.352549  0.852396  0.543412  1
  O  O101  1  0.147518  0.647399  0.543433  1
  O  O102  1  0.647518  0.852411  0.543405  1
  O  O103  1  0.647901  0.896977  0.598943  1
  O  O104  1  0.103008  0.647630  0.598978  1
  O  O105  1  0.352207  0.896969  0.598951  1
  O  O106  1  0.897097  0.647648  0.598972  1
  O  O107  1  0.000000  0.723949  0.510029  1
  O  O108  1  0.275896  0.000000  0.510036  1
  O  O109  1  0.724150  -0.000000  0.510032  1
  O  O110  1  0.500047  0.775848  0.576807  1
  O  O111  1  0.797097  0.796964  0.506727  1
  O  O112  1  0.202999  0.796911  0.506727  1
  O  O113  1  0.703002  0.702869  0.580107  1
  O  O114  1  0.297095  0.702857  0.580114  1
  O  O115  1  0.710887  -0.000000  0.645687  1
  O  O116  1  0.500065  -0.000000  0.627261  1
  Si  Si117  1  0.000000  0.373150  0.157941  1
  Si  Si118  1  0.304745  0.125721  0.265683  1
  Si  Si119  1  0.874110  0.304563  0.265662  1
  Si  Si120  1  0.695351  0.125694  0.265676  1
  Si  Si121  1  0.374145  0.195083  0.201865  1
  Si  Si122  1  0.804767  0.373936  0.201840  1
  Si  Si123  1  0.626008  0.195064  0.201854  1
  Si  Si124  1  0.195373  0.373943  0.201840  1
  Si  Si125  1  0.125973  0.304579  0.265658  1
  Si  Si126  1  0.873250  0.499823  0.309543  1
  Si  Si127  1  0.321229  0.499890  0.422926  1
  Si  Si128  1  0.500025  0.321089  0.422930  1
  Si  Si129  1  0.321238  0.499843  0.354251  1
  Si  Si130  1  0.500038  0.321046  0.354253  1
  Si  Si131  1  0.873244  0.499923  0.467634  1
  Si  Si132  1  0.126808  0.499889  0.467637  1
  Si  Si133  1  0.500000  0.126613  0.467605  1
  Si  Si134  1  0.126813  0.499835  0.309542  1
  Si  Si135  1  0.500056  0.126563  0.309579  1
  Si  Si136  1  0.678821  0.499860  0.354251  1
  Si  Si137  1  0.678815  0.499896  0.422927  1
  Si  Si138  1  -0.000000  0.373167  0.619230  1
  Si  Si139  1  0.304706  0.125751  0.511507  1
  Si  Si140  1  0.374098  0.195153  0.575322  1
  Si  Si141  1  0.195339  0.374026  0.575328  1
  Si  Si142  1  0.625962  0.195172  0.575321  1
  Si  Si143  1  0.804727  0.374035  0.575334  1
  Si  Si144  1  0.125943  0.304620  0.511514  1
  Si  Si145  1  0.695314  0.125788  0.511501  1
  Si  Si146  1  0.874079  0.304655  0.511514  1
  Si  Si147  1  -0.000000  0.626596  0.157950  1
  Si  Si148  1  0.625988  0.804552  0.201849  1
  Si  Si149  1  0.195366  0.625684  0.201851  1
  Si  Si150  1  0.374124  0.804556  0.201857  1
  Si  Si151  1  0.804742  0.625677  0.201843  1
  Si  Si152  1  0.874103  0.695078  0.265660  1
  Si  Si153  1  0.304724  0.873979  0.265670  1
  Si  Si154  1  0.125968  0.695101  0.265664  1
  Si  Si155  1  0.695345  0.873952  0.265667  1
  Si  Si156  1  0.373266  0.000000  0.157981  1
  Si  Si157  1  0.626827  -0.000000  0.157970  1
  Si  Si158  1  0.500038  0.873116  0.309566  1
  Si  Si159  1  0.500031  0.873167  0.467602  1
  Si  Si160  1  0.500021  0.678657  0.354246  1
  Si  Si161  1  0.500019  0.678697  0.422924  1
  Si  Si162  1  0.874107  0.695184  0.511515  1
  Si  Si163  1  0.304740  0.874010  0.511505  1
  Si  Si164  1  0.125970  0.695149  0.511518  1
  Si  Si165  1  0.695337  0.874045  0.511500  1
  Si  Si166  1  0.625977  0.804636  0.575317  1
  Si  Si167  1  0.195347  0.625767  0.575337  1
  Si  Si168  1  0.374115  0.804628  0.575324  1
  Si  Si169  1  0.804750  0.625778  0.575332  1
  Si  Si170  1  0.000000  0.626612  0.619235  1
  Si  Si171  1  0.373281  0.000000  0.619203  1
  Si  Si172  1  0.626843  -0.000000  0.619197  1
  H  H173  1  -0.000000  0.289063  0.111413  1
  H  H174  1  -0.000000  0.289047  0.665750  1
  H  H175  1  0.289223  -0.000000  0.111436  1
  H  H176  1  0.710855  0.000000  0.111420  1
  H  H177  1  0.000000  0.710724  0.111432  1
  H  H178  1  -0.000000  0.710710  0.665761  1
  H  H179  1  0.289258  -0.000000  0.665754  1
  H  H180  1  0.710887  -0.000000  0.665741  1
