# generated using pymatgen
data_Si43H2O87
_symmetry_space_group_name_H-M   'P 1'
_cell_length_a   12.70128613
_cell_length_b   11.41729918
_cell_length_c   91.27064669
_cell_angle_alpha   90.00000000
_cell_angle_beta   90.00000000
_cell_angle_gamma   90.00000000
_symmetry_Int_Tables_number   1
_chemical_formula_structural   Si43H2O87
_chemical_formula_sum   'Si172 H8 O348'
_cell_volume   13235.5565817
_cell_formula_units_Z   4
loop_
 _symmetry_equiv_pos_site_id
 _symmetry_equiv_pos_as_xyz
  1  'x, y, z'
loop_
 _atom_site_type_symbol
 _atom_site_label
 _atom_site_symmetry_multiplicity
 _atom_site_fract_x
 _atom_site_fract_y
 _atom_site_fract_z
 _atom_site_occupancy
  O  O1  1  0.175262  0.289560  0.064644  1
  O  O2  1  0.175283  0.710517  0.064645  1
  O  O3  1  0.360303  0.347617  0.113197  1
  O  O4  1  0.360323  0.652553  0.113199  1
  O  O5  1  0.298452  0.290089  0.087189  1
  O  O6  1  0.298470  0.710100  0.087192  1
  O  O7  1  0.360262  0.500094  0.093506  1
  O  O8  1  0.499820  0.658456  0.093401  1
  O  O9  1  0.169332  0.114381  0.083420  1
  O  O10  1  0.169296  0.885745  0.083414  1
  O  O11  1  0.101583  0.312204  0.090105  1
  O  O12  1  0.101605  0.687911  0.090106  1
  O  O13  1  0.137645  0.000000  0.107259  1
  O  O14  1  0.499800  0.341713  0.093398  1
  O  O15  1  0.000000  0.342789  0.113802  1
  O  O16  1  0.824399  0.710513  0.064645  1
  O  O17  1  0.824392  0.289578  0.064643  1
  O  O18  1  0.639292  0.652544  0.113203  1
  O  O19  1  0.639273  0.347578  0.113200  1
  O  O20  1  0.701172  0.710043  0.087191  1
  O  O21  1  0.701149  0.290103  0.087188  1
  O  O22  1  0.639352  0.500073  0.093511  1
  O  O23  1  0.830258  0.885744  0.083416  1
  O  O24  1  0.830230  0.114387  0.083418  1
  O  O25  1  0.898039  0.687960  0.090110  1
  O  O26  1  0.898016  0.312180  0.090108  1
  O  O27  1  0.000000  0.000000  0.087644  1
  O  O28  1  0.861882  0.000000  0.107261  1
  O  O29  1  0.000000  0.657344  0.113802  1
  O  O30  1  0.000000  0.500064  0.094363  1
  O  O31  1  0.298924  0.283179  0.138444  1
  O  O32  1  0.299137  0.716987  0.205567  1
  O  O33  1  0.298949  0.716969  0.138448  1
  O  O34  1  0.299158  0.283202  0.205560  1
  O  O35  1  0.499974  0.657749  0.211036  1
  O  O36  1  0.358559  0.500074  0.132920  1
  O  O37  1  0.358768  0.500090  0.211093  1
  O  O38  1  0.100920  0.308995  0.137318  1
  O  O39  1  0.101161  0.691150  0.206718  1
  O  O40  1  0.100952  0.691130  0.137318  1
  O  O41  1  0.101188  0.309095  0.206709  1
  O  O42  1  0.171655  0.111701  0.131346  1
  O  O43  1  0.171898  0.888495  0.212665  1
  O  O44  1  0.171673  0.888444  0.131352  1
  O  O45  1  0.171885  0.111749  0.212665  1
  O  O46  1  0.172829  0.184543  0.157693  1
  O  O47  1  0.172868  0.815487  0.186323  1
  O  O48  1  0.172823  0.815564  0.157697  1
  O  O49  1  0.172877  0.184669  0.186319  1
  O  O50  1  0.133117  0.000000  0.172021  1
  O  O51  1  0.499793  0.657708  0.132985  1
  O  O52  1  0.499771  0.342415  0.132982  1
  O  O53  1  0.499997  0.342456  0.211031  1
  O  O54  1  0.000000  0.000000  0.216753  1
  O  O55  1  0.700850  0.283230  0.205569  1
  O  O56  1  0.700635  0.716937  0.138455  1
  O  O57  1  0.700817  0.717018  0.205575  1
  O  O58  1  0.700609  0.283155  0.138451  1
  O  O59  1  0.641209  0.500116  0.211097  1
  O  O60  1  0.641001  0.500050  0.132923  1
  O  O61  1  0.898852  0.309048  0.206696  1
  O  O62  1  0.898612  0.691100  0.137305  1
  O  O63  1  0.898818  0.691179  0.206702  1
  O  O64  1  0.898579  0.309050  0.137304  1
  O  O65  1  0.828114  0.111757  0.212670  1
  O  O66  1  0.827872  0.888436  0.131353  1
  O  O67  1  0.828099  0.888498  0.212667  1
  O  O68  1  0.827885  0.111691  0.131352  1
  O  O69  1  0.826953  0.184571  0.186322  1
  O  O70  1  0.826898  0.815474  0.157697  1
  O  O71  1  0.826929  0.815597  0.186323  1
  O  O72  1  0.826893  0.184667  0.157696  1
  O  O73  1  0.000000  0.000000  0.127265  1
  O  O74  1  0.000000  0.500069  0.133180  1
  O  O75  1  0.866652  0.000000  0.171996  1
  O  O76  1  0.000000  0.159748  0.172007  1
  O  O77  1  0.000000  0.840395  0.172010  1
  O  O78  1  0.000000  0.500116  0.210837  1
  O  O79  1  0.141903  0.500068  0.289372  1
  O  O80  1  0.175345  0.710543  0.279375  1
  O  O81  1  0.175363  0.289614  0.279372  1
  O  O82  1  0.360465  0.652551  0.230818  1
  O  O83  1  0.360488  0.347586  0.230813  1
  O  O84  1  0.298579  0.710014  0.256830  1
  O  O85  1  0.298599  0.290078  0.256825  1
  O  O86  1  0.360398  0.500048  0.250505  1
  O  O87  1  0.169518  0.885746  0.260600  1
  O  O88  1  0.169498  0.114393  0.260602  1
  O  O89  1  0.101708  0.687964  0.253910  1
  O  O90  1  0.101733  0.312184  0.253906  1
  O  O91  1  0.137878  0.000000  0.236757  1
  O  O92  1  0.499929  0.658431  0.250620  1
  O  O93  1  0.499951  0.341687  0.250615  1
  O  O94  1  0.857900  0.500067  0.289371  1
  O  O95  1  0.824481  0.289599  0.279370  1
  O  O96  1  0.824472  0.710559  0.279375  1
  O  O97  1  0.000000  0.342816  0.230212  1
  O  O98  1  0.639455  0.347627  0.230817  1
  O  O99  1  0.639436  0.652563  0.230822  1
  O  O100  1  0.701301  0.290063  0.256823  1
  O  O101  1  0.701274  0.710075  0.256831  1
  O  O102  1  0.639488  0.500071  0.250512  1
  O  O103  1  0.830447  0.114387  0.260600  1
  O  O104  1  0.830429  0.885753  0.260600  1
  O  O105  1  0.898169  0.312206  0.253907  1
  O  O106  1  0.898139  0.687913  0.253915  1
  O  O107  1  0.862117  0.000000  0.236758  1
  O  O108  1  0.000000  0.657370  0.230218  1
  O  O109  1  0.000000  0.500070  0.249654  1
  O  O110  1  0.000000  0.348282  0.290084  1
  O  O111  1  0.000000  0.651850  0.290087  1
  O  O112  1  0.000000  0.000000  0.256373  1
  O  O113  1  0.141845  0.500038  0.327855  1
  O  O114  1  0.175262  0.289560  0.337853  1
  O  O115  1  0.175283  0.710517  0.337854  1
  O  O116  1  0.360303  0.347617  0.386405  1
  O  O117  1  0.360323  0.652553  0.386408  1
  O  O118  1  0.298452  0.290089  0.360398  1
  O  O119  1  0.298470  0.710100  0.360401  1
  O  O120  1  0.360262  0.500094  0.366714  1
  O  O121  1  0.146641  0.660674  0.308615  1
  O  O122  1  0.499820  0.658456  0.366609  1
  O  O123  1  0.169332  0.114381  0.356629  1
  O  O124  1  0.169296  0.885745  0.356623  1
  O  O125  1  0.101583  0.312204  0.363314  1
  O  O126  1  0.101605  0.687911  0.363315  1
  O  O127  1  0.137645  0.000000  0.380468  1
  O  O128  1  0.499800  0.341713  0.366607  1
  O  O129  1  0.146641  0.339431  0.308613  1
  O  O130  1  -0.000000  0.342789  0.387011  1
  O  O131  1  0.857841  0.500042  0.327854  1
  O  O132  1  0.824399  0.710513  0.337854  1
  O  O133  1  0.824392  0.289578  0.337852  1
  O  O134  1  0.639292  0.652544  0.386411  1
  O  O135  1  0.639273  0.347578  0.386409  1
  O  O136  1  0.701172  0.710043  0.360400  1
  O  O137  1  0.701149  0.290103  0.360397  1
  O  O138  1  0.639352  0.500073  0.366720  1
  O  O139  1  0.830258  0.885744  0.356625  1
  O  O140  1  0.830230  0.114387  0.356627  1
  O  O141  1  0.898039  0.687960  0.363319  1
  O  O142  1  0.898016  0.312180  0.363317  1
  O  O143  1  0.000000  0.000000  0.360853  1
  O  O144  1  0.861882  0.000000  0.380470  1
  O  O145  1  0.000000  0.657344  0.387011  1
  O  O146  1  0.000000  0.500064  0.367572  1
  O  O147  1  0.853104  0.660675  0.308614  1
  O  O148  1  0.000000  0.348257  0.327139  1
  O  O149  1  0.000000  0.651823  0.327142  1
  O  O150  1  0.853103  0.339433  0.308610  1
  O  O151  1  0.298924  0.283179  0.411652  1
  O  O152  1  0.299137  0.716987  0.478776  1
  O  O153  1  0.298949  0.716969  0.411657  1
  O  O154  1  0.299158  0.283202  0.478769  1
  O  O155  1  0.499974  0.657749  0.484245  1
  O  O156  1  0.358559  0.500074  0.406129  1
  O  O157  1  0.358768  0.500090  0.484302  1
  O  O158  1  0.100920  0.308995  0.410527  1
  O  O159  1  0.101161  0.691150  0.479927  1
  O  O160  1  0.100952  0.691130  0.410527  1
  O  O161  1  0.101188  0.309095  0.479917  1
  O  O162  1  0.171655  0.111701  0.404554  1
  O  O163  1  0.171898  0.888495  0.485874  1
  O  O164  1  0.171673  0.888444  0.404560  1
  O  O165  1  0.171885  0.111749  0.485874  1
  O  O166  1  0.172829  0.184543  0.430901  1
  O  O167  1  0.172868  0.815487  0.459532  1
  O  O168  1  0.172823  0.815564  0.430906  1
  O  O169  1  0.172877  0.184669  0.459528  1
  O  O170  1  0.133117  0.000000  0.445229  1
  O  O171  1  0.499793  0.657708  0.406194  1
  O  O172  1  0.499771  0.342415  0.406191  1
  O  O173  1  0.499997  0.342456  0.484239  1
  O  O174  1  0.000000  0.000000  0.489961  1
  O  O175  1  0.700850  0.283230  0.478777  1
  O  O176  1  0.700635  0.716937  0.411663  1
  O  O177  1  0.700817  0.717018  0.478784  1
  O  O178  1  0.700609  0.283155  0.411660  1
  O  O179  1  0.641209  0.500116  0.484306  1
  O  O180  1  0.641001  0.500050  0.406132  1
  O  O181  1  0.898852  0.309048  0.479904  1
  O  O182  1  0.898612  0.691100  0.410514  1
  O  O183  1  0.898818  0.691179  0.479911  1
  O  O184  1  0.898579  0.309050  0.410512  1
  O  O185  1  0.828114  0.111757  0.485879  1
  O  O186  1  0.827872  0.888436  0.404562  1
  O  O187  1  0.828099  0.888498  0.485875  1
  O  O188  1  0.827885  0.111691  0.404561  1
  O  O189  1  0.826953  0.184571  0.459531  1
  O  O190  1  0.826898  0.815474  0.430905  1
  O  O191  1  0.826929  0.815597  0.459532  1
  O  O192  1  0.826893  0.184667  0.430905  1
  O  O193  1  0.000000  0.000000  0.400474  1
  O  O194  1  0.000000  0.500069  0.406389  1
  O  O195  1  0.866652  0.000000  0.445205  1
  O  O196  1  0.000000  0.159748  0.445216  1
  O  O197  1  0.000000  0.840395  0.445219  1
  O  O198  1  0.000000  0.500116  0.484046  1
  O  O199  1  0.141903  0.500068  0.562581  1
  O  O200  1  0.175345  0.710543  0.552584  1
  O  O201  1  0.175363  0.289614  0.552580  1
  O  O202  1  0.360465  0.652551  0.504026  1
  O  O203  1  0.360488  0.347586  0.504022  1
  O  O204  1  0.298579  0.710014  0.530039  1
  O  O205  1  0.298599  0.290078  0.530033  1
  O  O206  1  0.360398  0.500048  0.523714  1
  O  O207  1  0.169518  0.885746  0.533808  1
  O  O208  1  0.169498  0.114393  0.533811  1
  O  O209  1  0.101708  0.687964  0.527119  1
  O  O210  1  0.101733  0.312184  0.527115  1
  O  O211  1  0.137878  0.000000  0.509966  1
  O  O212  1  0.499929  0.658431  0.523829  1
  O  O213  1  0.499951  0.341687  0.523824  1
  O  O214  1  0.857900  0.500067  0.562580  1
  O  O215  1  0.824481  0.289599  0.552579  1
  O  O216  1  0.824472  0.710559  0.552584  1
  O  O217  1  0.000000  0.342816  0.503421  1
  O  O218  1  0.639455  0.347627  0.504025  1
  O  O219  1  0.639436  0.652563  0.504031  1
  O  O220  1  0.701301  0.290063  0.530032  1
  O  O221  1  0.701274  0.710075  0.530039  1
  O  O222  1  0.639488  0.500071  0.523720  1
  O  O223  1  0.830447  0.114387  0.533808  1
  O  O224  1  0.830429  0.885753  0.533809  1
  O  O225  1  0.898169  0.312206  0.527116  1
  O  O226  1  0.898139  0.687913  0.527123  1
  O  O227  1  0.862117  0.000000  0.509966  1
  O  O228  1  0.000000  0.657370  0.503426  1
  O  O229  1  0.000000  0.500070  0.522863  1
  O  O230  1  0.000000  0.348282  0.563293  1
  O  O231  1  0.000000  0.651850  0.563296  1
  O  O232  1  0.000000  0.000000  0.529582  1
  O  O233  1  0.141845  0.500038  0.601064  1
  O  O234  1  0.175262  0.289560  0.611061  1
  O  O235  1  0.175283  0.710517  0.611062  1
  O  O236  1  0.360303  0.347617  0.659614  1
  O  O237  1  0.360323  0.652553  0.659617  1
  O  O238  1  0.298452  0.290089  0.633607  1
  O  O239  1  0.298470  0.710100  0.633609  1
  O  O240  1  0.360262  0.500094  0.639923  1
  O  O241  1  0.146641  0.660674  0.581824  1
  O  O242  1  0.499820  0.658456  0.639818  1
  O  O243  1  0.169332  0.114381  0.629838  1
  O  O244  1  0.169296  0.885745  0.629832  1
  O  O245  1  0.101583  0.312204  0.636523  1
  O  O246  1  0.101605  0.687911  0.636524  1
  O  O247  1  0.137645  0.000000  0.653677  1
  O  O248  1  0.499800  0.341713  0.639816  1
  O  O249  1  0.146641  0.339431  0.581821  1
  O  O250  1  0.000000  0.342789  0.660219  1
  O  O251  1  0.857841  0.500042  0.601063  1
  O  O252  1  0.824399  0.710513  0.611063  1
  O  O253  1  0.824392  0.289578  0.611060  1
  O  O254  1  0.639292  0.652544  0.659620  1
  O  O255  1  0.639273  0.347578  0.659617  1
  O  O256  1  0.701172  0.710043  0.633609  1
  O  O257  1  0.701149  0.290103  0.633605  1
  O  O258  1  0.639352  0.500073  0.639929  1
  O  O259  1  0.830258  0.885744  0.629833  1
  O  O260  1  0.830230  0.114387  0.629836  1
  O  O261  1  0.898039  0.687960  0.636528  1
  O  O262  1  0.898016  0.312180  0.636526  1
  O  O263  1  0.000000  0.000000  0.634062  1
  O  O264  1  0.861882  0.000000  0.653678  1
  O  O265  1  0.000000  0.657344  0.660220  1
  O  O266  1  0.000000  0.500064  0.640781  1
  O  O267  1  0.853104  0.660675  0.581823  1
  O  O268  1  0.000000  0.348257  0.600347  1
  O  O269  1  0.000000  0.651823  0.600351  1
  O  O270  1  0.853103  0.339433  0.581819  1
  O  O271  1  0.298924  0.283179  0.684861  1
  O  O272  1  0.299137  0.716987  0.751985  1
  O  O273  1  0.298949  0.716969  0.684865  1
  O  O274  1  0.299158  0.283202  0.751978  1
  O  O275  1  0.499974  0.657749  0.757454  1
  O  O276  1  0.358559  0.500074  0.679338  1
  O  O277  1  0.358768  0.500090  0.757511  1
  O  O278  1  0.100920  0.308995  0.683735  1
  O  O279  1  0.101161  0.691150  0.753136  1
  O  O280  1  0.100952  0.691130  0.683735  1
  O  O281  1  0.101188  0.309095  0.753126  1
  O  O282  1  0.171655  0.111701  0.677763  1
  O  O283  1  0.171898  0.888495  0.759082  1
  O  O284  1  0.171673  0.888444  0.677769  1
  O  O285  1  0.171885  0.111749  0.759083  1
  O  O286  1  0.172829  0.184543  0.704110  1
  O  O287  1  0.172868  0.815487  0.732741  1
  O  O288  1  0.172823  0.815564  0.704114  1
  O  O289  1  0.172877  0.184669  0.732737  1
  O  O290  1  0.133117  0.000000  0.718438  1
  O  O291  1  0.499793  0.657708  0.679402  1
  O  O292  1  0.499771  0.342415  0.679399  1
  O  O293  1  0.499997  0.342456  0.757448  1
  O  O294  1  0.000000  0.000000  0.763170  1
  O  O295  1  0.700850  0.283230  0.751986  1
  O  O296  1  0.700635  0.716937  0.684872  1
  O  O297  1  0.700817  0.717018  0.751993  1
  O  O298  1  0.700609  0.283155  0.684869  1
  O  O299  1  0.641209  0.500116  0.757514  1
  O  O300  1  0.641001  0.500050  0.679341  1
  O  O301  1  0.898852  0.309048  0.753113  1
  O  O302  1  0.898612  0.691100  0.683723  1
  O  O303  1  0.898818  0.691179  0.753119  1
  O  O304  1  0.898579  0.309050  0.683721  1
  O  O305  1  0.828114  0.111757  0.759088  1
  O  O306  1  0.827872  0.888436  0.677771  1
  O  O307  1  0.828099  0.888498  0.759084  1
  O  O308  1  0.827885  0.111691  0.677770  1
  O  O309  1  0.826953  0.184571  0.732740  1
  O  O310  1  0.826898  0.815474  0.704114  1
  O  O311  1  0.826929  0.815597  0.732740  1
  O  O312  1  0.826893  0.184667  0.704113  1
  O  O313  1  0.000000  0.000000  0.673683  1
  O  O314  1  0.000000  0.500069  0.679598  1
  O  O315  1  0.866652  0.000000  0.718413  1
  O  O316  1  0.000000  0.159748  0.718425  1
  O  O317  1  0.000000  0.840395  0.718428  1
  O  O318  1  0.000000  0.500116  0.757254  1
  O  O319  1  0.175345  0.710543  0.825792  1
  O  O320  1  0.175363  0.289614  0.825789  1
  O  O321  1  0.360465  0.652551  0.777235  1
  O  O322  1  0.360488  0.347586  0.777230  1
  O  O323  1  0.298579  0.710014  0.803247  1
  O  O324  1  0.298599  0.290078  0.803242  1
  O  O325  1  0.360398  0.500048  0.796923  1
  O  O326  1  0.169518  0.885746  0.807017  1
  O  O327  1  0.169498  0.114393  0.807020  1
  O  O328  1  0.101708  0.687964  0.800328  1
  O  O329  1  0.101733  0.312184  0.800324  1
  O  O330  1  0.137878  0.000000  0.783174  1
  O  O331  1  0.499929  0.658431  0.797038  1
  O  O332  1  0.499951  0.341687  0.797033  1
  O  O333  1  0.824481  0.289599  0.825787  1
  O  O334  1  0.824472  0.710559  0.825793  1
  O  O335  1  0.000000  0.342816  0.776629  1
  O  O336  1  0.639455  0.347627  0.777234  1
  O  O337  1  0.639436  0.652563  0.777240  1
  O  O338  1  0.701301  0.290063  0.803241  1
  O  O339  1  0.701274  0.710075  0.803248  1
  O  O340  1  0.639488  0.500071  0.796929  1
  O  O341  1  0.830447  0.114387  0.807017  1
  O  O342  1  0.830429  0.885753  0.807017  1
  O  O343  1  0.898169  0.312206  0.800325  1
  O  O344  1  0.898139  0.687913  0.800332  1
  O  O345  1  0.862117  0.000000  0.783175  1
  O  O346  1  -0.000000  0.657370  0.776635  1
  O  O347  1  0.000000  0.500070  0.796072  1
  O  O348  1  -0.000000  0.000000  0.802791  1
  Si  Si349  1  0.121647  0.000000  0.124246  1
  Si  Si350  1  0.189041  0.751452  0.081066  1
  Si  Si351  1  0.121515  0.000000  0.090255  1
  Si  Si352  1  0.378782  0.365173  0.096298  1
  Si  Si353  1  0.378799  0.635010  0.096300  1
  Si  Si354  1  0.189034  0.248676  0.081067  1
  Si  Si355  1  -0.000000  0.635225  0.096913  1
  Si  Si356  1  0.000000  0.364901  0.096912  1
  Si  Si357  1  0.877883  0.000000  0.124248  1
  Si  Si358  1  0.620835  0.634992  0.096303  1
  Si  Si359  1  0.620818  0.365154  0.096300  1
  Si  Si360  1  0.810588  0.751436  0.081067  1
  Si  Si361  1  0.810568  0.248691  0.081065  1
  Si  Si362  1  0.878026  0.000000  0.090257  1
  Si  Si363  1  0.121599  0.135830  0.172011  1
  Si  Si364  1  0.121592  0.864306  0.172013  1
  Si  Si365  1  0.378716  0.365140  0.130115  1
  Si  Si366  1  0.378915  0.635024  0.213900  1
  Si  Si367  1  0.378734  0.635008  0.130117  1
  Si  Si368  1  0.378934  0.365154  0.213896  1
  Si  Si369  1  0.190343  0.220990  0.141375  1
  Si  Si370  1  0.190533  0.779157  0.202641  1
  Si  Si371  1  0.190360  0.779143  0.141379  1
  Si  Si372  1  0.190543  0.221048  0.202636  1
  Si  Si373  1  0.000000  0.635181  0.213305  1
  Si  Si374  1  -0.000000  0.635137  0.130715  1
  Si  Si375  1  0.878170  0.864315  0.172006  1
  Si  Si376  1  0.878177  0.135839  0.172005  1
  Si  Si377  1  0.621052  0.365178  0.213899  1
  Si  Si378  1  0.620852  0.634988  0.130120  1
  Si  Si379  1  0.621033  0.635045  0.213904  1
  Si  Si380  1  0.620834  0.365118  0.130117  1
  Si  Si381  1  0.809431  0.221036  0.202639  1
  Si  Si382  1  0.809236  0.779113  0.141380  1
  Si  Si383  1  0.809404  0.779188  0.202641  1
  Si  Si384  1  0.809224  0.221011  0.141378  1
  Si  Si385  1  0.000000  0.365001  0.130715  1
  Si  Si386  1  -0.000000  0.365045  0.213300  1
  Si  Si387  1  0.189178  0.248699  0.262950  1
  Si  Si388  1  0.121885  0.000000  0.219770  1
  Si  Si389  1  0.121729  0.000000  0.253761  1
  Si  Si390  1  0.121822  0.635155  0.291827  1
  Si  Si391  1  0.121826  0.364978  0.291825  1
  Si  Si392  1  0.378915  0.634972  0.247717  1
  Si  Si393  1  0.378933  0.365134  0.247713  1
  Si  Si394  1  0.189167  0.751439  0.262953  1
  Si  Si395  1  0.878121  0.000000  0.219771  1
  Si  Si396  1  0.878240  0.000000  0.253762  1
  Si  Si397  1  0.877982  0.364978  0.291825  1
  Si  Si398  1  0.877977  0.635154  0.291828  1
  Si  Si399  1  0.620969  0.365154  0.247716  1
  Si  Si400  1  0.620951  0.634991  0.247721  1
  Si  Si401  1  0.810724  0.248684  0.262948  1
  Si  Si402  1  0.810701  0.751463  0.262953  1
  Si  Si403  1  -0.000000  0.635235  0.247107  1
  Si  Si404  1  0.000000  0.364911  0.247102  1
  Si  Si405  1  0.121647  0.000000  0.397455  1
  Si  Si406  1  0.189041  0.751452  0.354275  1
  Si  Si407  1  0.121515  0.000000  0.363464  1
  Si  Si408  1  0.121763  0.364952  0.325399  1
  Si  Si409  1  0.121769  0.635127  0.325401  1
  Si  Si410  1  0.378782  0.365173  0.369506  1
  Si  Si411  1  0.378799  0.635010  0.369509  1
  Si  Si412  1  0.189034  0.248676  0.354276  1
  Si  Si413  1  0.000000  0.635225  0.370122  1
  Si  Si414  1  0.000000  0.364901  0.370121  1
  Si  Si415  1  0.877883  0.000000  0.397457  1
  Si  Si416  1  0.877924  0.635132  0.325401  1
  Si  Si417  1  0.877919  0.364955  0.325398  1
  Si  Si418  1  0.620835  0.634992  0.369512  1
  Si  Si419  1  0.620818  0.365154  0.369509  1
  Si  Si420  1  0.810588  0.751436  0.354275  1
  Si  Si421  1  0.810568  0.248691  0.354274  1
  Si  Si422  1  0.878026  0.000000  0.363465  1
  Si  Si423  1  0.121599  0.135830  0.445220  1
  Si  Si424  1  0.121592  0.864306  0.445222  1
  Si  Si425  1  0.378716  0.365140  0.403323  1
  Si  Si426  1  0.378915  0.635024  0.487109  1
  Si  Si427  1  0.378734  0.635008  0.403326  1
  Si  Si428  1  0.378934  0.365154  0.487105  1
  Si  Si429  1  0.190343  0.220990  0.414584  1
  Si  Si430  1  0.190533  0.779157  0.475850  1
  Si  Si431  1  0.190360  0.779143  0.414588  1
  Si  Si432  1  0.190543  0.221048  0.475845  1
  Si  Si433  1  -0.000000  0.635181  0.486514  1
  Si  Si434  1  0.000000  0.635137  0.403924  1
  Si  Si435  1  0.878170  0.864315  0.445214  1
  Si  Si436  1  0.878177  0.135839  0.445213  1
  Si  Si437  1  0.621052  0.365178  0.487108  1
  Si  Si438  1  0.620852  0.634988  0.403329  1
  Si  Si439  1  0.621033  0.635045  0.487113  1
  Si  Si440  1  0.620834  0.365118  0.403326  1
  Si  Si441  1  0.809431  0.221036  0.475847  1
  Si  Si442  1  0.809236  0.779113  0.414588  1
  Si  Si443  1  0.809404  0.779188  0.475850  1
  Si  Si444  1  0.809224  0.221011  0.414587  1
  Si  Si445  1  0.000000  0.365001  0.403923  1
  Si  Si446  1  0.000000  0.365045  0.486508  1
  Si  Si447  1  0.189178  0.248699  0.536159  1
  Si  Si448  1  0.121885  0.000000  0.492978  1
  Si  Si449  1  0.121729  0.000000  0.526970  1
  Si  Si450  1  0.121822  0.635155  0.565036  1
  Si  Si451  1  0.121826  0.364978  0.565034  1
  Si  Si452  1  0.378915  0.634972  0.520926  1
  Si  Si453  1  0.378933  0.365134  0.520922  1
  Si  Si454  1  0.189167  0.751439  0.536161  1
  Si  Si455  1  0.878121  0.000000  0.492980  1
  Si  Si456  1  0.878240  -0.000000  0.526971  1
  Si  Si457  1  0.877982  0.364978  0.565033  1
  Si  Si458  1  0.877977  0.635154  0.565037  1
  Si  Si459  1  0.620969  0.365154  0.520925  1
  Si  Si460  1  0.620951  0.634991  0.520930  1
  Si  Si461  1  0.810724  0.248684  0.536156  1
  Si  Si462  1  0.810701  0.751463  0.536162  1
  Si  Si463  1  0.000000  0.635235  0.520316  1
  Si  Si464  1  0.000000  0.364911  0.520311  1
  Si  Si465  1  0.121647  0.000000  0.670664  1
  Si  Si466  1  0.189041  0.751452  0.627484  1
  Si  Si467  1  0.121515  0.000000  0.636673  1
  Si  Si468  1  0.121763  0.364952  0.598607  1
  Si  Si469  1  0.121769  0.635127  0.598609  1
  Si  Si470  1  0.378782  0.365173  0.642715  1
  Si  Si471  1  0.378799  0.635010  0.642717  1
  Si  Si472  1  0.189034  0.248676  0.627485  1
  Si  Si473  1  -0.000000  0.635225  0.643330  1
  Si  Si474  1  0.000000  0.364901  0.643330  1
  Si  Si475  1  0.877883  0.000000  0.670666  1
  Si  Si476  1  0.877924  0.635132  0.598610  1
  Si  Si477  1  0.877919  0.364955  0.598607  1
  Si  Si478  1  0.620835  0.634992  0.642720  1
  Si  Si479  1  0.620818  0.365154  0.642718  1
  Si  Si480  1  0.810588  0.751436  0.627484  1
  Si  Si481  1  0.810568  0.248691  0.627483  1
  Si  Si482  1  0.878026  0.000000  0.636674  1
  Si  Si483  1  0.121599  0.135830  0.718428  1
  Si  Si484  1  0.121592  0.864306  0.718431  1
  Si  Si485  1  0.378716  0.365140  0.676532  1
  Si  Si486  1  0.378915  0.635024  0.760318  1
  Si  Si487  1  0.378734  0.635008  0.676535  1
  Si  Si488  1  0.378934  0.365154  0.760313  1
  Si  Si489  1  0.190343  0.220990  0.687793  1
  Si  Si490  1  0.190533  0.779157  0.749059  1
  Si  Si491  1  0.190360  0.779143  0.687797  1
  Si  Si492  1  0.190543  0.221048  0.749053  1
  Si  Si493  1  0.000000  0.635181  0.759722  1
  Si  Si494  1  0.000000  0.635137  0.677133  1
  Si  Si495  1  0.878170  0.864315  0.718423  1
  Si  Si496  1  0.878177  0.135839  0.718422  1
  Si  Si497  1  0.621052  0.365178  0.760317  1
  Si  Si498  1  0.620852  0.634988  0.676537  1
  Si  Si499  1  0.621033  0.635045  0.760321  1
  Si  Si500  1  0.620834  0.365118  0.676535  1
  Si  Si501  1  0.809431  0.221036  0.749056  1
  Si  Si502  1  0.809236  0.779113  0.687797  1
  Si  Si503  1  0.809404  0.779188  0.749059  1
  Si  Si504  1  0.809224  0.221011  0.687796  1
  Si  Si505  1  0.000000  0.365001  0.677132  1
  Si  Si506  1  0.000000  0.365045  0.759717  1
  Si  Si507  1  0.189178  0.248699  0.809368  1
  Si  Si508  1  0.121885  0.000000  0.766187  1
  Si  Si509  1  0.121729  0.000000  0.800179  1
  Si  Si510  1  0.378915  0.634972  0.794135  1
  Si  Si511  1  0.378933  0.365134  0.794130  1
  Si  Si512  1  0.189167  0.751439  0.809370  1
  Si  Si513  1  0.878121  0.000000  0.766188  1
  Si  Si514  1  0.878240  0.000000  0.800180  1
  Si  Si515  1  0.620969  0.365154  0.794134  1
  Si  Si516  1  0.620951  0.634991  0.794138  1
  Si  Si517  1  0.810724  0.248684  0.809365  1
  Si  Si518  1  0.810701  0.751463  0.809370  1
  Si  Si519  1  0.000000  0.635235  0.793524  1
  Si  Si520  1  0.000000  0.364911  0.793520  1
  H  H521  1  0.175262  0.289560  0.054783  1
  H  H522  1  0.175283  0.710517  0.054784  1
  H  H523  1  0.824399  0.710513  0.054785  1
  H  H524  1  0.824392  0.289578  0.054782  1
  H  H525  1  0.175345  0.710543  0.835653  1
  H  H526  1  0.175363  0.289614  0.835650  1
  H  H527  1  0.824481  0.289599  0.835648  1
  H  H528  1  0.824472  0.710559  0.835654  1
