# generated using pymatgen
data_Si57H2O115
_symmetry_space_group_name_H-M   'P 1'
_cell_length_a   13.87556409
_cell_length_b   12.44431264
_cell_length_c   111.51247400
_cell_angle_alpha   104.91000000
_cell_angle_beta   90.00000000
_cell_angle_gamma   90.00000000
_symmetry_Int_Tables_number   1
_chemical_formula_structural   Si57H2O115
_chemical_formula_sum   'Si228 H8 O460'
_cell_volume   18606.770802
_cell_formula_units_Z   4
loop_
 _symmetry_equiv_pos_site_id
 _symmetry_equiv_pos_as_xyz
  1  'x, y, z'
loop_
 _atom_site_type_symbol
 _atom_site_label
 _atom_site_symmetry_multiplicity
 _atom_site_fract_x
 _atom_site_fract_y
 _atom_site_fract_z
 _atom_site_occupancy
  O  O1  1  0.134552  0.143634  0.054471  1
  O  O2  1  0.865768  0.143524  0.054493  1
  O  O3  1  0.172434  0.250759  0.079053  1
  O  O4  1  0.134567  0.856693  0.057725  1
  O  O5  1  0.000000  0.907254  0.073620  1
  O  O6  1  0.124510  0.048654  0.072061  1
  O  O7  1  0.172430  0.895639  0.082583  1
  O  O8  1  0.499915  0.154845  0.126954  1
  O  O9  1  0.403170  0.159159  0.108199  1
  O  O10  1  0.096619  0.840704  0.136512  1
  O  O11  1  0.402113  0.780366  0.111100  1
  O  O12  1  0.097775  0.220136  0.133619  1
  O  O13  1  0.000000  0.244010  0.115694  1
  O  O14  1  0.499929  0.943665  0.123757  1
  O  O15  1  0.499950  0.548345  0.128875  1
  O  O16  1  0.092621  0.310201  0.099585  1
  O  O17  1  0.403746  0.477253  0.109925  1
  O  O18  1  0.095979  0.522133  0.134938  1
  O  O19  1  0.240039  0.812478  0.101118  1
  O  O20  1  0.259727  0.187457  0.143591  1
  O  O21  1  0.251304  0.813006  0.124038  1
  O  O22  1  0.248465  0.186148  0.120659  1
  O  O23  1  0.277008  0.627856  0.108143  1
  O  O24  1  0.224142  0.371760  0.136371  1
  O  O25  1  0.245387  0.415321  0.098788  1
  O  O26  1  0.249004  0.501989  0.122376  1
  O  O27  1  0.249069  0.212378  0.098719  1
  O  O28  1  0.259360  0.018167  0.101994  1
  O  O29  1  0.240474  0.981537  0.142688  1
  O  O30  1  0.094097  0.938313  0.103359  1
  O  O31  1  0.405630  0.061629  0.141374  1
  O  O32  1  0.499943  0.333850  0.118505  1
  O  O33  1  0.000000  0.189626  0.070385  1
  O  O34  1  0.827737  0.250754  0.079058  1
  O  O35  1  0.865770  0.856583  0.057718  1
  O  O36  1  0.875767  0.048606  0.072074  1
  O  O37  1  0.827725  0.895522  0.082568  1
  O  O38  1  0.000000  0.844737  0.117764  1
  O  O39  1  0.903152  0.840612  0.136503  1
  O  O40  1  0.596597  0.159064  0.108190  1
  O  O41  1  0.902040  0.220179  0.133601  1
  O  O42  1  0.597701  0.780411  0.111083  1
  O  O43  1  0.000000  0.056217  0.121011  1
  O  O44  1  0.907136  0.310094  0.099611  1
  O  O45  1  0.903846  0.522111  0.134933  1
  O  O46  1  0.596066  0.477226  0.109915  1
  O  O47  1  0.740105  0.187418  0.143565  1
  O  O48  1  0.759795  0.812446  0.101091  1
  O  O49  1  0.751395  0.186034  0.120631  1
  O  O50  1  0.748559  0.812899  0.124010  1
  O  O51  1  0.775604  0.371729  0.136340  1
  O  O52  1  0.722746  0.627831  0.108112  1
  O  O53  1  0.754489  0.415301  0.098779  1
  O  O54  1  0.750711  0.502140  0.122367  1
  O  O55  1  0.750613  0.212348  0.098697  1
  O  O56  1  0.759338  0.981466  0.142652  1
  O  O57  1  0.740453  0.018092  0.101956  1
  O  O58  1  0.594166  0.061668  0.141379  1
  O  O59  1  0.905697  0.938352  0.103364  1
  O  O60  1  0.000000  0.451504  0.115952  1
  O  O61  1  0.000000  0.665762  0.126304  1
  O  O62  1  0.500044  0.755525  0.128988  1
  O  O63  1  0.327816  0.250898  0.211538  1
  O  O64  1  0.327662  0.749401  0.165675  1
  O  O65  1  0.365779  0.143583  0.186970  1
  O  O66  1  0.365771  0.856741  0.190227  1
  O  O67  1  0.375857  0.048773  0.204563  1
  O  O68  1  0.375836  0.951545  0.172634  1
  O  O69  1  0.327526  0.895817  0.215056  1
  O  O70  1  0.327440  0.104294  0.162125  1
  O  O71  1  0.407128  0.690313  0.145137  1
  O  O72  1  0.407087  0.309549  0.232106  1
  O  O73  1  0.254967  0.415622  0.231273  1
  O  O74  1  0.254720  0.584455  0.145974  1
  O  O75  1  0.250144  0.212622  0.231162  1
  O  O76  1  0.250450  0.787531  0.146022  1
  O  O77  1  0.672513  0.749398  0.165682  1
  O  O78  1  0.672580  0.250676  0.211534  1
  O  O79  1  0.634555  0.856626  0.190249  1
  O  O80  1  0.634553  0.143470  0.186964  1
  O  O81  1  0.500208  0.189687  0.202869  1
  O  O82  1  0.624440  0.951501  0.172647  1
  O  O83  1  0.624521  0.048612  0.204568  1
  O  O84  1  0.672713  0.104178  0.162110  1
  O  O85  1  0.672536  0.895813  0.215116  1
  O  O86  1  0.500159  0.907339  0.206141  1
  O  O87  1  0.592569  0.310407  0.232041  1
  O  O88  1  0.592625  0.690213  0.145163  1
  O  O89  1  0.745142  0.584426  0.145965  1
  O  O90  1  0.745592  0.415383  0.231242  1
  O  O91  1  0.749239  0.787503  0.146000  1
  O  O92  1  0.748774  0.212345  0.231232  1
  O  O93  1  0.500129  0.092905  0.171060  1
  O  O94  1  0.500148  0.810498  0.174337  1
  O  O95  1  0.172595  0.749543  0.298162  1
  O  O96  1  0.134552  0.143634  0.319472  1
  O  O97  1  0.124529  0.951682  0.305136  1
  O  O98  1  0.172514  0.104476  0.294597  1
  O  O99  1  -0.000000  0.093000  0.303581  1
  O  O100  1  0.402731  0.840773  0.268985  1
  O  O101  1  0.096178  0.159221  0.240672  1
  O  O102  1  0.499692  0.666031  0.258751  1
  O  O103  1  0.401632  0.220277  0.266071  1
  O  O104  1  0.097292  0.780498  0.243552  1
  O  O105  1  0.092574  0.689676  0.277658  1
  O  O106  1  0.404141  0.522103  0.267379  1
  O  O107  1  0.096386  0.477208  0.242370  1
  O  O108  1  0.239661  0.187700  0.276035  1
  O  O109  1  0.259349  0.812721  0.233562  1
  O  O110  1  0.251030  0.186402  0.253100  1
  O  O111  1  0.248192  0.813262  0.256479  1
  O  O112  1  0.275556  0.372007  0.268816  1
  O  O113  1  0.222689  0.628097  0.240588  1
  O  O114  1  0.245623  0.584753  0.278459  1
  O  O115  1  0.250818  0.502657  0.254868  1
  O  O116  1  0.248768  0.787782  0.278465  1
  O  O117  1  0.259022  0.981780  0.275130  1
  O  O118  1  0.240136  0.018404  0.234435  1
  O  O119  1  0.093816  0.061766  0.273859  1
  O  O120  1  0.405344  0.938456  0.235845  1
  O  O121  1  -0.000000  0.810565  0.306820  1
  O  O122  1  0.499630  0.845026  0.250259  1
  O  O123  1  0.000000  0.755819  0.261498  1
  O  O124  1  0.499979  0.451646  0.248386  1
  O  O125  1  0.499475  0.056357  0.253481  1
  O  O126  1  0.827803  0.749325  0.298157  1
  O  O127  1  0.865768  0.143524  0.319495  1
  O  O128  1  0.875846  0.951515  0.305140  1
  O  O129  1  0.827546  0.104474  0.294658  1
  O  O130  1  0.000000  0.155120  0.259449  1
  O  O131  1  0.902734  0.159395  0.240721  1
  O  O132  1  0.596180  0.840950  0.269035  1
  O  O133  1  0.000000  0.334111  0.250953  1
  O  O134  1  0.901634  0.779858  0.243635  1
  O  O135  1  0.597297  0.219635  0.266154  1
  O  O136  1  0.907078  0.690536  0.277593  1
  O  O137  1  0.904131  0.478009  0.242320  1
  O  O138  1  0.596376  0.522903  0.267328  1
  O  O139  1  0.739675  0.812444  0.233669  1
  O  O140  1  0.759364  0.187427  0.276143  1
  O  O141  1  0.751022  0.813798  0.256604  1
  O  O142  1  0.748187  0.186938  0.253225  1
  O  O143  1  0.775542  0.628127  0.240892  1
  O  O144  1  0.722675  0.372038  0.269120  1
  O  O145  1  0.754935  0.584517  0.278429  1
  O  O146  1  0.750827  0.497436  0.254834  1
  O  O147  1  0.750148  0.787505  0.278535  1
  O  O148  1  0.759035  0.018396  0.234584  1
  O  O149  1  0.740149  0.981769  0.275279  1
  O  O150  1  0.593820  0.938386  0.235851  1
  O  O151  1  0.905353  0.061699  0.273866  1
  O  O152  1  0.500319  0.244319  0.248206  1
  O  O153  1  0.000000  0.943793  0.256227  1
  O  O154  1  -0.000000  0.548479  0.261312  1
  O  O155  1  0.172434  0.250759  0.344054  1
  O  O156  1  0.134567  0.856693  0.322726  1
  O  O157  1  0.000000  0.907254  0.338621  1
  O  O158  1  0.124510  0.048654  0.337062  1
  O  O159  1  0.172430  0.895639  0.347584  1
  O  O160  1  0.499915  0.154845  0.391955  1
  O  O161  1  0.403170  0.159159  0.373200  1
  O  O162  1  0.096619  0.840704  0.401513  1
  O  O163  1  0.402113  0.780366  0.376101  1
  O  O164  1  0.097775  0.220136  0.398620  1
  O  O165  1  0.000000  0.244010  0.380696  1
  O  O166  1  0.499929  0.943665  0.388758  1
  O  O167  1  0.499950  0.548345  0.393876  1
  O  O168  1  0.092621  0.310201  0.364586  1
  O  O169  1  0.403746  0.477253  0.374927  1
  O  O170  1  0.095979  0.522133  0.399940  1
  O  O171  1  0.240039  0.812478  0.366119  1
  O  O172  1  0.259727  0.187457  0.408593  1
  O  O173  1  0.251304  0.813006  0.389040  1
  O  O174  1  0.248465  0.186148  0.385661  1
  O  O175  1  0.277008  0.627856  0.373144  1
  O  O176  1  0.224142  0.371760  0.401373  1
  O  O177  1  0.245387  0.415321  0.363789  1
  O  O178  1  0.249004  0.501989  0.387377  1
  O  O179  1  0.249069  0.212378  0.363721  1
  O  O180  1  0.259360  0.018167  0.366995  1
  O  O181  1  0.240474  0.981537  0.407690  1
  O  O182  1  0.094097  0.938313  0.368360  1
  O  O183  1  0.405630  0.061629  0.406375  1
  O  O184  1  0.499943  0.333850  0.383506  1
  O  O185  1  0.000000  0.189626  0.335387  1
  O  O186  1  0.827737  0.250754  0.344059  1
  O  O187  1  0.865770  0.856583  0.322720  1
  O  O188  1  0.875767  0.048606  0.337075  1
  O  O189  1  0.827725  0.895522  0.347570  1
  O  O190  1  0.000000  0.844737  0.382765  1
  O  O191  1  0.903152  0.840612  0.401505  1
  O  O192  1  0.596597  0.159064  0.373191  1
  O  O193  1  0.902040  0.220179  0.398603  1
  O  O194  1  0.597701  0.780411  0.376084  1
  O  O195  1  0.000000  0.056217  0.386012  1
  O  O196  1  0.907136  0.310094  0.364613  1
  O  O197  1  0.903846  0.522111  0.399934  1
  O  O198  1  0.596066  0.477226  0.374916  1
  O  O199  1  0.740105  0.187418  0.408567  1
  O  O200  1  0.759795  0.812446  0.366092  1
  O  O201  1  0.751395  0.186034  0.385632  1
  O  O202  1  0.748559  0.812899  0.389011  1
  O  O203  1  0.775604  0.371729  0.401341  1
  O  O204  1  0.722746  0.627831  0.373114  1
  O  O205  1  0.754489  0.415301  0.363780  1
  O  O206  1  0.750711  0.502140  0.387368  1
  O  O207  1  0.750613  0.212348  0.363698  1
  O  O208  1  0.759338  0.981466  0.407653  1
  O  O209  1  0.740453  0.018092  0.366957  1
  O  O210  1  0.594166  0.061668  0.406380  1
  O  O211  1  0.905697  0.938352  0.368365  1
  O  O212  1  0.000000  0.451504  0.380953  1
  O  O213  1  0.000000  0.665762  0.391305  1
  O  O214  1  0.500044  0.755525  0.393989  1
  O  O215  1  0.327816  0.250898  0.476540  1
  O  O216  1  0.327662  0.749401  0.430677  1
  O  O217  1  0.365779  0.143583  0.451971  1
  O  O218  1  0.365771  0.856741  0.455228  1
  O  O219  1  0.375857  0.048773  0.469564  1
  O  O220  1  0.375836  0.951545  0.437635  1
  O  O221  1  0.327526  0.895817  0.480057  1
  O  O222  1  0.327440  0.104294  0.427126  1
  O  O223  1  0.407128  0.690313  0.410138  1
  O  O224  1  0.407087  0.309549  0.497107  1
  O  O225  1  0.254967  0.415622  0.496274  1
  O  O226  1  0.254720  0.584455  0.410976  1
  O  O227  1  0.250144  0.212622  0.496163  1
  O  O228  1  0.250450  0.787531  0.411023  1
  O  O229  1  0.672513  0.749398  0.430683  1
  O  O230  1  0.672580  0.250676  0.476535  1
  O  O231  1  0.634555  0.856626  0.455251  1
  O  O232  1  0.634553  0.143470  0.451965  1
  O  O233  1  0.500208  0.189687  0.467870  1
  O  O234  1  0.624440  0.951501  0.437648  1
  O  O235  1  0.624521  0.048612  0.469569  1
  O  O236  1  0.672713  0.104178  0.427111  1
  O  O237  1  0.672536  0.895813  0.480118  1
  O  O238  1  0.500159  0.907339  0.471142  1
  O  O239  1  0.592569  0.310407  0.497042  1
  O  O240  1  0.592625  0.690213  0.410164  1
  O  O241  1  0.745142  0.584426  0.410967  1
  O  O242  1  0.745592  0.415383  0.496244  1
  O  O243  1  0.749239  0.787503  0.411001  1
  O  O244  1  0.748774  0.212345  0.496233  1
  O  O245  1  0.500129  0.092905  0.436061  1
  O  O246  1  0.500148  0.810498  0.439338  1
  O  O247  1  0.172595  0.749543  0.563163  1
  O  O248  1  0.134552  0.143634  0.584474  1
  O  O249  1  0.124529  0.951682  0.570137  1
  O  O250  1  0.172514  0.104476  0.559598  1
  O  O251  1  -0.000000  0.093000  0.568582  1
  O  O252  1  0.402731  0.840773  0.533986  1
  O  O253  1  0.096178  0.159221  0.505673  1
  O  O254  1  0.499692  0.666031  0.523752  1
  O  O255  1  0.401632  0.220277  0.531072  1
  O  O256  1  0.097292  0.780498  0.508553  1
  O  O257  1  0.092574  0.689676  0.542659  1
  O  O258  1  0.404141  0.522103  0.532380  1
  O  O259  1  0.096386  0.477208  0.507372  1
  O  O260  1  0.239661  0.187700  0.541037  1
  O  O261  1  0.259349  0.812721  0.498563  1
  O  O262  1  0.251030  0.186402  0.518101  1
  O  O263  1  0.248192  0.813262  0.521480  1
  O  O264  1  0.275556  0.372007  0.533817  1
  O  O265  1  0.222689  0.628097  0.505589  1
  O  O266  1  0.245623  0.584753  0.543461  1
  O  O267  1  0.250818  0.502657  0.519869  1
  O  O268  1  0.248768  0.787782  0.543466  1
  O  O269  1  0.259022  0.981780  0.540132  1
  O  O270  1  0.240136  0.018404  0.499436  1
  O  O271  1  0.093816  0.061766  0.538861  1
  O  O272  1  0.405344  0.938456  0.500846  1
  O  O273  1  0.000000  0.810565  0.571821  1
  O  O274  1  0.499630  0.845026  0.515260  1
  O  O275  1  0.000000  0.755819  0.526500  1
  O  O276  1  0.499979  0.451646  0.513387  1
  O  O277  1  0.499475  0.056357  0.518482  1
  O  O278  1  0.827803  0.749325  0.563158  1
  O  O279  1  0.865768  0.143524  0.584496  1
  O  O280  1  0.875846  0.951515  0.570142  1
  O  O281  1  0.827546  0.104474  0.559659  1
  O  O282  1  0.000000  0.155120  0.524450  1
  O  O283  1  0.902734  0.159395  0.505722  1
  O  O284  1  0.596180  0.840950  0.534036  1
  O  O285  1  0.000000  0.334111  0.515955  1
  O  O286  1  0.901634  0.779858  0.508636  1
  O  O287  1  0.597297  0.219635  0.531155  1
  O  O288  1  0.907078  0.690536  0.542594  1
  O  O289  1  0.904131  0.478009  0.507321  1
  O  O290  1  0.596376  0.522903  0.532330  1
  O  O291  1  0.739675  0.812444  0.498671  1
  O  O292  1  0.759364  0.187427  0.541144  1
  O  O293  1  0.751022  0.813798  0.521605  1
  O  O294  1  0.748187  0.186938  0.518226  1
  O  O295  1  0.775542  0.628127  0.505893  1
  O  O296  1  0.722675  0.372038  0.534121  1
  O  O297  1  0.754935  0.584517  0.543430  1
  O  O298  1  0.750827  0.497436  0.519836  1
  O  O299  1  0.750148  0.787505  0.543536  1
  O  O300  1  0.759035  0.018396  0.499586  1
  O  O301  1  0.740149  0.981769  0.540280  1
  O  O302  1  0.593820  0.938386  0.500852  1
  O  O303  1  0.905353  0.061699  0.538867  1
  O  O304  1  0.500319  0.244319  0.513207  1
  O  O305  1  -0.000000  0.943793  0.521228  1
  O  O306  1  -0.000000  0.548479  0.526313  1
  O  O307  1  0.172434  0.250759  0.609055  1
  O  O308  1  0.134567  0.856693  0.587727  1
  O  O309  1  -0.000000  0.907254  0.603622  1
  O  O310  1  0.124510  0.048654  0.602063  1
  O  O311  1  0.172430  0.895639  0.612585  1
  O  O312  1  0.499915  0.154845  0.656956  1
  O  O313  1  0.403170  0.159159  0.638201  1
  O  O314  1  0.096619  0.840704  0.666515  1
  O  O315  1  0.402113  0.780366  0.641102  1
  O  O316  1  0.097775  0.220136  0.663621  1
  O  O317  1  -0.000000  0.244010  0.645697  1
  O  O318  1  0.499929  0.943665  0.653760  1
  O  O319  1  0.499950  0.548345  0.658877  1
  O  O320  1  0.092621  0.310201  0.629588  1
  O  O321  1  0.403746  0.477253  0.639928  1
  O  O322  1  0.095979  0.522133  0.664941  1
  O  O323  1  0.240039  0.812478  0.631120  1
  O  O324  1  0.259727  0.187457  0.673594  1
  O  O325  1  0.251304  0.813006  0.654041  1
  O  O326  1  0.248465  0.186148  0.650662  1
  O  O327  1  0.277008  0.627856  0.638146  1
  O  O328  1  0.224142  0.371760  0.666374  1
  O  O329  1  0.245387  0.415321  0.628791  1
  O  O330  1  0.249004  0.501989  0.652378  1
  O  O331  1  0.249069  0.212378  0.628722  1
  O  O332  1  0.259360  0.018167  0.631996  1
  O  O333  1  0.240474  0.981537  0.672691  1
  O  O334  1  0.094097  0.938313  0.633362  1
  O  O335  1  0.405630  0.061629  0.671376  1
  O  O336  1  0.499943  0.333850  0.648507  1
  O  O337  1  -0.000000  0.189626  0.600388  1
  O  O338  1  0.827737  0.250754  0.609061  1
  O  O339  1  0.865770  0.856583  0.587721  1
  O  O340  1  0.875767  0.048606  0.602076  1
  O  O341  1  0.827725  0.895522  0.612571  1
  O  O342  1  0.000000  0.844737  0.647766  1
  O  O343  1  0.903152  0.840612  0.666506  1
  O  O344  1  0.596597  0.159064  0.638192  1
  O  O345  1  0.902040  0.220179  0.663604  1
  O  O346  1  0.597701  0.780411  0.641085  1
  O  O347  1  0.000000  0.056217  0.651014  1
  O  O348  1  0.907136  0.310094  0.629614  1
  O  O349  1  0.903846  0.522111  0.664936  1
  O  O350  1  0.596066  0.477226  0.639918  1
  O  O351  1  0.740105  0.187418  0.673568  1
  O  O352  1  0.759795  0.812446  0.631094  1
  O  O353  1  0.751395  0.186034  0.650633  1
  O  O354  1  0.748559  0.812899  0.654013  1
  O  O355  1  0.775604  0.371729  0.666343  1
  O  O356  1  0.722746  0.627831  0.638115  1
  O  O357  1  0.754489  0.415301  0.628781  1
  O  O358  1  0.750711  0.502140  0.652370  1
  O  O359  1  0.750613  0.212348  0.628699  1
  O  O360  1  0.759338  0.981466  0.672654  1
  O  O361  1  0.740453  0.018092  0.631958  1
  O  O362  1  0.594166  0.061668  0.671381  1
  O  O363  1  0.905697  0.938352  0.633367  1
  O  O364  1  0.000000  0.451504  0.645954  1
  O  O365  1  0.000000  0.665762  0.656307  1
  O  O366  1  0.500044  0.755525  0.658990  1
  O  O367  1  0.327816  0.250898  0.741541  1
  O  O368  1  0.327662  0.749401  0.695678  1
  O  O369  1  0.365779  0.143583  0.716972  1
  O  O370  1  0.365771  0.856741  0.720229  1
  O  O371  1  0.375857  0.048773  0.734566  1
  O  O372  1  0.375836  0.951545  0.702636  1
  O  O373  1  0.327526  0.895817  0.745059  1
  O  O374  1  0.327440  0.104294  0.692127  1
  O  O375  1  0.407128  0.690313  0.675139  1
  O  O376  1  0.407087  0.309549  0.762109  1
  O  O377  1  0.254967  0.415622  0.761275  1
  O  O378  1  0.254720  0.584455  0.675977  1
  O  O379  1  0.250144  0.212622  0.761164  1
  O  O380  1  0.250450  0.787531  0.676024  1
  O  O381  1  0.672513  0.749398  0.695685  1
  O  O382  1  0.672580  0.250676  0.741536  1
  O  O383  1  0.634555  0.856626  0.720252  1
  O  O384  1  0.634553  0.143470  0.716966  1
  O  O385  1  0.500208  0.189687  0.732871  1
  O  O386  1  0.624440  0.951501  0.702649  1
  O  O387  1  0.624521  0.048612  0.734570  1
  O  O388  1  0.672713  0.104178  0.692113  1
  O  O389  1  0.672536  0.895813  0.745119  1
  O  O390  1  0.500159  0.907339  0.736143  1
  O  O391  1  0.592569  0.310407  0.762044  1
  O  O392  1  0.592625  0.690213  0.675166  1
  O  O393  1  0.745142  0.584426  0.675968  1
  O  O394  1  0.745592  0.415383  0.761245  1
  O  O395  1  0.749239  0.787503  0.676002  1
  O  O396  1  0.748774  0.212345  0.761234  1
  O  O397  1  0.500129  0.092905  0.701062  1
  O  O398  1  0.500148  0.810498  0.704340  1
  O  O399  1  0.172595  0.749543  0.828164  1
  O  O400  1  0.134552  0.143634  0.849475  1
  O  O401  1  0.124529  0.951682  0.835139  1
  O  O402  1  0.172514  0.104476  0.824600  1
  O  O403  1  -0.000000  0.093000  0.833583  1
  O  O404  1  0.402731  0.840773  0.798987  1
  O  O405  1  0.096178  0.159221  0.770674  1
  O  O406  1  0.499692  0.666031  0.788753  1
  O  O407  1  0.401632  0.220277  0.796074  1
  O  O408  1  0.097292  0.780498  0.773554  1
  O  O409  1  0.092574  0.689676  0.807660  1
  O  O410  1  0.404141  0.522103  0.797382  1
  O  O411  1  0.096386  0.477208  0.772373  1
  O  O412  1  0.239661  0.187700  0.806038  1
  O  O413  1  0.259349  0.812721  0.763564  1
  O  O414  1  0.251030  0.186402  0.783102  1
  O  O415  1  0.248192  0.813262  0.786481  1
  O  O416  1  0.275556  0.372007  0.798818  1
  O  O417  1  0.222689  0.628097  0.770590  1
  O  O418  1  0.245623  0.584753  0.808462  1
  O  O419  1  0.250818  0.502657  0.784871  1
  O  O420  1  0.248768  0.787782  0.808467  1
  O  O421  1  0.259022  0.981780  0.805133  1
  O  O422  1  0.240136  0.018404  0.764438  1
  O  O423  1  0.093816  0.061766  0.803862  1
  O  O424  1  0.405344  0.938456  0.765847  1
  O  O425  1  0.000000  0.810565  0.836822  1
  O  O426  1  0.499630  0.845026  0.780262  1
  O  O427  1  0.000000  0.755819  0.791501  1
  O  O428  1  0.499979  0.451646  0.778388  1
  O  O429  1  0.499475  0.056357  0.783483  1
  O  O430  1  0.827803  0.749325  0.828159  1
  O  O431  1  0.865768  0.143524  0.849497  1
  O  O432  1  0.875846  0.951515  0.835143  1
  O  O433  1  0.827546  0.104474  0.824661  1
  O  O434  1  -0.000000  0.155120  0.789451  1
  O  O435  1  0.902734  0.159395  0.770724  1
  O  O436  1  0.596180  0.840950  0.799037  1
  O  O437  1  0.000000  0.334111  0.780956  1
  O  O438  1  0.901634  0.779858  0.773637  1
  O  O439  1  0.597297  0.219635  0.796157  1
  O  O440  1  0.907078  0.690536  0.807595  1
  O  O441  1  0.904131  0.478009  0.772322  1
  O  O442  1  0.596376  0.522903  0.797331  1
  O  O443  1  0.739675  0.812444  0.763672  1
  O  O444  1  0.759364  0.187427  0.806145  1
  O  O445  1  0.751022  0.813798  0.786607  1
  O  O446  1  0.748187  0.186938  0.783228  1
  O  O447  1  0.775542  0.628127  0.770895  1
  O  O448  1  0.722675  0.372038  0.799122  1
  O  O449  1  0.754935  0.584517  0.808431  1
  O  O450  1  0.750827  0.497436  0.784837  1
  O  O451  1  0.750148  0.787505  0.808537  1
  O  O452  1  0.759035  0.018396  0.764587  1
  O  O453  1  0.740149  0.981769  0.805281  1
  O  O454  1  0.593820  0.938386  0.765854  1
  O  O455  1  0.905353  0.061699  0.803869  1
  O  O456  1  0.500319  0.244319  0.778208  1
  O  O457  1  0.000000  0.943793  0.786230  1
  O  O458  1  -0.000000  0.548479  0.791314  1
  O  O459  1  0.134567  0.856693  0.852728  1
  O  O460  1  0.865770  0.856583  0.852722  1
  Si  Si461  1  0.499908  0.058346  0.133690  1
  Si  Si462  1  0.499927  0.454387  0.116388  1
  Si  Si463  1  0.499910  0.202973  0.115195  1
  Si  Si464  1  0.194218  0.300017  0.093454  1
  Si  Si465  1  0.111415  0.163621  0.068845  1
  Si  Si466  1  0.111427  0.922507  0.071656  1
  Si  Si467  1  0.290290  0.756934  0.110710  1
  Si  Si468  1  0.209727  0.242977  0.133973  1
  Si  Si469  1  0.293459  0.506991  0.109610  1
  Si  Si470  1  0.206619  0.493063  0.135114  1
  Si  Si471  1  0.290498  0.142377  0.107285  1
  Si  Si472  1  0.209308  0.857295  0.137413  1
  Si  Si473  1  0.194453  0.912863  0.096903  1
  Si  Si474  1  0.499937  0.814732  0.118164  1
  Si  Si475  1  0.499941  0.670715  0.137166  1
  Si  Si476  1  0.000000  0.941539  0.111064  1
  Si  Si477  1  0.888877  0.163610  0.068867  1
  Si  Si478  1  0.888831  0.922414  0.071649  1
  Si  Si479  1  0.790078  0.242942  0.133946  1
  Si  Si480  1  0.709518  0.756912  0.110683  1
  Si  Si481  1  0.793192  0.493060  0.135095  1
  Si  Si482  1  0.706342  0.506991  0.109591  1
  Si  Si483  1  0.790459  0.857199  0.137389  1
  Si  Si484  1  0.709267  0.142276  0.107260  1
  Si  Si485  1  0.805441  0.912823  0.096884  1
  Si  Si486  1  0.805653  0.299987  0.093452  1
  Si  Si487  1  0.000000  0.796607  0.129527  1
  Si  Si488  1  0.000000  0.329422  0.107590  1
  Si  Si489  1  0.000000  0.545297  0.128453  1
  Si  Si490  1  0.000000  0.185287  0.126559  1
  Si  Si491  1  0.305587  0.700030  0.151282  1
  Si  Si492  1  0.305675  0.300051  0.225933  1
  Si  Si493  1  0.388925  0.163725  0.201344  1
  Si  Si494  1  0.388873  0.836593  0.175855  1
  Si  Si495  1  0.388885  0.922614  0.204154  1
  Si  Si496  1  0.388828  0.077686  0.173038  1
  Si  Si497  1  0.305073  0.913099  0.229365  1
  Si  Si498  1  0.305191  0.086973  0.147806  1
  Si  Si499  1  0.611415  0.836579  0.175875  1
  Si  Si500  1  0.611467  0.163532  0.201339  1
  Si  Si501  1  0.611428  0.077607  0.173033  1
  Si  Si502  1  0.611481  0.922509  0.204181  1
  Si  Si503  1  0.694704  0.086933  0.147786  1
  Si  Si504  1  0.694354  0.912967  0.229444  1
  Si  Si505  1  0.694276  0.700015  0.151280  1
  Si  Si506  1  0.694286  0.300047  0.225936  1
  Si  Si507  1  0.499577  0.185361  0.259050  1
  Si  Si508  1  0.194301  0.700079  0.283761  1
  Si  Si509  1  0.499561  0.796893  0.262019  1
  Si  Si510  1  0.194334  0.087209  0.280269  1
  Si  Si511  1  0.111465  0.836714  0.308353  1
  Si  Si512  1  0.111485  0.077819  0.305537  1
  Si  Si513  1  0.289720  0.243182  0.266418  1
  Si  Si514  1  0.209155  0.757137  0.243155  1
  Si  Si515  1  0.293453  0.493304  0.267579  1
  Si  Si516  1  0.206618  0.507237  0.242076  1
  Si  Si517  1  0.290050  0.857483  0.269861  1
  Si  Si518  1  0.208860  0.142559  0.239732  1
  Si  Si519  1  0.499568  0.941675  0.243542  1
  Si  Si520  1  0.000000  0.454602  0.248818  1
  Si  Si521  1  0.499987  0.329406  0.240062  1
  Si  Si522  1  0.000000  0.058472  0.266167  1
  Si  Si523  1  0.500070  0.545521  0.260880  1
  Si  Si524  1  0.000000  0.203253  0.247688  1
  Si  Si525  1  0.000000  0.814794  0.250656  1
  Si  Si526  1  0.888924  0.836524  0.308350  1
  Si  Si527  1  0.888879  0.077701  0.305561  1
  Si  Si528  1  0.789719  0.756954  0.243288  1
  Si  Si529  1  0.709155  0.243003  0.266551  1
  Si  Si530  1  0.793442  0.506817  0.242124  1
  Si  Si531  1  0.706608  0.492888  0.267627  1
  Si  Si532  1  0.790054  0.142707  0.239843  1
  Si  Si533  1  0.708862  0.857629  0.269972  1
  Si  Si534  1  0.805100  0.087075  0.280349  1
  Si  Si535  1  0.805653  0.700068  0.283763  1
  Si  Si536  1  0.000000  0.670703  0.269638  1
  Si  Si537  1  0.499908  0.058346  0.398691  1
  Si  Si538  1  0.499927  0.454387  0.381390  1
  Si  Si539  1  0.499910  0.202973  0.380196  1
  Si  Si540  1  0.194218  0.300017  0.358456  1
  Si  Si541  1  0.111415  0.163621  0.333847  1
  Si  Si542  1  0.111427  0.922507  0.336657  1
  Si  Si543  1  0.290290  0.756934  0.375712  1
  Si  Si544  1  0.209727  0.242977  0.398975  1
  Si  Si545  1  0.293459  0.506991  0.374611  1
  Si  Si546  1  0.206619  0.493063  0.400115  1
  Si  Si547  1  0.290498  0.142377  0.372286  1
  Si  Si548  1  0.209308  0.857295  0.402414  1
  Si  Si549  1  0.194453  0.912863  0.361904  1
  Si  Si550  1  0.499937  0.814732  0.383166  1
  Si  Si551  1  0.499941  0.670715  0.402167  1
  Si  Si552  1  0.000000  0.941539  0.376065  1
  Si  Si553  1  0.888877  0.163610  0.333868  1
  Si  Si554  1  0.888831  0.922414  0.336650  1
  Si  Si555  1  0.790078  0.242942  0.398947  1
  Si  Si556  1  0.709518  0.756912  0.375684  1
  Si  Si557  1  0.793192  0.493060  0.400097  1
  Si  Si558  1  0.706342  0.506991  0.374593  1
  Si  Si559  1  0.790459  0.857199  0.402390  1
  Si  Si560  1  0.709267  0.142276  0.372262  1
  Si  Si561  1  0.805441  0.912823  0.361885  1
  Si  Si562  1  0.805653  0.299987  0.358453  1
  Si  Si563  1  0.000000  0.796607  0.394528  1
  Si  Si564  1  0.000000  0.329422  0.372592  1
  Si  Si565  1  0.000000  0.545297  0.393454  1
  Si  Si566  1  0.000000  0.185287  0.391560  1
  Si  Si567  1  0.305587  0.700030  0.416283  1
  Si  Si568  1  0.305675  0.300051  0.490935  1
  Si  Si569  1  0.388925  0.163725  0.466345  1
  Si  Si570  1  0.388873  0.836593  0.440856  1
  Si  Si571  1  0.388885  0.922614  0.469156  1
  Si  Si572  1  0.388828  0.077686  0.438039  1
  Si  Si573  1  0.305073  0.913099  0.494366  1
  Si  Si574  1  0.305191  0.086973  0.412807  1
  Si  Si575  1  0.611415  0.836579  0.440876  1
  Si  Si576  1  0.611467  0.163532  0.466340  1
  Si  Si577  1  0.611428  0.077607  0.438034  1
  Si  Si578  1  0.611481  0.922509  0.469182  1
  Si  Si579  1  0.694704  0.086933  0.412788  1
  Si  Si580  1  0.694354  0.912967  0.494446  1
  Si  Si581  1  0.694276  0.700015  0.416282  1
  Si  Si582  1  0.694286  0.300047  0.490937  1
  Si  Si583  1  0.499577  0.185361  0.524052  1
  Si  Si584  1  0.194301  0.700079  0.548762  1
  Si  Si585  1  0.499561  0.796893  0.527021  1
  Si  Si586  1  0.194334  0.087209  0.545270  1
  Si  Si587  1  0.111465  0.836714  0.573354  1
  Si  Si588  1  0.111485  0.077819  0.570538  1
  Si  Si589  1  0.289720  0.243182  0.531419  1
  Si  Si590  1  0.209155  0.757137  0.508156  1
  Si  Si591  1  0.293453  0.493304  0.532580  1
  Si  Si592  1  0.206618  0.507237  0.507077  1
  Si  Si593  1  0.290050  0.857483  0.534862  1
  Si  Si594  1  0.208860  0.142559  0.504734  1
  Si  Si595  1  0.499568  0.941675  0.508543  1
  Si  Si596  1  0.000000  0.454602  0.513820  1
  Si  Si597  1  0.499987  0.329406  0.505063  1
  Si  Si598  1  0.000000  0.058472  0.531168  1
  Si  Si599  1  0.500070  0.545521  0.525881  1
  Si  Si600  1  0.000000  0.203253  0.512690  1
  Si  Si601  1  0.000000  0.814794  0.515657  1
  Si  Si602  1  0.888924  0.836524  0.573351  1
  Si  Si603  1  0.888879  0.077701  0.570562  1
  Si  Si604  1  0.789719  0.756954  0.508289  1
  Si  Si605  1  0.709155  0.243003  0.531552  1
  Si  Si606  1  0.793442  0.506817  0.507125  1
  Si  Si607  1  0.706608  0.492888  0.532628  1
  Si  Si608  1  0.790054  0.142707  0.504844  1
  Si  Si609  1  0.708862  0.857629  0.534973  1
  Si  Si610  1  0.805100  0.087075  0.545350  1
  Si  Si611  1  0.805653  0.700068  0.548764  1
  Si  Si612  1  0.000000  0.670703  0.534640  1
  Si  Si613  1  0.499908  0.058346  0.663692  1
  Si  Si614  1  0.499927  0.454387  0.646391  1
  Si  Si615  1  0.499910  0.202973  0.645198  1
  Si  Si616  1  0.194218  0.300017  0.623457  1
  Si  Si617  1  0.111415  0.163621  0.598848  1
  Si  Si618  1  0.111427  0.922507  0.601658  1
  Si  Si619  1  0.290290  0.756934  0.640713  1
  Si  Si620  1  0.209727  0.242977  0.663976  1
  Si  Si621  1  0.293459  0.506991  0.639612  1
  Si  Si622  1  0.206619  0.493063  0.665116  1
  Si  Si623  1  0.290498  0.142377  0.637287  1
  Si  Si624  1  0.209308  0.857295  0.667416  1
  Si  Si625  1  0.194453  0.912863  0.626906  1
  Si  Si626  1  0.499937  0.814732  0.648167  1
  Si  Si627  1  0.499941  0.670715  0.667168  1
  Si  Si628  1  -0.000000  0.941539  0.641066  1
  Si  Si629  1  0.888877  0.163610  0.598870  1
  Si  Si630  1  0.888831  0.922414  0.601651  1
  Si  Si631  1  0.790078  0.242942  0.663948  1
  Si  Si632  1  0.709518  0.756912  0.640686  1
  Si  Si633  1  0.793192  0.493060  0.665098  1
  Si  Si634  1  0.706342  0.506991  0.639594  1
  Si  Si635  1  0.790459  0.857199  0.667392  1
  Si  Si636  1  0.709267  0.142276  0.637263  1
  Si  Si637  1  0.805441  0.912823  0.626886  1
  Si  Si638  1  0.805653  0.299987  0.623454  1
  Si  Si639  1  0.000000  0.796607  0.659529  1
  Si  Si640  1  0.000000  0.329422  0.637593  1
  Si  Si641  1  0.000000  0.545297  0.658456  1
  Si  Si642  1  0.000000  0.185287  0.656561  1
  Si  Si643  1  0.305587  0.700030  0.681285  1
  Si  Si644  1  0.305675  0.300051  0.755936  1
  Si  Si645  1  0.388925  0.163725  0.731347  1
  Si  Si646  1  0.388873  0.836593  0.705858  1
  Si  Si647  1  0.388885  0.922614  0.734157  1
  Si  Si648  1  0.388828  0.077686  0.703040  1
  Si  Si649  1  0.305073  0.913099  0.759367  1
  Si  Si650  1  0.305191  0.086973  0.677809  1
  Si  Si651  1  0.611415  0.836579  0.705878  1
  Si  Si652  1  0.611467  0.163532  0.731342  1
  Si  Si653  1  0.611428  0.077607  0.703036  1
  Si  Si654  1  0.611481  0.922509  0.734183  1
  Si  Si655  1  0.694704  0.086933  0.677789  1
  Si  Si656  1  0.694354  0.912967  0.759447  1
  Si  Si657  1  0.694276  0.700015  0.681283  1
  Si  Si658  1  0.694286  0.300047  0.755938  1
  Si  Si659  1  0.499577  0.185361  0.789053  1
  Si  Si660  1  0.194301  0.700079  0.813764  1
  Si  Si661  1  0.499561  0.796893  0.792022  1
  Si  Si662  1  0.194334  0.087209  0.810271  1
  Si  Si663  1  0.111465  0.836714  0.838355  1
  Si  Si664  1  0.111485  0.077819  0.835539  1
  Si  Si665  1  0.289720  0.243182  0.796420  1
  Si  Si666  1  0.209155  0.757137  0.773157  1
  Si  Si667  1  0.293453  0.493304  0.797581  1
  Si  Si668  1  0.206618  0.507237  0.772078  1
  Si  Si669  1  0.290050  0.857483  0.799864  1
  Si  Si670  1  0.208860  0.142559  0.769735  1
  Si  Si671  1  0.499568  0.941675  0.773544  1
  Si  Si672  1  0.000000  0.454602  0.778821  1
  Si  Si673  1  0.499987  0.329406  0.770064  1
  Si  Si674  1  0.000000  0.058472  0.796170  1
  Si  Si675  1  0.500070  0.545521  0.790883  1
  Si  Si676  1  0.000000  0.203253  0.777691  1
  Si  Si677  1  0.000000  0.814794  0.780658  1
  Si  Si678  1  0.888924  0.836524  0.838352  1
  Si  Si679  1  0.888879  0.077701  0.835564  1
  Si  Si680  1  0.789719  0.756954  0.773291  1
  Si  Si681  1  0.709155  0.243003  0.796553  1
  Si  Si682  1  0.793442  0.506817  0.772126  1
  Si  Si683  1  0.706608  0.492888  0.797630  1
  Si  Si684  1  0.790054  0.142707  0.769846  1
  Si  Si685  1  0.708862  0.857629  0.799975  1
  Si  Si686  1  0.805100  0.087075  0.810352  1
  Si  Si687  1  0.805653  0.700068  0.813765  1
  Si  Si688  1  0.000000  0.670703  0.799641  1
  H  H689  1  0.134552  0.143634  0.046400  1
  H  H690  1  0.865768  0.143524  0.046423  1
  H  H691  1  0.134567  0.856693  0.049654  1
  H  H692  1  0.865770  0.856583  0.049648  1
  H  H693  1  0.134552  0.143634  0.857546  1
  H  H694  1  0.865768  0.143524  0.857568  1
  H  H695  1  0.134567  0.856693  0.860799  1
  H  H696  1  0.865770  0.856583  0.860793  1
