# generated using pymatgen
data_Si20H2O41
_symmetry_space_group_name_H-M   'P 1'
_cell_length_a   13.14980435
_cell_length_b   9.70786557
_cell_length_c   44.30382447
_cell_angle_alpha   108.36700000
_cell_angle_beta   90.00000000
_cell_angle_gamma   90.00000000
_symmetry_Int_Tables_number   1
_chemical_formula_structural   Si20H2O41
_chemical_formula_sum   'Si40 H4 O82'
_cell_volume   5367.55939973
_cell_formula_units_Z   2
loop_
 _symmetry_equiv_pos_site_id
 _symmetry_equiv_pos_as_xyz
  1  'x, y, z'
loop_
 _atom_site_type_symbol
 _atom_site_label
 _atom_site_symmetry_multiplicity
 _atom_site_fract_x
 _atom_site_fract_y
 _atom_site_fract_z
 _atom_site_occupancy
  O  O1  1  0.134741  0.204553  0.464759  1
  O  O2  1  0.634762  0.204476  0.222898  1
  O  O3  1  0.134761  0.795676  0.297412  1
  O  O4  1  0.634742  0.795765  0.539271  1
  O  O5  1  0.864964  0.795693  0.297412  1
  O  O6  1  0.364944  0.795766  0.539272  1
  O  O7  1  0.864945  0.204550  0.464757  1
  O  O8  1  0.364963  0.204463  0.222899  1
  O  O9  1  0.000000  0.122068  0.497356  1
  O  O10  1  0.499864  0.122006  0.255499  1
  O  O11  1  0.000000  0.878168  0.264814  1
  O  O12  1  0.499841  0.878229  0.506671  1
  O  O13  1  0.191583  0.175433  0.517903  1
  O  O14  1  0.691600  0.175368  0.276045  1
  O  O15  1  0.191604  0.824800  0.244269  1
  O  O16  1  0.691579  0.824871  0.486124  1
  O  O17  1  0.808125  0.824811  0.244268  1
  O  O18  1  0.308105  0.824872  0.486125  1
  O  O19  1  0.808103  0.175428  0.517901  1
  O  O20  1  0.308126  0.175361  0.276047  1
  O  O21  1  0.147748  0.948123  0.472721  1
  O  O22  1  0.647764  0.948055  0.230864  1
  O  O23  1  0.147771  0.052108  0.289452  1
  O  O24  1  0.647742  0.052185  0.531305  1
  O  O25  1  0.851959  0.052121  0.289450  1
  O  O26  1  0.351943  0.052186  0.531306  1
  O  O27  1  0.851938  0.948119  0.472719  1
  O  O28  1  0.351965  0.948045  0.230866  1
  O  O29  1  0.207049  0.643058  0.539209  1
  O  O30  1  0.707072  0.642967  0.297347  1
  O  O31  1  0.207070  0.357173  0.222963  1
  O  O32  1  0.707051  0.357273  0.464822  1
  O  O33  1  0.792661  0.357184  0.222962  1
  O  O34  1  0.292635  0.357276  0.464824  1
  O  O35  1  0.792639  0.643057  0.539207  1
  O  O36  1  0.292657  0.642953  0.297348  1
  O  O37  1  0.136421  0.740970  0.496835  1
  O  O38  1  0.636440  0.740895  0.254977  1
  O  O39  1  0.136441  0.259260  0.265338  1
  O  O40  1  0.636419  0.259346  0.507192  1
  O  O41  1  0.863285  0.259274  0.265337  1
  O  O42  1  0.363267  0.259348  0.507193  1
  O  O43  1  0.863265  0.740967  0.496832  1
  O  O44  1  0.363287  0.740882  0.254979  1
  O  O45  1  0.000000  0.639609  0.525742  1
  O  O46  1  0.499866  0.639504  0.283882  1
  O  O47  1  0.000000  0.360627  0.236429  1
  O  O48  1  0.499842  0.360731  0.478288  1
  O  O49  1  0.129612  0.473343  0.489271  1
  O  O50  1  0.629638  0.473261  0.247407  1
  O  O51  1  0.129634  0.526887  0.272901  1
  O  O52  1  0.629615  0.526981  0.514762  1
  O  O53  1  0.870098  0.526902  0.272900  1
  O  O54  1  0.370072  0.526983  0.514763  1
  O  O55  1  0.870075  0.473339  0.489269  1
  O  O56  1  0.370094  0.473247  0.247408  1
  O  O57  1  0.858464  0.404640  0.430636  1
  O  O58  1  0.358477  0.404559  0.188776  1
  O  O59  1  0.858483  0.595600  0.331533  1
  O  O60  1  0.358459  0.595672  0.573395  1
  O  O61  1  0.141240  0.595587  0.331534  1
  O  O62  1  0.641234  0.595672  0.573394  1
  O  O63  1  0.141220  0.404643  0.430638  1
  O  O64  1  0.641253  0.404569  0.188775  1
  O  O65  1  0.177282  0.673962  0.439344  1
  O  O66  1  0.677301  0.673899  0.197488  1
  O  O67  1  0.177299  0.326268  0.322828  1
  O  O68  1  0.677285  0.326342  0.564681  1
  O  O69  1  0.822417  0.326280  0.322826  1
  O  O70  1  0.322409  0.326343  0.564682  1
  O  O71  1  0.822402  0.673959  0.439343  1
  O  O72  1  0.322424  0.673889  0.197490  1
  O  O73  1  0.142654  0.500115  0.381086  1
  O  O74  1  0.642655  0.500121  0.139229  1
  O  O75  1  0.857046  0.500119  0.381084  1
  O  O76  1  0.357056  0.500117  0.139231  1
  O  O77  1  0.000000  0.566745  0.421864  1
  O  O78  1  0.499862  0.566672  0.180011  1
  O  O79  1  0.000000  0.433490  0.340306  1
  O  O80  1  0.499849  0.433564  0.582160  1
  O  O81  1  0.642655  0.500121  0.622939  1
  O  O82  1  0.357056  0.500117  0.622941  1
  Si  Si83  1  0.116827  0.112436  0.488402  1
  Si  Si84  1  0.616846  0.112368  0.246543  1
  Si  Si85  1  0.116847  0.887798  0.273771  1
  Si  Si86  1  0.616825  0.887870  0.515626  1
  Si  Si87  1  0.882881  0.887809  0.273769  1
  Si  Si88  1  0.382859  0.887873  0.515627  1
  Si  Si89  1  0.882860  0.112431  0.488400  1
  Si  Si90  1  0.382879  0.112360  0.246545  1
  Si  Si91  1  0.115875  0.627315  0.514974  1
  Si  Si92  1  0.615896  0.627225  0.273113  1
  Si  Si93  1  0.115896  0.372914  0.247198  1
  Si  Si94  1  0.615875  0.373016  0.489056  1
  Si  Si95  1  0.883834  0.372928  0.247197  1
  Si  Si96  1  0.383811  0.373017  0.489057  1
  Si  Si97  1  0.883811  0.627313  0.514972  1
  Si  Si98  1  0.383834  0.627213  0.273114  1
  Si  Si99  1  0.826835  0.350235  0.459480  1
  Si  Si100  1  0.326853  0.350145  0.217619  1
  Si  Si101  1  0.826856  0.650006  0.302690  1
  Si  Si102  1  0.326832  0.650086  0.544553  1
  Si  Si103  1  0.172873  0.649992  0.302691  1
  Si  Si104  1  0.672856  0.650086  0.544551  1
  Si  Si105  1  0.172851  0.350238  0.459481  1
  Si  Si106  1  0.672878  0.350155  0.217618  1
  Si  Si107  1  0.117454  0.536135  0.417485  1
  Si  Si108  1  0.617473  0.536078  0.175627  1
  Si  Si109  1  0.117468  0.464093  0.344686  1
  Si  Si110  1  0.617459  0.464164  0.586542  1
  Si  Si111  1  0.882247  0.464104  0.344686  1
  Si  Si112  1  0.382239  0.464163  0.586543  1
  Si  Si113  1  0.882234  0.536135  0.417484  1
  Si  Si114  1  0.382252  0.536069  0.175628  1
  Si  Si115  1  0.804061  0.798102  0.472144  1
  Si  Si116  1  0.304087  0.798029  0.230291  1
  Si  Si117  1  0.804081  0.202137  0.290025  1
  Si  Si118  1  0.304067  0.202204  0.531881  1
  Si  Si119  1  0.195644  0.202127  0.290027  1
  Si  Si120  1  0.695620  0.202200  0.531880  1
  Si  Si121  1  0.195623  0.798105  0.472145  1
  Si  Si122  1  0.695641  0.798039  0.230289  1
  H  H123  1  0.642655  0.500121  0.118915  1
  H  H124  1  0.357056  0.500117  0.118917  1
  H  H125  1  0.642655  0.500121  0.643253  1
  H  H126  1  0.357056  0.500117  0.643255  1
