# generated using pymatgen
data_Si36H2O73
_symmetry_space_group_name_H-M   'P 1'
_cell_length_a   13.87556409
_cell_length_b   12.44431264
_cell_length_c   76.48115689
_cell_angle_alpha   104.91000000
_cell_angle_beta   90.00000000
_cell_angle_gamma   90.00000000
_symmetry_Int_Tables_number   1
_chemical_formula_structural   Si36H2O73
_chemical_formula_sum   'Si144 H8 O292'
_cell_volume   12761.5082506
_cell_formula_units_Z   4
loop_
 _symmetry_equiv_pos_site_id
 _symmetry_equiv_pos_as_xyz
  1  'x, y, z'
loop_
 _atom_site_type_symbol
 _atom_site_label
 _atom_site_symmetry_multiplicity
 _atom_site_fract_x
 _atom_site_fract_y
 _atom_site_fract_z
 _atom_site_occupancy
  O  O1  1  0.172434  0.250759  0.079421  1
  O  O2  1  0.172430  0.895639  0.084568  1
  O  O3  1  0.499915  0.154845  0.149262  1
  O  O4  1  0.403170  0.159159  0.121917  1
  O  O5  1  0.096619  0.840704  0.163199  1
  O  O6  1  0.402113  0.780366  0.126146  1
  O  O7  1  0.097775  0.220136  0.158980  1
  O  O8  1  0.000000  0.244010  0.132846  1
  O  O9  1  0.499929  0.943665  0.144601  1
  O  O10  1  0.499950  0.548345  0.152063  1
  O  O11  1  0.092621  0.310201  0.109358  1
  O  O12  1  0.403746  0.477253  0.124434  1
  O  O13  1  0.095979  0.522133  0.160904  1
  O  O14  1  0.240039  0.812478  0.111592  1
  O  O15  1  0.259727  0.187457  0.173520  1
  O  O16  1  0.251304  0.813006  0.145012  1
  O  O17  1  0.248465  0.186148  0.140085  1
  O  O18  1  0.277008  0.627856  0.121836  1
  O  O19  1  0.224142  0.371760  0.162993  1
  O  O20  1  0.245387  0.415321  0.108196  1
  O  O21  1  0.249004  0.501989  0.142588  1
  O  O22  1  0.249069  0.212378  0.108096  1
  O  O23  1  0.259360  0.018167  0.112869  1
  O  O24  1  0.240474  0.981537  0.172204  1
  O  O25  1  0.094097  0.938313  0.114860  1
  O  O26  1  0.405630  0.061629  0.170287  1
  O  O27  1  0.499943  0.333850  0.136944  1
  O  O28  1  0.827737  0.250754  0.079429  1
  O  O29  1  0.827725  0.895522  0.084547  1
  O  O30  1  -0.000000  0.844737  0.135863  1
  O  O31  1  0.903152  0.840612  0.163186  1
  O  O32  1  0.596597  0.159064  0.121904  1
  O  O33  1  0.902040  0.220179  0.158955  1
  O  O34  1  0.597701  0.780411  0.126121  1
  O  O35  1  0.000000  0.056217  0.140598  1
  O  O36  1  0.907136  0.310094  0.109396  1
  O  O37  1  0.903846  0.522111  0.160897  1
  O  O38  1  0.596066  0.477226  0.124419  1
  O  O39  1  0.740105  0.187418  0.173483  1
  O  O40  1  0.759795  0.812446  0.111554  1
  O  O41  1  0.751395  0.186034  0.140043  1
  O  O42  1  0.748559  0.812899  0.144970  1
  O  O43  1  0.775604  0.371729  0.162948  1
  O  O44  1  0.722746  0.627831  0.121791  1
  O  O45  1  0.754489  0.415301  0.108182  1
  O  O46  1  0.750711  0.502140  0.142575  1
  O  O47  1  0.750613  0.212348  0.108063  1
  O  O48  1  0.759338  0.981466  0.172150  1
  O  O49  1  0.740453  0.018092  0.112814  1
  O  O50  1  0.594166  0.061668  0.170295  1
  O  O51  1  0.905697  0.938352  0.114868  1
  O  O52  1  0.000000  0.451504  0.133221  1
  O  O53  1  0.000000  0.665762  0.148315  1
  O  O54  1  0.500044  0.755525  0.152228  1
  O  O55  1  0.327816  0.250898  0.272590  1
  O  O56  1  0.327662  0.749401  0.205720  1
  O  O57  1  0.365779  0.143583  0.236768  1
  O  O58  1  0.365771  0.856741  0.241517  1
  O  O59  1  0.375857  0.048773  0.262420  1
  O  O60  1  0.375836  0.951545  0.215866  1
  O  O61  1  0.327526  0.895817  0.277719  1
  O  O62  1  0.327440  0.104294  0.200543  1
  O  O63  1  0.407128  0.690313  0.175774  1
  O  O64  1  0.407087  0.309549  0.302579  1
  O  O65  1  0.254967  0.415622  0.301363  1
  O  O66  1  0.254720  0.584455  0.176995  1
  O  O67  1  0.250144  0.212622  0.301202  1
  O  O68  1  0.250450  0.787531  0.177064  1
  O  O69  1  0.672513  0.749398  0.205730  1
  O  O70  1  0.672580  0.250676  0.272583  1
  O  O71  1  0.634555  0.856626  0.241550  1
  O  O72  1  0.634553  0.143470  0.236759  1
  O  O73  1  0.500208  0.189687  0.259949  1
  O  O74  1  0.624440  0.951501  0.215885  1
  O  O75  1  0.624521  0.048612  0.262426  1
  O  O76  1  0.672713  0.104178  0.200522  1
  O  O77  1  0.672536  0.895813  0.277807  1
  O  O78  1  0.500159  0.907339  0.264720  1
  O  O79  1  0.592569  0.310407  0.302484  1
  O  O80  1  0.592625  0.690213  0.175812  1
  O  O81  1  0.745142  0.584426  0.176982  1
  O  O82  1  0.745592  0.415383  0.301319  1
  O  O83  1  0.749239  0.787503  0.177032  1
  O  O84  1  0.748774  0.212345  0.301304  1
  O  O85  1  0.500129  0.092905  0.213571  1
  O  O86  1  0.500148  0.810498  0.218349  1
  O  O87  1  0.172595  0.749543  0.398890  1
  O  O88  1  0.134552  0.143634  0.429962  1
  O  O89  1  0.124529  0.951682  0.409059  1
  O  O90  1  0.172514  0.104476  0.393693  1
  O  O91  1  0.000000  0.093000  0.406791  1
  O  O92  1  0.402731  0.840773  0.356349  1
  O  O93  1  0.096178  0.159221  0.315067  1
  O  O94  1  0.499692  0.666031  0.341427  1
  O  O95  1  0.401632  0.220277  0.352101  1
  O  O96  1  0.097292  0.780498  0.319266  1
  O  O97  1  0.092574  0.689676  0.368995  1
  O  O98  1  0.404141  0.522103  0.354008  1
  O  O99  1  0.096386  0.477208  0.317544  1
  O  O100  1  0.239661  0.187700  0.366629  1
  O  O101  1  0.259349  0.812721  0.304701  1
  O  O102  1  0.251030  0.186402  0.333188  1
  O  O103  1  0.248192  0.813262  0.338115  1
  O  O104  1  0.275556  0.372007  0.356102  1
  O  O105  1  0.222689  0.628097  0.314945  1
  O  O106  1  0.245623  0.584753  0.370163  1
  O  O107  1  0.250818  0.502657  0.335766  1
  O  O108  1  0.248768  0.787782  0.370171  1
  O  O109  1  0.259022  0.981780  0.365309  1
  O  O110  1  0.240136  0.018404  0.305974  1
  O  O111  1  0.093816  0.061766  0.363456  1
  O  O112  1  0.405344  0.938456  0.308030  1
  O  O113  1  -0.000000  0.810565  0.411514  1
  O  O114  1  0.499630  0.845026  0.329046  1
  O  O115  1  0.000000  0.755819  0.345433  1
  O  O116  1  0.499979  0.451646  0.326315  1
  O  O117  1  0.499475  0.056357  0.333744  1
  O  O118  1  0.827803  0.749325  0.398883  1
  O  O119  1  0.865768  0.143524  0.429994  1
  O  O120  1  0.875846  0.951515  0.409065  1
  O  O121  1  0.827546  0.104474  0.393782  1
  O  O122  1  0.000000  0.155120  0.342445  1
  O  O123  1  0.902734  0.159395  0.315140  1
  O  O124  1  0.596180  0.840950  0.356422  1
  O  O125  1  0.000000  0.334111  0.330059  1
  O  O126  1  0.901634  0.779858  0.319388  1
  O  O127  1  0.597297  0.219635  0.352222  1
  O  O128  1  0.907078  0.690536  0.368900  1
  O  O129  1  0.904131  0.478009  0.317471  1
  O  O130  1  0.596376  0.522903  0.353934  1
  O  O131  1  0.739675  0.812444  0.304858  1
  O  O132  1  0.759364  0.187427  0.366786  1
  O  O133  1  0.751022  0.813798  0.338297  1
  O  O134  1  0.748187  0.186938  0.333371  1
  O  O135  1  0.775542  0.628127  0.315389  1
  O  O136  1  0.722675  0.372038  0.356546  1
  O  O137  1  0.754935  0.584517  0.370119  1
  O  O138  1  0.750827  0.497436  0.335717  1
  O  O139  1  0.750148  0.787505  0.370273  1
  O  O140  1  0.759035  0.018396  0.306192  1
  O  O141  1  0.740149  0.981769  0.365526  1
  O  O142  1  0.593820  0.938386  0.308039  1
  O  O143  1  0.905353  0.061699  0.363466  1
  O  O144  1  0.500319  0.244319  0.326053  1
  O  O145  1  0.000000  0.943793  0.337748  1
  O  O146  1  0.000000  0.548479  0.345161  1
  O  O147  1  0.172434  0.250759  0.465803  1
  O  O148  1  0.134567  0.856693  0.434705  1
  O  O149  1  0.000000  0.907254  0.457881  1
  O  O150  1  0.124510  0.048654  0.455608  1
  O  O151  1  0.172430  0.895639  0.470950  1
  O  O152  1  0.499915  0.154845  0.535644  1
  O  O153  1  0.403170  0.159159  0.508299  1
  O  O154  1  0.096619  0.840704  0.549581  1
  O  O155  1  0.402113  0.780366  0.512528  1
  O  O156  1  0.097775  0.220136  0.545362  1
  O  O157  1  0.000000  0.244010  0.519228  1
  O  O158  1  0.499929  0.943665  0.530983  1
  O  O159  1  0.499950  0.548345  0.538445  1
  O  O160  1  0.092621  0.310201  0.495740  1
  O  O161  1  0.403746  0.477253  0.510816  1
  O  O162  1  0.095979  0.522133  0.547286  1
  O  O163  1  0.240039  0.812478  0.497974  1
  O  O164  1  0.259727  0.187457  0.559903  1
  O  O165  1  0.251304  0.813006  0.531394  1
  O  O166  1  0.248465  0.186148  0.526467  1
  O  O167  1  0.277008  0.627856  0.508218  1
  O  O168  1  0.224142  0.371760  0.549376  1
  O  O169  1  0.245387  0.415321  0.494578  1
  O  O170  1  0.249004  0.501989  0.528970  1
  O  O171  1  0.249069  0.212378  0.494478  1
  O  O172  1  0.259360  0.018167  0.499251  1
  O  O173  1  0.240474  0.981537  0.558586  1
  O  O174  1  0.094097  0.938313  0.501242  1
  O  O175  1  0.405630  0.061629  0.556669  1
  O  O176  1  0.499943  0.333850  0.523326  1
  O  O177  1  0.000000  0.189626  0.453165  1
  O  O178  1  0.827737  0.250754  0.465811  1
  O  O179  1  0.865770  0.856583  0.434697  1
  O  O180  1  0.875767  0.048606  0.455627  1
  O  O181  1  0.827725  0.895522  0.470929  1
  O  O182  1  -0.000000  0.844737  0.522245  1
  O  O183  1  0.903152  0.840612  0.549568  1
  O  O184  1  0.596597  0.159064  0.508286  1
  O  O185  1  0.902040  0.220179  0.545337  1
  O  O186  1  0.597701  0.780411  0.512503  1
  O  O187  1  0.000000  0.056217  0.526980  1
  O  O188  1  0.907136  0.310094  0.495778  1
  O  O189  1  0.903846  0.522111  0.547279  1
  O  O190  1  0.596066  0.477226  0.510801  1
  O  O191  1  0.740105  0.187418  0.559865  1
  O  O192  1  0.759795  0.812446  0.497936  1
  O  O193  1  0.751395  0.186034  0.526425  1
  O  O194  1  0.748559  0.812899  0.531352  1
  O  O195  1  0.775604  0.371729  0.549330  1
  O  O196  1  0.722746  0.627831  0.508173  1
  O  O197  1  0.754489  0.415301  0.494564  1
  O  O198  1  0.750711  0.502140  0.528957  1
  O  O199  1  0.750613  0.212348  0.494445  1
  O  O200  1  0.759338  0.981466  0.558532  1
  O  O201  1  0.740453  0.018092  0.499197  1
  O  O202  1  0.594166  0.061668  0.556677  1
  O  O203  1  0.905697  0.938352  0.501250  1
  O  O204  1  0.000000  0.451504  0.519603  1
  O  O205  1  0.000000  0.665762  0.534697  1
  O  O206  1  0.500044  0.755525  0.538610  1
  O  O207  1  0.327816  0.250898  0.658972  1
  O  O208  1  0.327662  0.749401  0.592102  1
  O  O209  1  0.365779  0.143583  0.623150  1
  O  O210  1  0.365771  0.856741  0.627899  1
  O  O211  1  0.375857  0.048773  0.648802  1
  O  O212  1  0.375836  0.951545  0.602248  1
  O  O213  1  0.327526  0.895817  0.664101  1
  O  O214  1  0.327440  0.104294  0.586925  1
  O  O215  1  0.407128  0.690313  0.562156  1
  O  O216  1  0.407087  0.309549  0.688961  1
  O  O217  1  0.254967  0.415622  0.687746  1
  O  O218  1  0.254720  0.584455  0.563377  1
  O  O219  1  0.250144  0.212622  0.687584  1
  O  O220  1  0.250450  0.787531  0.563446  1
  O  O221  1  0.672513  0.749398  0.592112  1
  O  O222  1  0.672580  0.250676  0.658965  1
  O  O223  1  0.634555  0.856626  0.627932  1
  O  O224  1  0.634553  0.143470  0.623141  1
  O  O225  1  0.500208  0.189687  0.646331  1
  O  O226  1  0.624440  0.951501  0.602267  1
  O  O227  1  0.624521  0.048612  0.648808  1
  O  O228  1  0.672713  0.104178  0.586904  1
  O  O229  1  0.672536  0.895813  0.664189  1
  O  O230  1  0.500159  0.907339  0.651102  1
  O  O231  1  0.592569  0.310407  0.688866  1
  O  O232  1  0.592625  0.690213  0.562194  1
  O  O233  1  0.745142  0.584426  0.563364  1
  O  O234  1  0.745592  0.415383  0.687701  1
  O  O235  1  0.749239  0.787503  0.563414  1
  O  O236  1  0.748774  0.212345  0.687686  1
  O  O237  1  0.500129  0.092905  0.599953  1
  O  O238  1  0.500148  0.810498  0.604731  1
  O  O239  1  0.172595  0.749543  0.785272  1
  O  O240  1  0.172514  0.104476  0.780075  1
  O  O241  1  0.402731  0.840773  0.742731  1
  O  O242  1  0.096178  0.159221  0.701449  1
  O  O243  1  0.499692  0.666031  0.727809  1
  O  O244  1  0.401632  0.220277  0.738483  1
  O  O245  1  0.097292  0.780498  0.705649  1
  O  O246  1  0.092574  0.689676  0.755377  1
  O  O247  1  0.404141  0.522103  0.740390  1
  O  O248  1  0.096386  0.477208  0.703926  1
  O  O249  1  0.239661  0.187700  0.753011  1
  O  O250  1  0.259349  0.812721  0.691083  1
  O  O251  1  0.251030  0.186402  0.719570  1
  O  O252  1  0.248192  0.813262  0.724497  1
  O  O253  1  0.275556  0.372007  0.742484  1
  O  O254  1  0.222689  0.628097  0.701327  1
  O  O255  1  0.245623  0.584753  0.756545  1
  O  O256  1  0.250818  0.502657  0.722148  1
  O  O257  1  0.248768  0.787782  0.756553  1
  O  O258  1  0.259022  0.981780  0.751691  1
  O  O259  1  0.240136  0.018404  0.692356  1
  O  O260  1  0.093816  0.061766  0.749838  1
  O  O261  1  0.405344  0.938456  0.694412  1
  O  O262  1  0.499630  0.845026  0.715428  1
  O  O263  1  0.000000  0.755819  0.731815  1
  O  O264  1  0.499979  0.451646  0.712697  1
  O  O265  1  0.499475  0.056357  0.720126  1
  O  O266  1  0.827803  0.749325  0.785265  1
  O  O267  1  0.827546  0.104474  0.780164  1
  O  O268  1  0.000000  0.155120  0.728827  1
  O  O269  1  0.902734  0.159395  0.701522  1
  O  O270  1  0.596180  0.840950  0.742804  1
  O  O271  1  0.000000  0.334111  0.716441  1
  O  O272  1  0.901634  0.779858  0.705770  1
  O  O273  1  0.597297  0.219635  0.738604  1
  O  O274  1  0.907078  0.690536  0.755282  1
  O  O275  1  0.904131  0.478009  0.703853  1
  O  O276  1  0.596376  0.522903  0.740316  1
  O  O277  1  0.739675  0.812444  0.691240  1
  O  O278  1  0.759364  0.187427  0.753168  1
  O  O279  1  0.751022  0.813798  0.724679  1
  O  O280  1  0.748187  0.186938  0.719753  1
  O  O281  1  0.775542  0.628127  0.701771  1
  O  O282  1  0.722675  0.372038  0.742928  1
  O  O283  1  0.754935  0.584517  0.756501  1
  O  O284  1  0.750827  0.497436  0.722099  1
  O  O285  1  0.750148  0.787505  0.756655  1
  O  O286  1  0.759035  0.018396  0.692574  1
  O  O287  1  0.740149  0.981769  0.751908  1
  O  O288  1  0.593820  0.938386  0.694421  1
  O  O289  1  0.905353  0.061699  0.749848  1
  O  O290  1  0.500319  0.244319  0.712435  1
  O  O291  1  0.000000  0.943793  0.724130  1
  O  O292  1  0.000000  0.548479  0.731543  1
  Si  Si293  1  0.499908  0.058346  0.159083  1
  Si  Si294  1  0.499927  0.454387  0.133858  1
  Si  Si295  1  0.499910  0.202973  0.132118  1
  Si  Si296  1  0.194218  0.300017  0.100419  1
  Si  Si297  1  0.290290  0.756934  0.125579  1
  Si  Si298  1  0.209727  0.242977  0.159497  1
  Si  Si299  1  0.293459  0.506991  0.123974  1
  Si  Si300  1  0.206619  0.493063  0.161160  1
  Si  Si301  1  0.290498  0.142377  0.120584  1
  Si  Si302  1  0.209308  0.857295  0.164512  1
  Si  Si303  1  0.194453  0.912863  0.105447  1
  Si  Si304  1  0.499937  0.814732  0.136447  1
  Si  Si305  1  0.499941  0.670715  0.164151  1
  Si  Si306  1  -0.000000  0.941539  0.126094  1
  Si  Si307  1  0.790078  0.242942  0.159457  1
  Si  Si308  1  0.709518  0.756912  0.125539  1
  Si  Si309  1  0.793192  0.493060  0.161133  1
  Si  Si310  1  0.706342  0.506991  0.123947  1
  Si  Si311  1  0.790459  0.857199  0.164478  1
  Si  Si312  1  0.709267  0.142276  0.120549  1
  Si  Si313  1  0.805441  0.912823  0.105419  1
  Si  Si314  1  0.805653  0.299987  0.100415  1
  Si  Si315  1  0.000000  0.796607  0.153014  1
  Si  Si316  1  0.000000  0.329422  0.121030  1
  Si  Si317  1  0.000000  0.545297  0.151448  1
  Si  Si318  1  0.000000  0.185287  0.148686  1
  Si  Si319  1  0.305587  0.700030  0.184734  1
  Si  Si320  1  0.305675  0.300051  0.293578  1
  Si  Si321  1  0.388925  0.163725  0.257726  1
  Si  Si322  1  0.388873  0.836593  0.220562  1
  Si  Si323  1  0.388885  0.922614  0.261824  1
  Si  Si324  1  0.388828  0.077686  0.216454  1
  Si  Si325  1  0.305073  0.913099  0.298581  1
  Si  Si326  1  0.305191  0.086973  0.179666  1
  Si  Si327  1  0.611415  0.836579  0.220591  1
  Si  Si328  1  0.611467  0.163532  0.257719  1
  Si  Si329  1  0.611428  0.077607  0.216448  1
  Si  Si330  1  0.611481  0.922509  0.261862  1
  Si  Si331  1  0.694704  0.086933  0.179637  1
  Si  Si332  1  0.694354  0.912967  0.298697  1
  Si  Si333  1  0.694276  0.700015  0.184731  1
  Si  Si334  1  0.694286  0.300047  0.293582  1
  Si  Si335  1  0.499577  0.185361  0.341864  1
  Si  Si336  1  0.194301  0.700079  0.377893  1
  Si  Si337  1  0.499561  0.796893  0.346193  1
  Si  Si338  1  0.194334  0.087209  0.372801  1
  Si  Si339  1  0.111465  0.836714  0.413749  1
  Si  Si340  1  0.111485  0.077819  0.409643  1
  Si  Si341  1  0.289720  0.243182  0.352606  1
  Si  Si342  1  0.209155  0.757137  0.318688  1
  Si  Si343  1  0.293453  0.493304  0.354299  1
  Si  Si344  1  0.206618  0.507237  0.317114  1
  Si  Si345  1  0.290050  0.857483  0.357627  1
  Si  Si346  1  0.208860  0.142559  0.313698  1
  Si  Si347  1  0.499568  0.941675  0.319252  1
  Si  Si348  1  0.000000  0.454602  0.326945  1
  Si  Si349  1  0.499987  0.329406  0.314178  1
  Si  Si350  1  0.000000  0.058472  0.352241  1
  Si  Si351  1  0.500070  0.545521  0.344532  1
  Si  Si352  1  0.000000  0.203253  0.325298  1
  Si  Si353  1  0.000000  0.814794  0.329624  1
  Si  Si354  1  0.888924  0.836524  0.413745  1
  Si  Si355  1  0.888879  0.077701  0.409679  1
  Si  Si356  1  0.789719  0.756954  0.318882  1
  Si  Si357  1  0.709155  0.243003  0.352800  1
  Si  Si358  1  0.793442  0.506817  0.317184  1
  Si  Si359  1  0.706608  0.492888  0.354369  1
  Si  Si360  1  0.790054  0.142707  0.313859  1
  Si  Si361  1  0.708862  0.857629  0.357788  1
  Si  Si362  1  0.805100  0.087075  0.372919  1
  Si  Si363  1  0.805653  0.700068  0.377896  1
  Si  Si364  1  0.000000  0.670703  0.357302  1
  Si  Si365  1  0.499908  0.058346  0.545465  1
  Si  Si366  1  0.499927  0.454387  0.520240  1
  Si  Si367  1  0.499910  0.202973  0.518500  1
  Si  Si368  1  0.194218  0.300017  0.486801  1
  Si  Si369  1  0.111415  0.163621  0.450920  1
  Si  Si370  1  0.111427  0.922507  0.455018  1
  Si  Si371  1  0.290290  0.756934  0.511961  1
  Si  Si372  1  0.209727  0.242977  0.545879  1
  Si  Si373  1  0.293459  0.506991  0.510356  1
  Si  Si374  1  0.206619  0.493063  0.547542  1
  Si  Si375  1  0.290498  0.142377  0.506966  1
  Si  Si376  1  0.209308  0.857295  0.550894  1
  Si  Si377  1  0.194453  0.912863  0.491829  1
  Si  Si378  1  0.499937  0.814732  0.522829  1
  Si  Si379  1  0.499941  0.670715  0.550534  1
  Si  Si380  1  -0.000000  0.941539  0.512476  1
  Si  Si381  1  0.888877  0.163610  0.450952  1
  Si  Si382  1  0.888831  0.922414  0.455008  1
  Si  Si383  1  0.790078  0.242942  0.545839  1
  Si  Si384  1  0.709518  0.756912  0.511921  1
  Si  Si385  1  0.793192  0.493060  0.547515  1
  Si  Si386  1  0.706342  0.506991  0.510329  1
  Si  Si387  1  0.790459  0.857199  0.550860  1
  Si  Si388  1  0.709267  0.142276  0.506931  1
  Si  Si389  1  0.805441  0.912823  0.491801  1
  Si  Si390  1  0.805653  0.299987  0.486797  1
  Si  Si391  1  0.000000  0.796607  0.539396  1
  Si  Si392  1  0.000000  0.329422  0.507412  1
  Si  Si393  1  0.000000  0.545297  0.537830  1
  Si  Si394  1  0.000000  0.185287  0.535068  1
  Si  Si395  1  0.305587  0.700030  0.571116  1
  Si  Si396  1  0.305675  0.300051  0.679960  1
  Si  Si397  1  0.388925  0.163725  0.644108  1
  Si  Si398  1  0.388873  0.836593  0.606945  1
  Si  Si399  1  0.388885  0.922614  0.648206  1
  Si  Si400  1  0.388828  0.077686  0.602837  1
  Si  Si401  1  0.305073  0.913099  0.684963  1
  Si  Si402  1  0.305191  0.086973  0.566048  1
  Si  Si403  1  0.611415  0.836579  0.606974  1
  Si  Si404  1  0.611467  0.163532  0.644101  1
  Si  Si405  1  0.611428  0.077607  0.602830  1
  Si  Si406  1  0.611481  0.922509  0.648245  1
  Si  Si407  1  0.694704  0.086933  0.566019  1
  Si  Si408  1  0.694354  0.912967  0.685079  1
  Si  Si409  1  0.694276  0.700015  0.571113  1
  Si  Si410  1  0.694286  0.300047  0.679964  1
  Si  Si411  1  0.499577  0.185361  0.728246  1
  Si  Si412  1  0.194301  0.700079  0.764275  1
  Si  Si413  1  0.499561  0.796893  0.732575  1
  Si  Si414  1  0.194334  0.087209  0.759183  1
  Si  Si415  1  0.289720  0.243182  0.738988  1
  Si  Si416  1  0.209155  0.757137  0.705070  1
  Si  Si417  1  0.293453  0.493304  0.740681  1
  Si  Si418  1  0.206618  0.507237  0.703496  1
  Si  Si419  1  0.290050  0.857483  0.744009  1
  Si  Si420  1  0.208860  0.142559  0.700080  1
  Si  Si421  1  0.499568  0.941675  0.705634  1
  Si  Si422  1  0.000000  0.454602  0.713328  1
  Si  Si423  1  0.499987  0.329406  0.700560  1
  Si  Si424  1  0.000000  0.058472  0.738623  1
  Si  Si425  1  0.500070  0.545521  0.730914  1
  Si  Si426  1  0.000000  0.203253  0.711680  1
  Si  Si427  1  0.000000  0.814794  0.716006  1
  Si  Si428  1  0.789719  0.756954  0.705264  1
  Si  Si429  1  0.709155  0.243003  0.739182  1
  Si  Si430  1  0.793442  0.506817  0.703566  1
  Si  Si431  1  0.706608  0.492888  0.740751  1
  Si  Si432  1  0.790054  0.142707  0.700242  1
  Si  Si433  1  0.708862  0.857629  0.744170  1
  Si  Si434  1  0.805100  0.087075  0.759301  1
  Si  Si435  1  0.805653  0.700068  0.764278  1
  Si  Si436  1  0.000000  0.670703  0.743684  1
  H  H437  1  0.172434  0.250759  0.067653  1
  H  H438  1  0.172430  0.895639  0.072800  1
  H  H439  1  0.827737  0.250754  0.067661  1
  H  H440  1  0.827725  0.895522  0.072779  1
  H  H441  1  0.172595  0.749543  0.797040  1
  H  H442  1  0.172514  0.104476  0.791842  1
  H  H443  1  0.827803  0.749325  0.797032  1
  H  H444  1  0.827546  0.104474  0.791931  1
