# generated using pymatgen
data_Si60H2O121
_symmetry_space_group_name_H-M   'P 1'
_cell_length_a   13.14980435
_cell_length_b   9.70786557
_cell_length_c   87.16423135
_cell_angle_alpha   108.36700000
_cell_angle_beta   90.00000000
_cell_angle_gamma   90.00000000
_symmetry_Int_Tables_number   1
_chemical_formula_structural   Si60H2O121
_chemical_formula_sum   'Si120 H4 O242'
_cell_volume   10560.2438372
_cell_formula_units_Z   2
loop_
 _symmetry_equiv_pos_site_id
 _symmetry_equiv_pos_as_xyz
  1  'x, y, z'
loop_
 _atom_site_type_symbol
 _atom_site_label
 _atom_site_symmetry_multiplicity
 _atom_site_fract_x
 _atom_site_fract_y
 _atom_site_fract_z
 _atom_site_occupancy
  O  O1  1  0.134741  0.204553  0.236228  1
  O  O2  1  0.634762  0.204476  0.113295  1
  O  O3  1  0.134761  0.795676  0.151169  1
  O  O4  1  0.634742  0.795765  0.274101  1
  O  O5  1  0.864964  0.795693  0.151169  1
  O  O6  1  0.364944  0.795766  0.274101  1
  O  O7  1  0.864945  0.204550  0.236227  1
  O  O8  1  0.364963  0.204463  0.113295  1
  O  O9  1  0.000000  0.122068  0.252796  1
  O  O10  1  0.499864  0.122006  0.129865  1
  O  O11  1  -0.000000  0.878168  0.134600  1
  O  O12  1  0.499841  0.878229  0.257531  1
  O  O13  1  0.191583  0.175433  0.263240  1
  O  O14  1  0.691600  0.175368  0.140308  1
  O  O15  1  0.191604  0.824800  0.124157  1
  O  O16  1  0.691579  0.824871  0.247087  1
  O  O17  1  0.808125  0.824811  0.124156  1
  O  O18  1  0.308105  0.824872  0.247088  1
  O  O19  1  0.808103  0.175428  0.263239  1
  O  O20  1  0.308126  0.175361  0.140309  1
  O  O21  1  0.147748  0.948123  0.240274  1
  O  O22  1  0.647764  0.948055  0.117343  1
  O  O23  1  0.147771  0.052108  0.147123  1
  O  O24  1  0.647742  0.052185  0.270051  1
  O  O25  1  0.851959  0.052121  0.147121  1
  O  O26  1  0.351943  0.052186  0.270052  1
  O  O27  1  0.851938  0.948119  0.240273  1
  O  O28  1  0.351965  0.948045  0.117345  1
  O  O29  1  0.207049  0.643058  0.274069  1
  O  O30  1  0.707072  0.642967  0.151135  1
  O  O31  1  0.207070  0.357173  0.113328  1
  O  O32  1  0.707051  0.357273  0.236260  1
  O  O33  1  0.792661  0.357184  0.113327  1
  O  O34  1  0.292635  0.357276  0.236260  1
  O  O35  1  0.792639  0.643057  0.274068  1
  O  O36  1  0.292657  0.642953  0.151136  1
  O  O37  1  0.136421  0.740970  0.252531  1
  O  O38  1  0.636440  0.740895  0.129600  1
  O  O39  1  0.136441  0.259260  0.134866  1
  O  O40  1  0.636419  0.259346  0.257796  1
  O  O41  1  0.863285  0.259274  0.134865  1
  O  O42  1  0.363267  0.259348  0.257796  1
  O  O43  1  0.863265  0.740967  0.252530  1
  O  O44  1  0.363287  0.740882  0.129600  1
  O  O45  1  0.000000  0.639609  0.267224  1
  O  O46  1  0.499866  0.639504  0.144291  1
  O  O47  1  0.000000  0.360627  0.120172  1
  O  O48  1  0.499842  0.360731  0.243104  1
  O  O49  1  0.129612  0.473343  0.248686  1
  O  O50  1  0.629638  0.473261  0.125752  1
  O  O51  1  0.129634  0.526887  0.138710  1
  O  O52  1  0.629615  0.526981  0.261643  1
  O  O53  1  0.870098  0.526902  0.138710  1
  O  O54  1  0.370072  0.526983  0.261644  1
  O  O55  1  0.870075  0.473339  0.248685  1
  O  O56  1  0.370094  0.473247  0.125753  1
  O  O57  1  0.858464  0.404640  0.218884  1
  O  O58  1  0.358477  0.404559  0.095951  1
  O  O59  1  0.858483  0.595600  0.168512  1
  O  O60  1  0.358459  0.595672  0.291445  1
  O  O61  1  0.141240  0.595587  0.168512  1
  O  O62  1  0.641234  0.595672  0.291444  1
  O  O63  1  0.141220  0.404643  0.218885  1
  O  O64  1  0.641253  0.404569  0.095951  1
  O  O65  1  0.177282  0.673962  0.223310  1
  O  O66  1  0.677301  0.673899  0.100379  1
  O  O67  1  0.177299  0.326268  0.164087  1
  O  O68  1  0.677285  0.326342  0.287016  1
  O  O69  1  0.822417  0.326280  0.164086  1
  O  O70  1  0.322409  0.326343  0.287017  1
  O  O71  1  0.822402  0.673959  0.223309  1
  O  O72  1  0.322424  0.673889  0.100380  1
  O  O73  1  0.142654  0.500115  0.193698  1
  O  O74  1  0.642655  0.500121  0.070767  1
  O  O75  1  0.857046  0.500119  0.193697  1
  O  O76  1  0.357056  0.500117  0.070768  1
  O  O77  1  0.000000  0.566745  0.214425  1
  O  O78  1  0.499862  0.566672  0.091496  1
  O  O79  1  0.000000  0.433490  0.172971  1
  O  O80  1  0.499849  0.433564  0.295900  1
  O  O81  1  0.134741  0.204553  0.482088  1
  O  O82  1  0.634762  0.204476  0.359155  1
  O  O83  1  0.134761  0.795676  0.397029  1
  O  O84  1  0.634742  0.795765  0.519961  1
  O  O85  1  0.864964  0.795693  0.397029  1
  O  O86  1  0.364944  0.795766  0.519961  1
  O  O87  1  0.864945  0.204550  0.482087  1
  O  O88  1  0.364963  0.204463  0.359155  1
  O  O89  1  0.000000  0.122068  0.498656  1
  O  O90  1  0.499864  0.122006  0.375725  1
  O  O91  1  0.000000  0.878168  0.380460  1
  O  O92  1  0.499841  0.878229  0.503391  1
  O  O93  1  0.191583  0.175433  0.509100  1
  O  O94  1  0.691600  0.175368  0.386168  1
  O  O95  1  0.191604  0.824800  0.370017  1
  O  O96  1  0.691579  0.824871  0.492947  1
  O  O97  1  0.808125  0.824811  0.370016  1
  O  O98  1  0.308105  0.824872  0.492948  1
  O  O99  1  0.808103  0.175428  0.509099  1
  O  O100  1  0.308126  0.175361  0.386169  1
  O  O101  1  0.147748  0.948123  0.486134  1
  O  O102  1  0.647764  0.948055  0.363203  1
  O  O103  1  0.147771  0.052108  0.392983  1
  O  O104  1  0.647742  0.052185  0.515912  1
  O  O105  1  0.851959  0.052121  0.392981  1
  O  O106  1  0.351943  0.052186  0.515912  1
  O  O107  1  0.851938  0.948119  0.486133  1
  O  O108  1  0.351965  0.948045  0.363205  1
  O  O109  1  0.207049  0.643058  0.519929  1
  O  O110  1  0.707072  0.642967  0.396995  1
  O  O111  1  0.207070  0.357173  0.359188  1
  O  O112  1  0.707051  0.357273  0.482120  1
  O  O113  1  0.792661  0.357184  0.359187  1
  O  O114  1  0.292635  0.357276  0.482121  1
  O  O115  1  0.792639  0.643057  0.519928  1
  O  O116  1  0.292657  0.642953  0.396996  1
  O  O117  1  0.136421  0.740970  0.498391  1
  O  O118  1  0.636440  0.740895  0.375460  1
  O  O119  1  0.136441  0.259260  0.380726  1
  O  O120  1  0.636419  0.259346  0.503656  1
  O  O121  1  0.863285  0.259274  0.380725  1
  O  O122  1  0.363267  0.259348  0.503656  1
  O  O123  1  0.863265  0.740967  0.498390  1
  O  O124  1  0.363287  0.740882  0.375461  1
  O  O125  1  0.000000  0.639609  0.513084  1
  O  O126  1  0.499866  0.639504  0.390151  1
  O  O127  1  0.000000  0.360627  0.366032  1
  O  O128  1  0.499842  0.360731  0.488964  1
  O  O129  1  0.129612  0.473343  0.494547  1
  O  O130  1  0.629638  0.473261  0.371612  1
  O  O131  1  0.129634  0.526887  0.384570  1
  O  O132  1  0.629615  0.526981  0.507503  1
  O  O133  1  0.870098  0.526902  0.384570  1
  O  O134  1  0.370072  0.526983  0.507504  1
  O  O135  1  0.870075  0.473339  0.494546  1
  O  O136  1  0.370094  0.473247  0.371613  1
  O  O137  1  0.858464  0.404640  0.464744  1
  O  O138  1  0.358477  0.404559  0.341811  1
  O  O139  1  0.858483  0.595600  0.414372  1
  O  O140  1  0.358459  0.595672  0.537305  1
  O  O141  1  0.141240  0.595587  0.414372  1
  O  O142  1  0.641234  0.595672  0.537305  1
  O  O143  1  0.141220  0.404643  0.464745  1
  O  O144  1  0.641253  0.404569  0.341811  1
  O  O145  1  0.177282  0.673962  0.469170  1
  O  O146  1  0.677301  0.673899  0.346239  1
  O  O147  1  0.177299  0.326268  0.409947  1
  O  O148  1  0.677285  0.326342  0.532876  1
  O  O149  1  0.822417  0.326280  0.409946  1
  O  O150  1  0.322409  0.326343  0.532877  1
  O  O151  1  0.822402  0.673959  0.469169  1
  O  O152  1  0.322424  0.673889  0.346240  1
  O  O153  1  0.142654  0.500115  0.439558  1
  O  O154  1  0.642655  0.500121  0.316627  1
  O  O155  1  0.857046  0.500119  0.439557  1
  O  O156  1  0.357056  0.500117  0.316628  1
  O  O157  1  0.000000  0.566745  0.460285  1
  O  O158  1  0.499862  0.566672  0.337356  1
  O  O159  1  -0.000000  0.433490  0.418831  1
  O  O160  1  0.499849  0.433564  0.541760  1
  O  O161  1  0.134741  0.204553  0.727948  1
  O  O162  1  0.634762  0.204476  0.605015  1
  O  O163  1  0.134761  0.795676  0.642889  1
  O  O164  1  0.634742  0.795765  0.765821  1
  O  O165  1  0.864964  0.795693  0.642889  1
  O  O166  1  0.364944  0.795766  0.765821  1
  O  O167  1  0.864945  0.204550  0.727947  1
  O  O168  1  0.364963  0.204463  0.605015  1
  O  O169  1  -0.000000  0.122068  0.744516  1
  O  O170  1  0.499864  0.122006  0.621585  1
  O  O171  1  0.000000  0.878168  0.626320  1
  O  O172  1  0.499841  0.878229  0.749251  1
  O  O173  1  0.191583  0.175433  0.754960  1
  O  O174  1  0.691600  0.175368  0.632028  1
  O  O175  1  0.191604  0.824800  0.615877  1
  O  O176  1  0.691579  0.824871  0.738807  1
  O  O177  1  0.808125  0.824811  0.615877  1
  O  O178  1  0.308105  0.824872  0.738808  1
  O  O179  1  0.808103  0.175428  0.754959  1
  O  O180  1  0.308126  0.175361  0.632029  1
  O  O181  1  0.147748  0.948123  0.731994  1
  O  O182  1  0.647764  0.948055  0.609063  1
  O  O183  1  0.147771  0.052108  0.638843  1
  O  O184  1  0.647742  0.052185  0.761772  1
  O  O185  1  0.851959  0.052121  0.638842  1
  O  O186  1  0.351943  0.052186  0.761772  1
  O  O187  1  0.851938  0.948119  0.731994  1
  O  O188  1  0.351965  0.948045  0.609065  1
  O  O189  1  0.207049  0.643058  0.765789  1
  O  O190  1  0.707072  0.642967  0.642855  1
  O  O191  1  0.207070  0.357173  0.605048  1
  O  O192  1  0.707051  0.357273  0.727980  1
  O  O193  1  0.792661  0.357184  0.605047  1
  O  O194  1  0.292635  0.357276  0.727981  1
  O  O195  1  0.792639  0.643057  0.765788  1
  O  O196  1  0.292657  0.642953  0.642856  1
  O  O197  1  0.136421  0.740970  0.744251  1
  O  O198  1  0.636440  0.740895  0.621320  1
  O  O199  1  0.136441  0.259260  0.626586  1
  O  O200  1  0.636419  0.259346  0.749516  1
  O  O201  1  0.863285  0.259274  0.626585  1
  O  O202  1  0.363267  0.259348  0.749516  1
  O  O203  1  0.863265  0.740967  0.744250  1
  O  O204  1  0.363287  0.740882  0.621321  1
  O  O205  1  0.000000  0.639609  0.758944  1
  O  O206  1  0.499866  0.639504  0.636011  1
  O  O207  1  0.000000  0.360627  0.611892  1
  O  O208  1  0.499842  0.360731  0.734824  1
  O  O209  1  0.129612  0.473343  0.740407  1
  O  O210  1  0.629638  0.473261  0.617472  1
  O  O211  1  0.129634  0.526887  0.630430  1
  O  O212  1  0.629615  0.526981  0.753363  1
  O  O213  1  0.870098  0.526902  0.630430  1
  O  O214  1  0.370072  0.526983  0.753364  1
  O  O215  1  0.870075  0.473339  0.740406  1
  O  O216  1  0.370094  0.473247  0.617473  1
  O  O217  1  0.858464  0.404640  0.710604  1
  O  O218  1  0.358477  0.404559  0.587671  1
  O  O219  1  0.858483  0.595600  0.660232  1
  O  O220  1  0.358459  0.595672  0.783165  1
  O  O221  1  0.141240  0.595587  0.660232  1
  O  O222  1  0.641234  0.595672  0.783165  1
  O  O223  1  0.141220  0.404643  0.710605  1
  O  O224  1  0.641253  0.404569  0.587671  1
  O  O225  1  0.177282  0.673962  0.715030  1
  O  O226  1  0.677301  0.673899  0.592099  1
  O  O227  1  0.177299  0.326268  0.655807  1
  O  O228  1  0.677285  0.326342  0.778736  1
  O  O229  1  0.822417  0.326280  0.655806  1
  O  O230  1  0.322409  0.326343  0.778737  1
  O  O231  1  0.822402  0.673959  0.715029  1
  O  O232  1  0.322424  0.673889  0.592100  1
  O  O233  1  0.142654  0.500115  0.685419  1
  O  O234  1  0.642655  0.500121  0.562488  1
  O  O235  1  0.857046  0.500119  0.685418  1
  O  O236  1  0.357056  0.500117  0.562488  1
  O  O237  1  0.000000  0.566745  0.706145  1
  O  O238  1  0.499862  0.566672  0.583216  1
  O  O239  1  0.000000  0.433490  0.664691  1
  O  O240  1  0.499849  0.433564  0.787620  1
  O  O241  1  0.642655  0.500121  0.808348  1
  O  O242  1  0.357056  0.500117  0.808349  1
  Si  Si243  1  0.116827  0.112436  0.248245  1
  Si  Si244  1  0.616846  0.112368  0.125313  1
  Si  Si245  1  0.116847  0.887798  0.139152  1
  Si  Si246  1  0.616825  0.887870  0.262082  1
  Si  Si247  1  0.882881  0.887809  0.139151  1
  Si  Si248  1  0.382859  0.887873  0.262083  1
  Si  Si249  1  0.882860  0.112431  0.248244  1
  Si  Si250  1  0.382879  0.112360  0.125314  1
  Si  Si251  1  0.115875  0.627315  0.261751  1
  Si  Si252  1  0.615896  0.627225  0.138818  1
  Si  Si253  1  0.115896  0.372914  0.125646  1
  Si  Si254  1  0.615875  0.373016  0.248577  1
  Si  Si255  1  0.883834  0.372928  0.125645  1
  Si  Si256  1  0.383811  0.373017  0.248578  1
  Si  Si257  1  0.883811  0.627313  0.261750  1
  Si  Si258  1  0.383834  0.627213  0.138818  1
  Si  Si259  1  0.826835  0.350235  0.233544  1
  Si  Si260  1  0.326853  0.350145  0.110611  1
  Si  Si261  1  0.826856  0.650006  0.153851  1
  Si  Si262  1  0.326832  0.650086  0.276785  1
  Si  Si263  1  0.172873  0.649992  0.153852  1
  Si  Si264  1  0.672856  0.650086  0.276784  1
  Si  Si265  1  0.172851  0.350238  0.233545  1
  Si  Si266  1  0.672878  0.350155  0.110611  1
  Si  Si267  1  0.117454  0.536135  0.212199  1
  Si  Si268  1  0.617473  0.536078  0.089268  1
  Si  Si269  1  0.117468  0.464093  0.175197  1
  Si  Si270  1  0.617459  0.464164  0.298127  1
  Si  Si271  1  0.882247  0.464104  0.175197  1
  Si  Si272  1  0.382239  0.464163  0.298128  1
  Si  Si273  1  0.882234  0.536135  0.212199  1
  Si  Si274  1  0.382252  0.536069  0.089268  1
  Si  Si275  1  0.804061  0.798102  0.239981  1
  Si  Si276  1  0.304087  0.798029  0.117052  1
  Si  Si277  1  0.804081  0.202137  0.147414  1
  Si  Si278  1  0.304067  0.202204  0.270345  1
  Si  Si279  1  0.195644  0.202127  0.147415  1
  Si  Si280  1  0.695620  0.202200  0.270344  1
  Si  Si281  1  0.195623  0.798105  0.239982  1
  Si  Si282  1  0.695641  0.798039  0.117051  1
  Si  Si283  1  0.116827  0.112436  0.494105  1
  Si  Si284  1  0.616846  0.112368  0.371173  1
  Si  Si285  1  0.116847  0.887798  0.385012  1
  Si  Si286  1  0.616825  0.887870  0.507942  1
  Si  Si287  1  0.882881  0.887809  0.385011  1
  Si  Si288  1  0.382859  0.887873  0.507943  1
  Si  Si289  1  0.882860  0.112431  0.494104  1
  Si  Si290  1  0.382879  0.112360  0.371174  1
  Si  Si291  1  0.115875  0.627315  0.507611  1
  Si  Si292  1  0.615896  0.627225  0.384678  1
  Si  Si293  1  0.115896  0.372914  0.371506  1
  Si  Si294  1  0.615875  0.373016  0.494437  1
  Si  Si295  1  0.883834  0.372928  0.371505  1
  Si  Si296  1  0.383811  0.373017  0.494438  1
  Si  Si297  1  0.883811  0.627313  0.507610  1
  Si  Si298  1  0.383834  0.627213  0.384679  1
  Si  Si299  1  0.826835  0.350235  0.479404  1
  Si  Si300  1  0.326853  0.350145  0.356472  1
  Si  Si301  1  0.826856  0.650006  0.399711  1
  Si  Si302  1  0.326832  0.650086  0.522645  1
  Si  Si303  1  0.172873  0.649992  0.399712  1
  Si  Si304  1  0.672856  0.650086  0.522644  1
  Si  Si305  1  0.172851  0.350238  0.479405  1
  Si  Si306  1  0.672878  0.350155  0.356471  1
  Si  Si307  1  0.117454  0.536135  0.458059  1
  Si  Si308  1  0.617473  0.536078  0.335128  1
  Si  Si309  1  0.117468  0.464093  0.421057  1
  Si  Si310  1  0.617459  0.464164  0.543988  1
  Si  Si311  1  0.882247  0.464104  0.421057  1
  Si  Si312  1  0.382239  0.464163  0.543988  1
  Si  Si313  1  0.882234  0.536135  0.458059  1
  Si  Si314  1  0.382252  0.536069  0.335128  1
  Si  Si315  1  0.804061  0.798102  0.485841  1
  Si  Si316  1  0.304087  0.798029  0.362912  1
  Si  Si317  1  0.804081  0.202137  0.393274  1
  Si  Si318  1  0.304067  0.202204  0.516205  1
  Si  Si319  1  0.195644  0.202127  0.393275  1
  Si  Si320  1  0.695620  0.202200  0.516204  1
  Si  Si321  1  0.195623  0.798105  0.485842  1
  Si  Si322  1  0.695641  0.798039  0.362911  1
  Si  Si323  1  0.116827  0.112436  0.739965  1
  Si  Si324  1  0.616846  0.112368  0.617033  1
  Si  Si325  1  0.116847  0.887798  0.630872  1
  Si  Si326  1  0.616825  0.887870  0.753802  1
  Si  Si327  1  0.882881  0.887809  0.630872  1
  Si  Si328  1  0.382859  0.887873  0.753803  1
  Si  Si329  1  0.882860  0.112431  0.739964  1
  Si  Si330  1  0.382879  0.112360  0.617034  1
  Si  Si331  1  0.115875  0.627315  0.753471  1
  Si  Si332  1  0.615896  0.627225  0.630538  1
  Si  Si333  1  0.115896  0.372914  0.617366  1
  Si  Si334  1  0.615875  0.373016  0.740297  1
  Si  Si335  1  0.883834  0.372928  0.617365  1
  Si  Si336  1  0.383811  0.373017  0.740298  1
  Si  Si337  1  0.883811  0.627313  0.753470  1
  Si  Si338  1  0.383834  0.627213  0.630539  1
  Si  Si339  1  0.826835  0.350235  0.725264  1
  Si  Si340  1  0.326853  0.350145  0.602332  1
  Si  Si341  1  0.826856  0.650006  0.645571  1
  Si  Si342  1  0.326832  0.650086  0.768505  1
  Si  Si343  1  0.172873  0.649992  0.645572  1
  Si  Si344  1  0.672856  0.650086  0.768504  1
  Si  Si345  1  0.172851  0.350238  0.725265  1
  Si  Si346  1  0.672878  0.350155  0.602331  1
  Si  Si347  1  0.117454  0.536135  0.703919  1
  Si  Si348  1  0.617473  0.536078  0.580988  1
  Si  Si349  1  0.117468  0.464093  0.666917  1
  Si  Si350  1  0.617459  0.464164  0.789848  1
  Si  Si351  1  0.882247  0.464104  0.666917  1
  Si  Si352  1  0.382239  0.464163  0.789848  1
  Si  Si353  1  0.882234  0.536135  0.703919  1
  Si  Si354  1  0.382252  0.536069  0.580988  1
  Si  Si355  1  0.804061  0.798102  0.731701  1
  Si  Si356  1  0.304087  0.798029  0.608772  1
  Si  Si357  1  0.804081  0.202137  0.639134  1
  Si  Si358  1  0.304067  0.202204  0.762065  1
  Si  Si359  1  0.195644  0.202127  0.639135  1
  Si  Si360  1  0.695620  0.202200  0.762064  1
  Si  Si361  1  0.195623  0.798105  0.731702  1
  Si  Si362  1  0.695641  0.798039  0.608771  1
  H  H363  1  0.642655  0.500121  0.060442  1
  H  H364  1  0.357056  0.500117  0.060443  1
  H  H365  1  0.642655  0.500121  0.818673  1
  H  H366  1  0.357056  0.500117  0.818674  1
