# generated using pymatgen
data_Si38H2O77
_symmetry_space_group_name_H-M   'P 1'
_cell_length_a   13.87556409
_cell_length_b   12.44431264
_cell_length_c   81.96152765
_cell_angle_alpha   104.91000000
_cell_angle_beta   90.00000000
_cell_angle_gamma   90.00000000
_symmetry_Int_Tables_number   1
_chemical_formula_structural   Si38H2O77
_chemical_formula_sum   'Si152 H8 O308'
_cell_volume   13675.9530557
_cell_formula_units_Z   4
loop_
 _symmetry_equiv_pos_site_id
 _symmetry_equiv_pos_as_xyz
  1  'x, y, z'
loop_
 _atom_site_type_symbol
 _atom_site_label
 _atom_site_symmetry_multiplicity
 _atom_site_fract_x
 _atom_site_fract_y
 _atom_site_fract_z
 _atom_site_occupancy
  O  O1  1  0.134552  0.143634  0.074110  1
  O  O2  1  0.865768  0.143524  0.074141  1
  O  O3  1  0.172434  0.250759  0.107555  1
  O  O4  1  0.134567  0.856693  0.078537  1
  O  O5  1  0.000000  0.907254  0.100163  1
  O  O6  1  0.124510  0.048654  0.098042  1
  O  O7  1  0.172430  0.895639  0.112358  1
  O  O8  1  0.499915  0.154845  0.172726  1
  O  O9  1  0.403170  0.159159  0.147210  1
  O  O10  1  0.096619  0.840704  0.185731  1
  O  O11  1  0.402113  0.780366  0.151156  1
  O  O12  1  0.097775  0.220136  0.181794  1
  O  O13  1  0.000000  0.244010  0.157408  1
  O  O14  1  0.499929  0.943665  0.168377  1
  O  O15  1  0.499950  0.548345  0.175340  1
  O  O16  1  0.092621  0.310201  0.135490  1
  O  O17  1  0.403746  0.477253  0.149558  1
  O  O18  1  0.095979  0.522133  0.183590  1
  O  O19  1  0.240039  0.812478  0.137575  1
  O  O20  1  0.259727  0.187457  0.195363  1
  O  O21  1  0.251304  0.813006  0.168760  1
  O  O22  1  0.248465  0.186148  0.164163  1
  O  O23  1  0.277008  0.627856  0.147134  1
  O  O24  1  0.224142  0.371760  0.185540  1
  O  O25  1  0.245387  0.415321  0.134406  1
  O  O26  1  0.249004  0.501989  0.166498  1
  O  O27  1  0.249069  0.212378  0.134312  1
  O  O28  1  0.259360  0.018167  0.138767  1
  O  O29  1  0.240474  0.981537  0.194134  1
  O  O30  1  0.094097  0.938313  0.140625  1
  O  O31  1  0.405630  0.061629  0.192346  1
  O  O32  1  0.499943  0.333850  0.161232  1
  O  O33  1  0.000000  0.189626  0.095762  1
  O  O34  1  0.827737  0.250754  0.107562  1
  O  O35  1  0.865770  0.856583  0.078529  1
  O  O36  1  0.875767  0.048606  0.098060  1
  O  O37  1  0.827725  0.895522  0.112338  1
  O  O38  1  0.000000  0.844737  0.160223  1
  O  O39  1  0.903152  0.840612  0.185719  1
  O  O40  1  0.596597  0.159064  0.147197  1
  O  O41  1  0.902040  0.220179  0.181771  1
  O  O42  1  0.597701  0.780411  0.151133  1
  O  O43  1  0.000000  0.056217  0.164641  1
  O  O44  1  0.907136  0.310094  0.135526  1
  O  O45  1  0.903846  0.522111  0.183583  1
  O  O46  1  0.596066  0.477226  0.149545  1
  O  O47  1  0.740105  0.187418  0.195327  1
  O  O48  1  0.759795  0.812446  0.137539  1
  O  O49  1  0.751395  0.186034  0.164124  1
  O  O50  1  0.748559  0.812899  0.168722  1
  O  O51  1  0.775604  0.371729  0.185497  1
  O  O52  1  0.722746  0.627831  0.147092  1
  O  O53  1  0.754489  0.415301  0.134393  1
  O  O54  1  0.750711  0.502140  0.166486  1
  O  O55  1  0.750613  0.212348  0.134282  1
  O  O56  1  0.759338  0.981466  0.194084  1
  O  O57  1  0.740453  0.018092  0.138716  1
  O  O58  1  0.594166  0.061668  0.192352  1
  O  O59  1  0.905697  0.938352  0.140632  1
  O  O60  1  0.000000  0.451504  0.157758  1
  O  O61  1  0.000000  0.665762  0.171843  1
  O  O62  1  0.500044  0.755525  0.175494  1
  O  O63  1  0.327816  0.250898  0.287808  1
  O  O64  1  0.327662  0.749401  0.225409  1
  O  O65  1  0.365779  0.143583  0.254381  1
  O  O66  1  0.365771  0.856741  0.258812  1
  O  O67  1  0.375857  0.048773  0.278318  1
  O  O68  1  0.375836  0.951545  0.234876  1
  O  O69  1  0.327526  0.895817  0.292594  1
  O  O70  1  0.327440  0.104294  0.220578  1
  O  O71  1  0.407128  0.690313  0.197465  1
  O  O72  1  0.407087  0.309549  0.315791  1
  O  O73  1  0.254967  0.415622  0.314657  1
  O  O74  1  0.254720  0.584455  0.198605  1
  O  O75  1  0.250144  0.212622  0.314506  1
  O  O76  1  0.250450  0.787531  0.198670  1
  O  O77  1  0.672513  0.749398  0.225418  1
  O  O78  1  0.672580  0.250676  0.287801  1
  O  O79  1  0.634555  0.856626  0.258843  1
  O  O80  1  0.634553  0.143470  0.254373  1
  O  O81  1  0.500208  0.189687  0.276012  1
  O  O82  1  0.624440  0.951501  0.234894  1
  O  O83  1  0.624521  0.048612  0.278324  1
  O  O84  1  0.672713  0.104178  0.220558  1
  O  O85  1  0.672536  0.895813  0.292676  1
  O  O86  1  0.500159  0.907339  0.280464  1
  O  O87  1  0.592569  0.310407  0.315703  1
  O  O88  1  0.592625  0.690213  0.197501  1
  O  O89  1  0.745142  0.584426  0.198593  1
  O  O90  1  0.745592  0.415383  0.314616  1
  O  O91  1  0.749239  0.787503  0.198639  1
  O  O92  1  0.748774  0.212345  0.314602  1
  O  O93  1  0.500129  0.092905  0.232735  1
  O  O94  1  0.500148  0.810498  0.237194  1
  O  O95  1  0.172595  0.749543  0.405663  1
  O  O96  1  0.134552  0.143634  0.434657  1
  O  O97  1  0.124529  0.951682  0.415152  1
  O  O98  1  0.172514  0.104476  0.400813  1
  O  O99  1  0.000000  0.093000  0.413036  1
  O  O100  1  0.402731  0.840773  0.365966  1
  O  O101  1  0.096178  0.159221  0.327445  1
  O  O102  1  0.499692  0.666031  0.352042  1
  O  O103  1  0.401632  0.220277  0.362002  1
  O  O104  1  0.097292  0.780498  0.331363  1
  O  O105  1  0.092574  0.689676  0.377766  1
  O  O106  1  0.404141  0.522103  0.363782  1
  O  O107  1  0.096386  0.477208  0.329756  1
  O  O108  1  0.239661  0.187700  0.375559  1
  O  O109  1  0.259349  0.812721  0.317772  1
  O  O110  1  0.251030  0.186402  0.344354  1
  O  O111  1  0.248192  0.813262  0.348952  1
  O  O112  1  0.275556  0.372007  0.365736  1
  O  O113  1  0.222689  0.628097  0.327331  1
  O  O114  1  0.245623  0.584753  0.378857  1
  O  O115  1  0.250818  0.502657  0.346760  1
  O  O116  1  0.248768  0.787782  0.378864  1
  O  O117  1  0.259022  0.981780  0.374328  1
  O  O118  1  0.240136  0.018404  0.318960  1
  O  O119  1  0.093816  0.061766  0.372598  1
  O  O120  1  0.405344  0.938456  0.320878  1
  O  O121  1  0.000000  0.810565  0.417443  1
  O  O122  1  0.499630  0.845026  0.340489  1
  O  O123  1  -0.000000  0.755819  0.355781  1
  O  O124  1  0.499979  0.451646  0.337940  1
  O  O125  1  0.499475  0.056357  0.344873  1
  O  O126  1  0.827803  0.749325  0.405656  1
  O  O127  1  0.865768  0.143524  0.434687  1
  O  O128  1  0.875846  0.951515  0.415158  1
  O  O129  1  0.827546  0.104474  0.400896  1
  O  O130  1  0.000000  0.155120  0.352992  1
  O  O131  1  0.902734  0.159395  0.327512  1
  O  O132  1  0.596180  0.840950  0.366034  1
  O  O133  1  0.000000  0.334111  0.341434  1
  O  O134  1  0.901634  0.779858  0.331477  1
  O  O135  1  0.597297  0.219635  0.362115  1
  O  O136  1  0.907078  0.690536  0.377678  1
  O  O137  1  0.904131  0.478009  0.329688  1
  O  O138  1  0.596376  0.522903  0.363713  1
  O  O139  1  0.739675  0.812444  0.317918  1
  O  O140  1  0.759364  0.187427  0.375705  1
  O  O141  1  0.751022  0.813798  0.349122  1
  O  O142  1  0.748187  0.186938  0.344524  1
  O  O143  1  0.775542  0.628127  0.327745  1
  O  O144  1  0.722675  0.372038  0.366150  1
  O  O145  1  0.754935  0.584517  0.378815  1
  O  O146  1  0.750827  0.497436  0.346714  1
  O  O147  1  0.750148  0.787505  0.378959  1
  O  O148  1  0.759035  0.018396  0.319163  1
  O  O149  1  0.740149  0.981769  0.374530  1
  O  O150  1  0.593820  0.938386  0.320887  1
  O  O151  1  0.905353  0.061699  0.372608  1
  O  O152  1  0.500319  0.244319  0.337696  1
  O  O153  1  0.000000  0.943793  0.348609  1
  O  O154  1  0.000000  0.548479  0.355527  1
  O  O155  1  0.172434  0.250759  0.468102  1
  O  O156  1  0.134567  0.856693  0.439083  1
  O  O157  1  0.000000  0.907254  0.460709  1
  O  O158  1  0.124510  0.048654  0.458589  1
  O  O159  1  0.172430  0.895639  0.472904  1
  O  O160  1  0.499915  0.154845  0.533273  1
  O  O161  1  0.403170  0.159159  0.507756  1
  O  O162  1  0.096619  0.840704  0.546278  1
  O  O163  1  0.402113  0.780366  0.511703  1
  O  O164  1  0.097775  0.220136  0.542341  1
  O  O165  1  0.000000  0.244010  0.517954  1
  O  O166  1  0.499929  0.943665  0.528924  1
  O  O167  1  0.499950  0.548345  0.535887  1
  O  O168  1  0.092621  0.310201  0.496037  1
  O  O169  1  0.403746  0.477253  0.510105  1
  O  O170  1  0.095979  0.522133  0.544137  1
  O  O171  1  0.240039  0.812478  0.498122  1
  O  O172  1  0.259727  0.187457  0.555909  1
  O  O173  1  0.251304  0.813006  0.529307  1
  O  O174  1  0.248465  0.186148  0.524709  1
  O  O175  1  0.277008  0.627856  0.507680  1
  O  O176  1  0.224142  0.371760  0.546086  1
  O  O177  1  0.245387  0.415321  0.494952  1
  O  O178  1  0.249004  0.501989  0.527045  1
  O  O179  1  0.249069  0.212378  0.494859  1
  O  O180  1  0.259360  0.018167  0.499314  1
  O  O181  1  0.240474  0.981537  0.554681  1
  O  O182  1  0.094097  0.938313  0.501171  1
  O  O183  1  0.405630  0.061629  0.552892  1
  O  O184  1  0.499943  0.333850  0.521778  1
  O  O185  1  -0.000000  0.189626  0.456309  1
  O  O186  1  0.827737  0.250754  0.468109  1
  O  O187  1  0.865770  0.856583  0.439075  1
  O  O188  1  0.875767  0.048606  0.458606  1
  O  O189  1  0.827725  0.895522  0.472885  1
  O  O190  1  0.000000  0.844737  0.520770  1
  O  O191  1  0.903152  0.840612  0.546266  1
  O  O192  1  0.596597  0.159064  0.507744  1
  O  O193  1  0.902040  0.220179  0.542317  1
  O  O194  1  0.597701  0.780411  0.511680  1
  O  O195  1  0.000000  0.056217  0.525188  1
  O  O196  1  0.907136  0.310094  0.496073  1
  O  O197  1  0.903846  0.522111  0.544129  1
  O  O198  1  0.596066  0.477226  0.510091  1
  O  O199  1  0.740105  0.187418  0.555874  1
  O  O200  1  0.759795  0.812446  0.498086  1
  O  O201  1  0.751395  0.186034  0.524670  1
  O  O202  1  0.748559  0.812899  0.529268  1
  O  O203  1  0.775604  0.371729  0.546044  1
  O  O204  1  0.722746  0.627831  0.507639  1
  O  O205  1  0.754489  0.415301  0.494939  1
  O  O206  1  0.750711  0.502140  0.527033  1
  O  O207  1  0.750613  0.212348  0.494828  1
  O  O208  1  0.759338  0.981466  0.554631  1
  O  O209  1  0.740453  0.018092  0.499262  1
  O  O210  1  0.594166  0.061668  0.552899  1
  O  O211  1  0.905697  0.938352  0.501178  1
  O  O212  1  0.000000  0.451504  0.518304  1
  O  O213  1  0.000000  0.665762  0.532389  1
  O  O214  1  0.500044  0.755525  0.536041  1
  O  O215  1  0.327816  0.250898  0.648354  1
  O  O216  1  0.327662  0.749401  0.585956  1
  O  O217  1  0.365779  0.143583  0.614928  1
  O  O218  1  0.365771  0.856741  0.619359  1
  O  O219  1  0.375857  0.048773  0.638864  1
  O  O220  1  0.375836  0.951545  0.595423  1
  O  O221  1  0.327526  0.895817  0.653140  1
  O  O222  1  0.327440  0.104294  0.581125  1
  O  O223  1  0.407128  0.690313  0.558012  1
  O  O224  1  0.407087  0.309549  0.676338  1
  O  O225  1  0.254967  0.415622  0.675204  1
  O  O226  1  0.254720  0.584455  0.559152  1
  O  O227  1  0.250144  0.212622  0.675053  1
  O  O228  1  0.250450  0.787531  0.559216  1
  O  O229  1  0.672513  0.749398  0.585965  1
  O  O230  1  0.672580  0.250676  0.648348  1
  O  O231  1  0.634555  0.856626  0.619390  1
  O  O232  1  0.634553  0.143470  0.614919  1
  O  O233  1  0.500208  0.189687  0.636559  1
  O  O234  1  0.624440  0.951501  0.595441  1
  O  O235  1  0.624521  0.048612  0.638870  1
  O  O236  1  0.672713  0.104178  0.581105  1
  O  O237  1  0.672536  0.895813  0.653223  1
  O  O238  1  0.500159  0.907339  0.641010  1
  O  O239  1  0.592569  0.310407  0.676249  1
  O  O240  1  0.592625  0.690213  0.558048  1
  O  O241  1  0.745142  0.584426  0.559139  1
  O  O242  1  0.745592  0.415383  0.675163  1
  O  O243  1  0.749239  0.787503  0.559186  1
  O  O244  1  0.748774  0.212345  0.675148  1
  O  O245  1  0.500129  0.092905  0.593281  1
  O  O246  1  0.500148  0.810498  0.597740  1
  O  O247  1  0.172595  0.749543  0.766210  1
  O  O248  1  0.134552  0.143634  0.795204  1
  O  O249  1  0.124529  0.951682  0.775698  1
  O  O250  1  0.172514  0.104476  0.761359  1
  O  O251  1  -0.000000  0.093000  0.773582  1
  O  O252  1  0.402731  0.840773  0.726513  1
  O  O253  1  0.096178  0.159221  0.687991  1
  O  O254  1  0.499692  0.666031  0.712589  1
  O  O255  1  0.401632  0.220277  0.722549  1
  O  O256  1  0.097292  0.780498  0.691910  1
  O  O257  1  0.092574  0.689676  0.738313  1
  O  O258  1  0.404141  0.522103  0.724328  1
  O  O259  1  0.096386  0.477208  0.690303  1
  O  O260  1  0.239661  0.187700  0.736106  1
  O  O261  1  0.259349  0.812721  0.678318  1
  O  O262  1  0.251030  0.186402  0.704901  1
  O  O263  1  0.248192  0.813262  0.709498  1
  O  O264  1  0.275556  0.372007  0.726283  1
  O  O265  1  0.222689  0.628097  0.687877  1
  O  O266  1  0.245623  0.584753  0.739404  1
  O  O267  1  0.250818  0.502657  0.707306  1
  O  O268  1  0.248768  0.787782  0.739411  1
  O  O269  1  0.259022  0.981780  0.734874  1
  O  O270  1  0.240136  0.018404  0.679506  1
  O  O271  1  0.093816  0.061766  0.733145  1
  O  O272  1  0.405344  0.938456  0.681424  1
  O  O273  1  0.000000  0.810565  0.777989  1
  O  O274  1  0.499630  0.845026  0.701036  1
  O  O275  1  0.000000  0.755819  0.716327  1
  O  O276  1  0.499979  0.451646  0.698487  1
  O  O277  1  0.499475  0.056357  0.705419  1
  O  O278  1  0.827803  0.749325  0.766203  1
  O  O279  1  0.865768  0.143524  0.795234  1
  O  O280  1  0.875846  0.951515  0.775704  1
  O  O281  1  0.827546  0.104474  0.761443  1
  O  O282  1  -0.000000  0.155120  0.713538  1
  O  O283  1  0.902734  0.159395  0.688059  1
  O  O284  1  0.596180  0.840950  0.726581  1
  O  O285  1  0.000000  0.334111  0.701980  1
  O  O286  1  0.901634  0.779858  0.692023  1
  O  O287  1  0.597297  0.219635  0.722662  1
  O  O288  1  0.907078  0.690536  0.738224  1
  O  O289  1  0.904131  0.478009  0.690234  1
  O  O290  1  0.596376  0.522903  0.724259  1
  O  O291  1  0.739675  0.812444  0.678465  1
  O  O292  1  0.759364  0.187427  0.736252  1
  O  O293  1  0.751022  0.813798  0.709668  1
  O  O294  1  0.748187  0.186938  0.705071  1
  O  O295  1  0.775542  0.628127  0.688291  1
  O  O296  1  0.722675  0.372038  0.726697  1
  O  O297  1  0.754935  0.584517  0.739362  1
  O  O298  1  0.750827  0.497436  0.707261  1
  O  O299  1  0.750148  0.787505  0.739506  1
  O  O300  1  0.759035  0.018396  0.679709  1
  O  O301  1  0.740149  0.981769  0.735076  1
  O  O302  1  0.593820  0.938386  0.681433  1
  O  O303  1  0.905353  0.061699  0.733154  1
  O  O304  1  0.500319  0.244319  0.698242  1
  O  O305  1  0.000000  0.943793  0.709156  1
  O  O306  1  -0.000000  0.548479  0.716073  1
  O  O307  1  0.134567  0.856693  0.799630  1
  O  O308  1  0.865770  0.856583  0.799622  1
  Si  Si309  1  0.499908  0.058346  0.181891  1
  Si  Si310  1  0.499927  0.454387  0.158352  1
  Si  Si311  1  0.499910  0.202973  0.156728  1
  Si  Si312  1  0.194218  0.300017  0.127149  1
  Si  Si313  1  0.111415  0.163621  0.093667  1
  Si  Si314  1  0.111427  0.922507  0.097491  1
  Si  Si315  1  0.290290  0.756934  0.150627  1
  Si  Si316  1  0.209727  0.242977  0.182277  1
  Si  Si317  1  0.293459  0.506991  0.149129  1
  Si  Si318  1  0.206619  0.493063  0.183829  1
  Si  Si319  1  0.290498  0.142377  0.145966  1
  Si  Si320  1  0.209308  0.857295  0.186957  1
  Si  Si321  1  0.194453  0.912863  0.131841  1
  Si  Si322  1  0.499937  0.814732  0.160768  1
  Si  Si323  1  0.499941  0.670715  0.186620  1
  Si  Si324  1  0.000000  0.941539  0.151107  1
  Si  Si325  1  0.888877  0.163610  0.093697  1
  Si  Si326  1  0.888831  0.922414  0.097481  1
  Si  Si327  1  0.790078  0.242942  0.182239  1
  Si  Si328  1  0.709518  0.756912  0.150590  1
  Si  Si329  1  0.793192  0.493060  0.183804  1
  Si  Si330  1  0.706342  0.506991  0.149104  1
  Si  Si331  1  0.790459  0.857199  0.186924  1
  Si  Si332  1  0.709267  0.142276  0.145933  1
  Si  Si333  1  0.805441  0.912823  0.131815  1
  Si  Si334  1  0.805653  0.299987  0.127145  1
  Si  Si335  1  0.000000  0.796607  0.176227  1
  Si  Si336  1  0.000000  0.329422  0.146382  1
  Si  Si337  1  -0.000000  0.545297  0.174766  1
  Si  Si338  1  0.000000  0.185287  0.172189  1
  Si  Si339  1  0.305587  0.700030  0.205826  1
  Si  Si340  1  0.305675  0.300051  0.307393  1
  Si  Si341  1  0.388925  0.163725  0.273938  1
  Si  Si342  1  0.388873  0.836593  0.239259  1
  Si  Si343  1  0.388885  0.922614  0.277762  1
  Si  Si344  1  0.388828  0.077686  0.235426  1
  Si  Si345  1  0.305073  0.913099  0.312061  1
  Si  Si346  1  0.305191  0.086973  0.201097  1
  Si  Si347  1  0.611415  0.836579  0.239286  1
  Si  Si348  1  0.611467  0.163532  0.273931  1
  Si  Si349  1  0.611428  0.077607  0.235420  1
  Si  Si350  1  0.611481  0.922509  0.277798  1
  Si  Si351  1  0.694704  0.086933  0.201070  1
  Si  Si352  1  0.694354  0.912967  0.312170  1
  Si  Si353  1  0.694276  0.700015  0.205824  1
  Si  Si354  1  0.694286  0.300047  0.307396  1
  Si  Si355  1  0.499577  0.185361  0.352450  1
  Si  Si356  1  0.194301  0.700079  0.386070  1
  Si  Si357  1  0.499561  0.796893  0.356489  1
  Si  Si358  1  0.194334  0.087209  0.381319  1
  Si  Si359  1  0.111465  0.836714  0.419528  1
  Si  Si360  1  0.111485  0.077819  0.415697  1
  Si  Si361  1  0.289720  0.243182  0.362473  1
  Si  Si362  1  0.209155  0.757137  0.330824  1
  Si  Si363  1  0.293453  0.493304  0.364053  1
  Si  Si364  1  0.206618  0.507237  0.329355  1
  Si  Si365  1  0.290050  0.857483  0.367159  1
  Si  Si366  1  0.208860  0.142559  0.326167  1
  Si  Si367  1  0.499568  0.941675  0.331350  1
  Si  Si368  1  0.000000  0.454602  0.338529  1
  Si  Si369  1  0.499987  0.329406  0.326615  1
  Si  Si370  1  0.000000  0.058472  0.362133  1
  Si  Si371  1  0.500070  0.545521  0.354939  1
  Si  Si372  1  0.000000  0.203253  0.336991  1
  Si  Si373  1  0.000000  0.814794  0.341029  1
  Si  Si374  1  0.888924  0.836524  0.419524  1
  Si  Si375  1  0.888879  0.077701  0.415730  1
  Si  Si376  1  0.789719  0.756954  0.331005  1
  Si  Si377  1  0.709155  0.243003  0.362654  1
  Si  Si378  1  0.793442  0.506817  0.329420  1
  Si  Si379  1  0.706608  0.492888  0.364119  1
  Si  Si380  1  0.790054  0.142707  0.326318  1
  Si  Si381  1  0.708862  0.857629  0.367309  1
  Si  Si382  1  0.805100  0.087075  0.381428  1
  Si  Si383  1  0.805653  0.700068  0.386073  1
  Si  Si384  1  -0.000000  0.670703  0.366856  1
  Si  Si385  1  0.499908  0.058346  0.542437  1
  Si  Si386  1  0.499927  0.454387  0.518898  1
  Si  Si387  1  0.499910  0.202973  0.517275  1
  Si  Si388  1  0.194218  0.300017  0.487696  1
  Si  Si389  1  0.111415  0.163621  0.454214  1
  Si  Si390  1  0.111427  0.922507  0.458037  1
  Si  Si391  1  0.290290  0.756934  0.511173  1
  Si  Si392  1  0.209727  0.242977  0.542824  1
  Si  Si393  1  0.293459  0.506991  0.509676  1
  Si  Si394  1  0.206619  0.493063  0.544375  1
  Si  Si395  1  0.290498  0.142377  0.506512  1
  Si  Si396  1  0.209308  0.857295  0.547503  1
  Si  Si397  1  0.194453  0.912863  0.492388  1
  Si  Si398  1  0.499937  0.814732  0.521315  1
  Si  Si399  1  0.499941  0.670715  0.547167  1
  Si  Si400  1  0.000000  0.941539  0.511654  1
  Si  Si401  1  0.888877  0.163610  0.454243  1
  Si  Si402  1  0.888831  0.922414  0.458028  1
  Si  Si403  1  0.790078  0.242942  0.542786  1
  Si  Si404  1  0.709518  0.756912  0.511136  1
  Si  Si405  1  0.793192  0.493060  0.544350  1
  Si  Si406  1  0.706342  0.506991  0.509651  1
  Si  Si407  1  0.790459  0.857199  0.547471  1
  Si  Si408  1  0.709267  0.142276  0.506479  1
  Si  Si409  1  0.805441  0.912823  0.492361  1
  Si  Si410  1  0.805653  0.299987  0.487692  1
  Si  Si411  1  0.000000  0.796607  0.536774  1
  Si  Si412  1  0.000000  0.329422  0.506928  1
  Si  Si413  1  -0.000000  0.545297  0.535313  1
  Si  Si414  1  -0.000000  0.185287  0.532735  1
  Si  Si415  1  0.305587  0.700030  0.566373  1
  Si  Si416  1  0.305675  0.300051  0.667939  1
  Si  Si417  1  0.388925  0.163725  0.634485  1
  Si  Si418  1  0.388873  0.836593  0.599806  1
  Si  Si419  1  0.388885  0.922614  0.638308  1
  Si  Si420  1  0.388828  0.077686  0.595972  1
  Si  Si421  1  0.305073  0.913099  0.672608  1
  Si  Si422  1  0.305191  0.086973  0.561644  1
  Si  Si423  1  0.611415  0.836579  0.599833  1
  Si  Si424  1  0.611467  0.163532  0.634478  1
  Si  Si425  1  0.611428  0.077607  0.595966  1
  Si  Si426  1  0.611481  0.922509  0.638344  1
  Si  Si427  1  0.694704  0.086933  0.561617  1
  Si  Si428  1  0.694354  0.912967  0.672716  1
  Si  Si429  1  0.694276  0.700015  0.566370  1
  Si  Si430  1  0.694286  0.300047  0.667943  1
  Si  Si431  1  0.499577  0.185361  0.712996  1
  Si  Si432  1  0.194301  0.700079  0.746617  1
  Si  Si433  1  0.499561  0.796893  0.717036  1
  Si  Si434  1  0.194334  0.087209  0.741865  1
  Si  Si435  1  0.111465  0.836714  0.780075  1
  Si  Si436  1  0.111485  0.077819  0.776244  1
  Si  Si437  1  0.289720  0.243182  0.723020  1
  Si  Si438  1  0.209155  0.757137  0.691370  1
  Si  Si439  1  0.293453  0.493304  0.724600  1
  Si  Si440  1  0.206618  0.507237  0.689902  1
  Si  Si441  1  0.290050  0.857483  0.727705  1
  Si  Si442  1  0.208860  0.142559  0.686714  1
  Si  Si443  1  0.499568  0.941675  0.691896  1
  Si  Si444  1  0.000000  0.454602  0.699075  1
  Si  Si445  1  0.499987  0.329406  0.687162  1
  Si  Si446  1  0.000000  0.058472  0.722679  1
  Si  Si447  1  0.500070  0.545521  0.715486  1
  Si  Si448  1  0.000000  0.203253  0.697538  1
  Si  Si449  1  0.000000  0.814794  0.701575  1
  Si  Si450  1  0.888924  0.836524  0.780071  1
  Si  Si451  1  0.888879  0.077701  0.776277  1
  Si  Si452  1  0.789719  0.756954  0.691552  1
  Si  Si453  1  0.709155  0.243003  0.723201  1
  Si  Si454  1  0.793442  0.506817  0.689967  1
  Si  Si455  1  0.706608  0.492888  0.724666  1
  Si  Si456  1  0.790054  0.142707  0.686864  1
  Si  Si457  1  0.708862  0.857629  0.727856  1
  Si  Si458  1  0.805100  0.087075  0.741975  1
  Si  Si459  1  0.805653  0.700068  0.746619  1
  Si  Si460  1  0.000000  0.670703  0.727402  1
  H  H461  1  0.134552  0.143634  0.063130  1
  H  H462  1  0.865768  0.143524  0.063160  1
  H  H463  1  0.134567  0.856693  0.067556  1
  H  H464  1  0.865770  0.856583  0.067548  1
  H  H465  1  0.134552  0.143634  0.806184  1
  H  H466  1  0.865768  0.143524  0.806215  1
  H  H467  1  0.134567  0.856693  0.810611  1
  H  H468  1  0.865770  0.856583  0.810603  1
