# generated using pymatgen
data_Si36H2O73
_symmetry_space_group_name_H-M   'P 1'
_cell_length_a   7.65737943
_cell_length_b   8.96913389
_cell_length_c   50.85368569
_cell_angle_alpha   90.00000000
_cell_angle_beta   90.00000000
_cell_angle_gamma   90.00000000
_symmetry_Int_Tables_number   1
_chemical_formula_structural   Si36H2O73
_chemical_formula_sum   'Si36 H2 O73'
_cell_volume   3492.6342533
_cell_formula_units_Z   1
loop_
 _symmetry_equiv_pos_site_id
 _symmetry_equiv_pos_as_xyz
  1  'x, y, z'
loop_
 _atom_site_type_symbol
 _atom_site_label
 _atom_site_symmetry_multiplicity
 _atom_site_fract_x
 _atom_site_fract_y
 _atom_site_fract_z
 _atom_site_occupancy
  O  O1  1  0.228496  0.313361  0.392807  1
  O  O2  1  0.770877  0.314105  0.220150  1
  O  O3  1  0.770797  0.686880  0.202270  1
  O  O4  1  0.228762  0.686675  0.202216  1
  O  O5  1  0.770907  0.313422  0.392806  1
  O  O6  1  0.228637  0.314253  0.220206  1
  O  O7  1  0.000000  0.250733  0.186338  1
  O  O8  1  0.000000  0.749265  0.376913  1
  O  O9  1  -0.000000  0.750109  0.236076  1
  O  O10  1  0.766410  0.447865  0.176794  1
  O  O11  1  0.233410  0.552472  0.367362  1
  O  O12  1  0.766355  0.553060  0.245627  1
  O  O13  1  0.766102  0.552553  0.367366  1
  O  O14  1  0.233580  0.553601  0.245623  1
  O  O15  1  0.233540  0.447277  0.176800  1
  O  O16  1  0.665938  0.168193  0.180374  1
  O  O17  1  0.333249  0.832636  0.371129  1
  O  O18  1  0.666017  0.832720  0.242055  1
  O  O19  1  0.666394  0.832752  0.371147  1
  O  O20  1  0.332932  0.834217  0.241673  1
  O  O21  1  0.332948  0.166654  0.180755  1
  O  O22  1  0.665541  0.698171  0.154885  1
  O  O23  1  0.334039  0.301901  0.345465  1
  O  O24  1  0.665520  0.302676  0.267524  1
  O  O25  1  0.665366  0.301999  0.345466  1
  O  O26  1  0.334204  0.303052  0.267539  1
  O  O27  1  0.334291  0.697742  0.154875  1
  O  O28  1  -0.000000  0.644053  0.167385  1
  O  O29  1  0.000000  0.356172  0.357941  1
  O  O30  1  0.000000  0.356934  0.255044  1
  O  O31  1  0.499620  0.002817  0.401362  1
  O  O32  1  0.503855  0.001731  0.211397  1
  O  O33  1  0.499612  0.938515  0.162059  1
  O  O34  1  0.499779  0.060249  0.352042  1
  O  O35  1  0.499588  0.061606  0.260727  1
  O  O36  1  0.499736  0.187749  0.306460  1
  O  O37  1  0.499737  0.813974  0.116019  1
  O  O38  1  0.770877  0.314105  0.601029  1
  O  O39  1  0.228850  0.685980  0.410745  1
  O  O40  1  0.770797  0.686880  0.583148  1
  O  O41  1  0.770762  0.686040  0.410751  1
  O  O42  1  0.228762  0.686675  0.583095  1
  O  O43  1  0.228637  0.314253  0.601085  1
  O  O44  1  0.000000  0.249851  0.426666  1
  O  O45  1  0.000000  0.250733  0.567216  1
  O  O46  1  0.000000  0.750109  0.616955  1
  O  O47  1  0.233271  0.446722  0.436187  1
  O  O48  1  0.766410  0.447865  0.557672  1
  O  O49  1  0.766355  0.553060  0.626505  1
  O  O50  1  0.233580  0.553601  0.626501  1
  O  O51  1  0.766218  0.446769  0.436188  1
  O  O52  1  0.233540  0.447277  0.557678  1
  O  O53  1  0.333219  0.166608  0.432445  1
  O  O54  1  0.665938  0.168193  0.561252  1
  O  O55  1  0.666017  0.832720  0.622933  1
  O  O56  1  0.332932  0.834217  0.622551  1
  O  O57  1  0.666176  0.166643  0.432436  1
  O  O58  1  0.332948  0.166654  0.561634  1
  O  O59  1  0.334186  0.697002  0.458114  1
  O  O60  1  0.665541  0.698171  0.535763  1
  O  O61  1  0.665520  0.302676  0.648403  1
  O  O62  1  0.334204  0.303052  0.648417  1
  O  O63  1  0.665427  0.697062  0.458119  1
  O  O64  1  0.334291  0.697742  0.535753  1
  O  O65  1  0.000000  0.643319  0.445585  1
  O  O66  1  0.000000  0.644053  0.548263  1
  O  O67  1  0.000000  0.356934  0.635922  1
  O  O68  1  0.503855  0.001731  0.592275  1
  O  O69  1  0.499748  0.937127  0.450707  1
  O  O70  1  0.499612  0.938515  0.542937  1
  O  O71  1  0.499588  0.061606  0.641605  1
  O  O72  1  0.499736  0.187749  0.687338  1
  O  O73  1  0.499737  0.813974  0.496897  1
  Si  Si74  1  0.799605  0.290280  0.189750  1
  Si  Si75  1  0.200045  0.709978  0.380358  1
  Si  Si76  1  0.799603  0.710639  0.232670  1
  Si  Si77  1  0.799553  0.710039  0.380365  1
  Si  Si78  1  0.200063  0.711006  0.232586  1
  Si  Si79  1  0.200014  0.289874  0.189835  1
  Si  Si80  1  0.799399  0.620986  0.173899  1
  Si  Si81  1  0.200210  0.379340  0.364448  1
  Si  Si82  1  0.799367  0.379946  0.248523  1
  Si  Si83  1  0.799221  0.379409  0.364447  1
  Si  Si84  1  0.200338  0.380436  0.248554  1
  Si  Si85  1  0.200381  0.620456  0.173869  1
  Si  Si86  1  0.500094  0.065704  0.182916  1
  Si  Si87  1  0.499772  0.934396  0.373205  1
  Si  Si88  1  0.500102  0.935182  0.239691  1
  Si  Si89  1  0.499741  0.211982  0.276127  1
  Si  Si90  1  0.499740  0.211243  0.336813  1
  Si  Si91  1  0.499769  0.789148  0.146364  1
  Si  Si92  1  0.199883  0.289222  0.423198  1
  Si  Si93  1  0.799605  0.290280  0.570628  1
  Si  Si94  1  0.799603  0.710639  0.613548  1
  Si  Si95  1  0.200063  0.711006  0.613464  1
  Si  Si96  1  0.799516  0.289264  0.423195  1
  Si  Si97  1  0.200014  0.289874  0.570713  1
  Si  Si98  1  0.200279  0.619878  0.439098  1
  Si  Si99  1  0.799399  0.620986  0.554777  1
  Si  Si100  1  0.799367  0.379946  0.629401  1
  Si  Si101  1  0.200338  0.380436  0.629432  1
  Si  Si102  1  0.799313  0.619912  0.439103  1
  Si  Si103  1  0.200381  0.620456  0.554747  1
  Si  Si104  1  0.499713  0.064908  0.429980  1
  Si  Si105  1  0.500094  0.065704  0.563794  1
  Si  Si106  1  0.500102  0.935182  0.620569  1
  Si  Si107  1  0.499741  0.211982  0.657006  1
  Si  Si108  1  0.499769  0.789148  0.527242  1
  Si  Si109  1  0.499778  0.788400  0.466574  1
  H  H110  1  0.499737  0.813974  0.098321  1
  H  H111  1  0.499736  0.187749  0.705036  1
