# generated using pymatgen
data_Si5H2O11
_symmetry_space_group_name_H-M   'P 1'
_cell_length_a   8.52920369
_cell_length_b   27.82197427
_cell_length_c   32.66910282
_cell_angle_alpha   90.00000000
_cell_angle_beta   90.00000000
_cell_angle_gamma   90.00000000
_symmetry_Int_Tables_number   1
_chemical_formula_structural   Si5H2O11
_chemical_formula_sum   'Si40 H16 O88'
_cell_volume   7752.35475989
_cell_formula_units_Z   8
loop_
 _symmetry_equiv_pos_site_id
 _symmetry_equiv_pos_as_xyz
  1  'x, y, z'
loop_
 _atom_site_type_symbol
 _atom_site_label
 _atom_site_symmetry_multiplicity
 _atom_site_fract_x
 _atom_site_fract_y
 _atom_site_fract_z
 _atom_site_occupancy
  O  O1  1  0.327100  0.533523  0.183445  1
  O  O2  1  0.176353  0.966255  0.183981  1
  O  O3  1  0.321478  0.624489  0.204319  1
  O  O4  1  0.176340  0.875067  0.204946  1
  O  O5  1  0.166191  0.785574  0.180699  1
  O  O6  1  0.332799  0.713893  0.180599  1
  O  O7  1  0.832377  0.033774  0.250969  1
  O  O8  1  0.131390  0.033798  0.392552  1
  O  O9  1  0.672397  0.033212  0.314351  1
  O  O10  1  0.373473  0.033149  0.434449  1
  O  O11  1  0.327100  0.533523  0.445070  1
  O  O12  1  0.626301  0.534527  0.302809  1
  O  O13  1  0.177722  0.534600  0.380507  1
  O  O14  1  0.871775  0.534390  0.262379  1
  O  O15  1  0.176353  0.966255  0.445605  1
  O  O16  1  0.875137  0.966110  0.302180  1
  O  O17  1  0.326877  0.965683  0.380832  1
  O  O18  1  0.627540  0.965881  0.262800  1
  O  O19  1  0.663818  0.468644  0.249148  1
  O  O20  1  0.372389  0.467428  0.391742  1
  O  O21  1  0.818152  0.466039  0.313283  1
  O  O22  1  0.127252  0.466773  0.431921  1
  O  O23  1  0.645191  0.064601  0.459996  1
  O  O24  1  0.929274  0.065233  0.441857  1
  O  O25  1  0.861393  0.064415  0.367487  1
  O  O26  1  0.578033  0.062832  0.385753  1
  O  O27  1  0.144580  0.564515  0.236514  1
  O  O28  1  0.427861  0.566032  0.253711  1
  O  O29  1  0.359000  0.567237  0.327468  1
  O  O30  1  0.076613  0.565484  0.310248  1
  O  O31  1  0.358640  0.933824  0.236723  1
  O  O32  1  0.076939  0.934585  0.254638  1
  O  O33  1  0.145109  0.933715  0.328350  1
  O  O34  1  0.426882  0.933065  0.310424  1
  O  O35  1  0.854851  0.436315  0.459054  1
  O  O36  1  0.570820  0.435189  0.441239  1
  O  O37  1  0.639906  0.434723  0.367421  1
  O  O38  1  0.922257  0.435945  0.384779  1
  O  O39  1  0.053244  0.124396  0.393885  1
  O  O40  1  0.674643  0.123224  0.336235  1
  O  O41  1  0.455101  0.123477  0.432120  1
  O  O42  1  0.552865  0.625543  0.300684  1
  O  O43  1  0.176310  0.625373  0.359965  1
  O  O44  1  0.956356  0.624565  0.262683  1
  O  O45  1  0.955271  0.874817  0.301158  1
  O  O46  1  0.323658  0.874090  0.360263  1
  O  O47  1  0.549243  0.874341  0.262783  1
  O  O48  1  0.445027  0.376280  0.393407  1
  O  O49  1  0.820925  0.375677  0.335428  1
  O  O50  1  0.043579  0.376478  0.432090  1
  O  O51  1  0.835936  0.286197  0.311734  1
  O  O52  1  0.358402  0.286740  0.389443  1
  O  O53  1  0.657620  0.286057  0.251677  1
  O  O54  1  0.129904  0.286302  0.436435  1
  O  O55  1  0.339359  0.784078  0.381989  1
  O  O56  1  0.862690  0.785494  0.303513  1
  O  O57  1  0.166191  0.785574  0.442323  1
  O  O58  1  0.632053  0.784139  0.258198  1
  O  O59  1  0.160263  0.715443  0.381765  1
  O  O60  1  0.632175  0.715471  0.305076  1
  O  O61  1  0.332799  0.713893  0.442223  1
  O  O62  1  0.863232  0.713920  0.259901  1
  O  O63  1  0.666319  0.213924  0.312846  1
  O  O64  1  0.131785  0.215925  0.389564  1
  O  O65  1  0.839936  0.216048  0.251670  1
  O  O66  1  0.366934  0.214583  0.434730  1
  O  O67  1  0.650146  0.184481  0.459214  1
  O  O68  1  0.933079  0.184316  0.441155  1
  O  O69  1  0.852452  0.183719  0.368154  1
  O  O70  1  0.569950  0.184998  0.385767  1
  O  O71  1  0.145978  0.685495  0.235573  1
  O  O72  1  0.427294  0.685281  0.254353  1
  O  O73  1  0.355425  0.685177  0.328145  1
  O  O74  1  0.074526  0.685416  0.308867  1
  O  O75  1  0.353446  0.814380  0.235812  1
  O  O76  1  0.073111  0.814014  0.254662  1
  O  O77  1  0.145422  0.813726  0.328220  1
  O  O78  1  0.427494  0.814008  0.309207  1
  O  O79  1  0.848580  0.316414  0.459686  1
  O  O80  1  0.565943  0.316452  0.440380  1
  O  O81  1  0.640147  0.315260  0.366399  1
  O  O82  1  0.922662  0.314978  0.385967  1
  O  O83  1  0.832377  0.033774  0.512594  1
  O  O84  1  0.663818  0.468644  0.510773  1
  O  O85  1  0.826440  0.124560  0.492405  1
  O  O86  1  0.672375  0.376982  0.491953  1
  O  O87  1  0.657620  0.286057  0.513302  1
  O  O88  1  0.839936  0.216048  0.513295  1
  Si  Si89  1  0.002054  0.071284  0.397899  1
  Si  Si90  1  0.692638  0.069951  0.348701  1
  Si  Si91  1  0.504523  0.070151  0.429440  1
  Si  Si92  1  0.310062  0.571622  0.217760  1
  Si  Si93  1  0.499948  0.572850  0.297378  1
  Si  Si94  1  0.192016  0.572753  0.346209  1
  Si  Si95  1  0.007100  0.571709  0.266695  1
  Si  Si96  1  0.191798  0.927846  0.218574  1
  Si  Si97  1  0.007496  0.927655  0.298085  1
  Si  Si98  1  0.311487  0.926823  0.346524  1
  Si  Si99  1  0.496356  0.926974  0.266840  1
  Si  Si100  1  0.687139  0.429903  0.478162  1
  Si  Si101  1  0.498570  0.429026  0.397290  1
  Si  Si102  1  0.806758  0.428723  0.348744  1
  Si  Si103  1  0.992855  0.429428  0.428305  1
  Si  Si104  1  0.507225  0.176590  0.429348  1
  Si  Si105  1  0.001250  0.177608  0.396349  1
  Si  Si106  1  0.682128  0.176346  0.349910  1
  Si  Si107  1  0.004758  0.677829  0.264949  1
  Si  Si108  1  0.313371  0.677611  0.217412  1
  Si  Si109  1  0.499131  0.678325  0.298446  1
  Si  Si110  1  0.185743  0.678631  0.346727  1
  Si  Si111  1  0.498171  0.821062  0.264919  1
  Si  Si112  1  0.185096  0.821747  0.217641  1
  Si  Si113  1  0.004183  0.821564  0.298502  1
  Si  Si114  1  0.314352  0.820858  0.346854  1
  Si  Si115  1  0.993722  0.323046  0.430281  1
  Si  Si116  1  0.678722  0.323754  0.478345  1
  Si  Si117  1  0.495040  0.323000  0.395803  1
  Si  Si118  1  0.810823  0.322003  0.347973  1
  Si  Si119  1  0.751510  0.001127  0.282334  1
  Si  Si120  1  0.252161  0.001014  0.413169  1
  Si  Si121  1  0.252648  0.500161  0.412367  1
  Si  Si122  1  0.741920  0.501003  0.281081  1
  Si  Si123  1  0.750137  0.251356  0.280971  1
  Si  Si124  1  0.243794  0.251900  0.412488  1
  Si  Si125  1  0.249370  0.749719  0.411132  1
  Si  Si126  1  0.743725  0.749731  0.281598  1
  Si  Si127  1  0.813430  0.071430  0.478867  1
  Si  Si128  1  0.818819  0.177843  0.478854  1
  H  H129  1  0.327100  0.533523  0.155896  1
  H  H130  1  0.176353  0.966255  0.156432  1
  H  H131  1  0.166191  0.785574  0.153150  1
  H  H132  1  0.332799  0.713893  0.153050  1
  H  H133  1  0.832377  0.033774  0.223421  1
  H  H134  1  0.327100  0.533523  0.472619  1
  H  H135  1  0.176353  0.966255  0.473154  1
  H  H136  1  0.663818  0.468644  0.221599  1
  H  H137  1  0.657620  0.286057  0.224128  1
  H  H138  1  0.166191  0.785574  0.469872  1
  H  H139  1  0.332799  0.713893  0.469772  1
  H  H140  1  0.839936  0.216048  0.224121  1
  H  H141  1  0.832377  0.033774  0.540143  1
  H  H142  1  0.663818  0.468644  0.538322  1
  H  H143  1  0.657620  0.286057  0.540851  1
  H  H144  1  0.839936  0.216048  0.540844  1
