# generated using pymatgen
data_Si19H6O41
_symmetry_space_group_name_H-M   'P 1'
_cell_length_a   21.88992159
_cell_length_b   39.14737771
_cell_length_c   34.42082956
_cell_angle_alpha   90.00000000
_cell_angle_beta   90.00000000
_cell_angle_gamma   90.00000000
_symmetry_Int_Tables_number   1
_chemical_formula_structural   Si19H6O41
_chemical_formula_sum   'Si152 H48 O328'
_cell_volume   29496.3457205
_cell_formula_units_Z   8
loop_
 _symmetry_equiv_pos_site_id
 _symmetry_equiv_pos_as_xyz
  1  'x, y, z'
loop_
 _atom_site_type_symbol
 _atom_site_label
 _atom_site_symmetry_multiplicity
 _atom_site_fract_x
 _atom_site_fract_y
 _atom_site_fract_z
 _atom_site_occupancy
  O  O1  1  0.181872  0.305580  0.292986  1
  O  O2  1  0.317780  -0.000000  0.292808  1
  O  O3  1  0.295660  0.291226  0.292755  1
  O  O4  1  0.222266  0.241314  0.302711  1
  O  O5  1  0.274157  0.063275  0.303231  1
  O  O6  1  0.203097  0.013323  0.291375  1
  O  O7  1  0.398648  0.272506  0.317656  1
  O  O8  1  0.387795  0.280331  0.245387  1
  O  O9  1  0.295055  0.189027  0.292065  1
  O  O10  1  0.179782  0.178018  0.293085  1
  O  O11  1  0.110070  0.017307  0.244941  1
  O  O12  1  0.098013  0.022123  0.317687  1
  O  O13  1  0.200887  0.115078  0.291924  1
  O  O14  1  0.314829  0.126019  0.291856  1
  O  O15  1  0.421930  0.218385  0.354704  1
  O  O16  1  0.382189  0.164797  0.244988  1
  O  O17  1  0.395922  0.165742  0.317667  1
  O  O18  1  0.114764  0.137151  0.245176  1
  O  O19  1  0.100547  0.134133  0.317961  1
  O  O20  1  -0.000000  0.032548  0.222932  1
  O  O21  1  0.082404  0.032514  0.171408  1
  O  O22  1  0.079483  0.078439  0.223022  1
  O  O23  1  0.389882  0.331891  0.291078  1
  O  O24  1  0.082125  0.124337  0.171408  1
  O  O25  1  0.000000  0.124630  0.223778  1
  O  O26  1  0.101627  0.348087  0.317806  1
  O  O27  1  0.115815  0.344763  0.245524  1
  O  O28  1  0.199757  0.370377  0.291871  1
  O  O29  1  0.113249  0.461437  0.245040  1
  O  O30  1  0.098479  0.459543  0.317809  1
  O  O31  1  0.182165  0.500627  0.292808  1
  O  O32  1  0.191910  0.435882  0.291723  1
  O  O33  1  0.295445  0.412199  0.301739  1
  O  O34  1  0.225795  0.563283  0.303248  1
  O  O35  1  0.296851  0.513335  0.291370  1
  O  O36  1  0.406709  0.398363  0.301643  1
  O  O37  1  0.371274  0.463864  0.289599  1
  O  O38  1  0.499975  0.532549  0.222938  1
  O  O39  1  0.389908  0.517320  0.244954  1
  O  O40  1  0.401918  0.522151  0.317703  1
  O  O41  1  0.299078  0.615080  0.291935  1
  O  O42  1  0.185128  0.626027  0.291888  1
  O  O43  1  0.117786  0.664791  0.245002  1
  O  O44  1  0.104041  0.665761  0.317683  1
  O  O45  1  0.385223  0.637153  0.245193  1
  O  O46  1  0.399420  0.634130  0.317976  1
  O  O47  1  0.417575  0.532519  0.171421  1
  O  O48  1  0.420513  0.578445  0.223036  1
  O  O49  1  0.417865  0.624342  0.171425  1
  O  O50  1  0.499982  0.624633  0.223788  1
  O  O51  1  0.499994  0.357288  0.299761  1
  O  O52  1  0.318106  0.805570  0.292999  1
  O  O53  1  0.398340  0.848073  0.317832  1
  O  O54  1  0.384210  0.844744  0.245547  1
  O  O55  1  0.300230  0.870364  0.291867  1
  O  O56  1  0.386724  0.961422  0.245070  1
  O  O57  1  0.401451  0.959540  0.317844  1
  O  O58  1  0.308044  0.935868  0.291738  1
  O  O59  1  0.204518  0.912172  0.301737  1
  O  O60  1  0.204310  0.791221  0.292782  1
  O  O61  1  0.277710  0.741310  0.302733  1
  O  O62  1  0.093251  0.898344  0.301650  1
  O  O63  1  0.128696  0.963842  0.289583  1
  O  O64  1  0.110069  0.831871  0.291107  1
  O  O65  1  0.101336  0.772486  0.317693  1
  O  O66  1  0.112178  0.780311  0.245420  1
  O  O67  1  0.204917  0.689029  0.292083  1
  O  O68  1  0.320194  0.678016  0.293102  1
  O  O69  1  0.082319  0.767526  0.171431  1
  O  O70  1  0.077889  0.721113  0.222280  1
  O  O71  1  0.081815  0.674838  0.171419  1
  O  O72  1  0.818136  0.305566  0.292995  1
  O  O73  1  0.682193  0.000000  0.292805  1
  O  O74  1  0.704345  0.291218  0.292762  1
  O  O75  1  0.777742  0.241303  0.302722  1
  O  O76  1  0.725828  0.063274  0.303243  1
  O  O77  1  0.796887  0.013331  0.291369  1
  O  O78  1  0.601372  0.272490  0.317672  1
  O  O79  1  0.612205  0.280321  0.245401  1
  O  O80  1  0.704952  0.189021  0.292075  1
  O  O81  1  0.820228  0.178009  0.293098  1
  O  O82  1  0.889951  0.017312  0.244955  1
  O  O83  1  0.901957  0.022142  0.317703  1
  O  O84  1  0.799115  0.115071  0.291929  1
  O  O85  1  0.685169  0.126019  0.291870  1
  O  O86  1  0.617810  0.164793  0.244999  1
  O  O87  1  0.604086  0.165746  0.317683  1
  O  O88  1  0.885258  0.137147  0.245189  1
  O  O89  1  0.899453  0.134123  0.317973  1
  O  O90  1  0.917609  0.032514  0.171420  1
  O  O91  1  0.920546  0.078439  0.223033  1
  O  O92  1  0.917894  0.124337  0.171420  1
  O  O93  1  0.610110  0.331878  0.291093  1
  O  O94  1  0.898359  0.348079  0.317826  1
  O  O95  1  0.884219  0.344744  0.245541  1
  O  O96  1  0.800240  0.370361  0.291867  1
  O  O97  1  0.886726  0.461423  0.245063  1
  O  O98  1  0.901461  0.459544  0.317837  1
  O  O99  1  0.817769  0.500612  0.292807  1
  O  O100  1  0.808062  0.435865  0.291738  1
  O  O101  1  0.704537  0.412180  0.301740  1
  O  O102  1  0.774162  0.563272  0.303249  1
  O  O103  1  0.703083  0.513336  0.291377  1
  O  O104  1  0.593279  0.398350  0.301650  1
  O  O105  1  0.628704  0.463849  0.289594  1
  O  O106  1  0.610037  0.517308  0.244952  1
  O  O107  1  0.597999  0.522126  0.317699  1
  O  O108  1  0.700874  0.615068  0.291936  1
  O  O109  1  0.814815  0.626020  0.291879  1
  O  O110  1  0.882156  0.664791  0.245000  1
  O  O111  1  0.895893  0.665756  0.317683  1
  O  O112  1  0.614741  0.637142  0.245189  1
  O  O113  1  0.600528  0.634116  0.317972  1
  O  O114  1  0.582369  0.532509  0.171418  1
  O  O115  1  0.579445  0.578437  0.223032  1
  O  O116  1  0.582096  0.624333  0.171421  1
  O  O117  1  0.681841  0.805577  0.292998  1
  O  O118  1  0.601607  0.848092  0.317806  1
  O  O119  1  0.615806  0.844766  0.245525  1
  O  O120  1  0.699749  0.870373  0.291880  1
  O  O121  1  0.613248  0.961442  0.245042  1
  O  O122  1  0.598482  0.959550  0.317812  1
  O  O123  1  0.691897  0.935876  0.291723  1
  O  O124  1  0.795432  0.912202  0.301743  1
  O  O125  1  0.795624  0.791213  0.292772  1
  O  O126  1  0.722218  0.741307  0.302727  1
  O  O127  1  0.906684  0.898352  0.301659  1
  O  O128  1  0.871292  0.963857  0.289604  1
  O  O129  1  0.889845  0.831878  0.291107  1
  O  O130  1  0.898601  0.772493  0.317690  1
  O  O131  1  0.887770  0.780316  0.245417  1
  O  O132  1  0.795019  0.689025  0.292077  1
  O  O133  1  0.679748  0.678008  0.293102  1
  O  O134  1  0.917627  0.767528  0.171431  1
  O  O135  1  0.922054  0.721115  0.222279  1
  O  O136  1  -0.000000  0.674296  0.224268  1
  O  O137  1  0.918126  0.674841  0.171420  1
  O  O138  1  -0.000000  0.857279  0.299779  1
  O  O139  1  0.000000  0.767785  0.223273  1
  O  O140  1  0.181869  0.305577  0.416470  1
  O  O141  1  0.317787  0.000000  0.416664  1
  O  O142  1  0.295659  0.291212  0.416703  1
  O  O143  1  0.222248  0.241311  0.406740  1
  O  O144  1  0.235196  0.286276  0.354728  1
  O  O145  1  0.274183  0.063280  0.406229  1
  O  O146  1  0.261172  0.017703  0.354735  1
  O  O147  1  0.203106  0.013337  0.418100  1
  O  O148  1  0.398636  0.272487  0.391788  1
  O  O149  1  0.387806  0.280316  0.464061  1
  O  O150  1  0.295051  0.189031  0.417392  1
  O  O151  1  0.179778  0.178014  0.416371  1
  O  O152  1  0.235679  0.196331  0.354727  1
  O  O153  1  0.110056  0.017312  0.464519  1
  O  O154  1  0.098034  0.022138  0.391771  1
  O  O155  1  0.200908  0.115077  0.417543  1
  O  O156  1  0.260614  0.108623  0.354729  1
  O  O157  1  0.314852  0.126029  0.417588  1
  O  O158  1  0.417661  0.267532  0.538052  1
  O  O159  1  0.422087  0.221119  0.487201  1
  O  O160  1  0.082847  0.078270  0.354719  1
  O  O161  1  0.382193  0.164797  0.464470  1
  O  O162  1  0.395929  0.165767  0.391791  1
  O  O163  1  0.114763  0.137148  0.464286  1
  O  O164  1  0.100564  0.134119  0.391504  1
  O  O165  1  0.389876  0.331874  0.418368  1
  O  O166  1  0.082404  0.032514  0.538054  1
  O  O167  1  0.079469  0.078441  0.486440  1
  O  O168  1  -0.000000  0.124634  0.485695  1
  O  O169  1  0.418155  0.174847  0.538055  1
  O  O170  1  0.082125  0.124337  0.538054  1
  O  O171  1  0.000000  0.123162  0.354744  1
  O  O172  1  0.499999  0.171202  0.354727  1
  O  O173  1  0.101632  0.348082  0.391639  1
  O  O174  1  0.115789  0.344759  0.463924  1
  O  O175  1  0.199748  0.370373  0.417588  1
  O  O176  1  0.113210  0.461437  0.464401  1
  O  O177  1  0.098496  0.459552  0.391624  1
  O  O178  1  0.182174  0.500623  0.416665  1
  O  O179  1  0.191895  0.435877  0.417740  1
  O  O180  1  0.499975  0.623162  0.354745  1
  O  O181  1  0.295435  0.412196  0.407732  1
  O  O182  1  0.218602  0.403918  0.354731  1
  O  O183  1  0.417124  0.578279  0.354756  1
  O  O184  1  0.077596  0.402863  0.354727  1
  O  O185  1  0.225815  0.563277  0.406242  1
  O  O186  1  0.238792  0.517703  0.354739  1
  O  O187  1  0.296864  0.513325  0.418105  1
  O  O188  1  0.406693  0.398349  0.407826  1
  O  O189  1  0.361985  0.435136  0.354739  1
  O  O190  1  0.371279  0.463853  0.419888  1
  O  O191  1  0.499962  0.533281  0.354735  1
  O  O192  1  0.389905  0.517315  0.464534  1
  O  O193  1  0.401941  0.522137  0.391788  1
  O  O194  1  0.299089  0.615078  0.417559  1
  O  O195  1  0.239373  0.608626  0.354749  1
  O  O196  1  0.185141  0.626020  0.417617  1
  O  O197  1  0.424344  0.355976  0.354727  1
  O  O198  1  0.499981  0.357283  0.409702  1
  O  O199  1  0.117777  0.664795  0.464485  1
  O  O200  1  0.104047  0.665738  0.391803  1
  O  O201  1  0.385222  0.637155  0.464303  1
  O  O202  1  0.399425  0.634139  0.391520  1
  O  O203  1  0.499969  0.532549  0.486547  1
  O  O204  1  0.417575  0.532519  0.538067  1
  O  O205  1  0.420506  0.578445  0.486455  1
  O  O206  1  0.417865  0.624342  0.538070  1
  O  O207  1  0.499978  0.624632  0.485704  1
  O  O208  1  0.318101  0.805572  0.416491  1
  O  O209  1  0.398348  0.848076  0.391664  1
  O  O210  1  0.384174  0.844750  0.463949  1
  O  O211  1  0.300220  0.870367  0.417607  1
  O  O212  1  0.386679  0.961421  0.464431  1
  O  O213  1  0.401474  0.959533  0.391661  1
  O  O214  1  0.308034  0.935872  0.417731  1
  O  O215  1  0.204513  0.912178  0.407729  1
  O  O216  1  0.281352  0.903886  0.354735  1
  O  O217  1  0.204306  0.791228  0.416719  1
  O  O218  1  0.277697  0.741311  0.406765  1
  O  O219  1  0.264783  0.786275  0.354749  1
  O  O220  1  0.093247  0.898358  0.407828  1
  O  O221  1  0.137985  0.935127  0.354731  1
  O  O222  1  0.128704  0.963855  0.419874  1
  O  O223  1  0.110074  0.831887  0.418397  1
  O  O224  1  0.101322  0.772499  0.391825  1
  O  O225  1  0.112176  0.780330  0.464093  1
  O  O226  1  0.204911  0.689025  0.417406  1
  O  O227  1  0.320188  0.678019  0.416395  1
  O  O228  1  0.264295  0.696329  0.354747  1
  O  O229  1  0.075601  0.855969  0.354749  1
  O  O230  1  0.078036  0.718381  0.354769  1
  O  O231  1  0.422366  0.902854  0.354745  1
  O  O232  1  0.499979  0.855591  0.354735  1
  O  O233  1  0.499974  0.949643  0.354732  1
  O  O234  1  0.818131  0.305566  0.416479  1
  O  O235  1  0.682189  0.000000  0.416665  1
  O  O236  1  0.704336  0.291224  0.416704  1
  O  O237  1  0.777729  0.241305  0.406756  1
  O  O238  1  0.764807  0.286267  0.354736  1
  O  O239  1  0.725824  0.063274  0.406231  1
  O  O240  1  0.738817  0.017694  0.354737  1
  O  O241  1  0.796883  0.013333  0.418106  1
  O  O242  1  0.601356  0.272492  0.391805  1
  O  O243  1  0.612213  0.280319  0.464075  1
  O  O244  1  0.704941  0.189021  0.417400  1
  O  O245  1  0.820216  0.178012  0.416389  1
  O  O246  1  0.764327  0.196323  0.354740  1
  O  O247  1  0.889930  0.017315  0.464534  1
  O  O248  1  0.901968  0.022130  0.391787  1
  O  O249  1  0.799108  0.115072  0.417552  1
  O  O250  1  0.739399  0.108621  0.354738  1
  O  O251  1  0.685157  0.126019  0.417601  1
  O  O252  1  0.582351  0.267526  0.538061  1
  O  O253  1  0.577929  0.221117  0.487207  1
  O  O254  1  0.617816  0.164788  0.464484  1
  O  O255  1  0.604068  0.165746  0.391804  1
  O  O256  1  0.885242  0.137148  0.464299  1
  O  O257  1  0.899450  0.134131  0.391517  1
  O  O258  1  0.917609  0.032514  0.538066  1
  O  O259  1  0.920536  0.078442  0.486453  1
  O  O260  1  0.581849  0.174841  0.538064  1
  O  O261  1  0.917894  0.124337  0.538065  1
  O  O262  1  0.917156  0.078273  0.354754  1
  O  O263  1  0.578073  0.218380  0.354739  1
  O  O264  1  0.500009  0.267786  0.486214  1
  O  O265  1  0.000000  0.032549  0.486541  1
  O  O266  1  0.610096  0.331878  0.418384  1
  O  O267  1  0.000000  0.033282  0.354739  1
  O  O268  1  0.500006  0.174301  0.485211  1
  O  O269  1  0.500003  0.265707  0.354728  1
  O  O270  1  0.898367  0.348077  0.391659  1
  O  O271  1  0.884196  0.344743  0.463942  1
  O  O272  1  0.800237  0.370359  0.417605  1
  O  O273  1  0.886693  0.461418  0.464425  1
  O  O274  1  0.901466  0.459542  0.391653  1
  O  O275  1  0.817759  0.500610  0.416674  1
  O  O276  1  0.808051  0.435864  0.417735  1
  O  O277  1  0.704530  0.412174  0.407735  1
  O  O278  1  0.781366  0.403884  0.354737  1
  O  O279  1  0.774153  0.563270  0.406239  1
  O  O280  1  0.761158  0.517693  0.354741  1
  O  O281  1  0.703072  0.513334  0.418102  1
  O  O282  1  0.593267  0.398349  0.407825  1
  O  O283  1  0.638005  0.435129  0.354739  1
  O  O284  1  0.628700  0.463845  0.419889  1
  O  O285  1  0.610028  0.517306  0.464529  1
  O  O286  1  0.597985  0.522119  0.391782  1
  O  O287  1  0.700869  0.615068  0.417553  1
  O  O288  1  0.760590  0.608619  0.354746  1
  O  O289  1  0.814809  0.626019  0.417616  1
  O  O290  1  0.575630  0.355966  0.354736  1
  O  O291  1  -0.000000  0.355592  0.354732  1
  O  O292  1  0.882159  0.664798  0.464486  1
  O  O293  1  0.895889  0.665747  0.391804  1
  O  O294  1  0.614734  0.637144  0.464298  1
  O  O295  1  0.600527  0.634118  0.391515  1
  O  O296  1  0.582369  0.532509  0.538064  1
  O  O297  1  0.579441  0.578436  0.486452  1
  O  O298  1  0.582096  0.624333  0.538066  1
  O  O299  1  0.922374  0.402859  0.354744  1
  O  O300  1  0.000000  0.449643  0.354735  1
  O  O301  1  0.582814  0.578263  0.354746  1
  O  O302  1  0.681837  0.805574  0.416481  1
  O  O303  1  0.601614  0.848083  0.391639  1
  O  O304  1  0.615765  0.844764  0.463926  1
  O  O305  1  0.699730  0.870372  0.417591  1
  O  O306  1  0.613198  0.961446  0.464403  1
  O  O307  1  0.598491  0.959559  0.391626  1
  O  O308  1  0.691875  0.935875  0.417747  1
  O  O309  1  0.795415  0.912199  0.407741  1
  O  O310  1  0.718589  0.903920  0.354736  1
  O  O311  1  0.795623  0.791215  0.416721  1
  O  O312  1  0.722221  0.741306  0.406758  1
  O  O313  1  0.735162  0.786270  0.354743  1
  O  O314  1  0.921891  0.718382  0.354754  1
  O  O315  1  -0.000000  0.765710  0.354753  1
  O  O316  1  0.906672  0.898351  0.407840  1
  O  O317  1  0.861968  0.935135  0.354748  1
  O  O318  1  0.871271  0.963854  0.419894  1
  O  O319  1  0.889846  0.831880  0.418395  1
  O  O320  1  0.898608  0.772493  0.391823  1
  O  O321  1  0.887762  0.780327  0.464093  1
  O  O322  1  0.795019  0.689024  0.417406  1
  O  O323  1  0.679748  0.678008  0.416384  1
  O  O324  1  0.735647  0.696326  0.354742  1
  O  O325  1  0.924315  0.855971  0.354750  1
  O  O326  1  0.577587  0.902867  0.354730  1
  O  O327  1  -0.000000  0.857288  0.409720  1
  O  O328  1  -0.000000  0.671202  0.354746  1
  Si  Si329  1  0.232017  0.280734  0.309763  1
  Si  Si330  1  0.265533  0.023907  0.309731  1
  Si  Si331  1  0.365995  0.294345  0.285823  1
  Si  Si332  1  0.232186  0.201845  0.309605  1
  Si  Si333  1  0.134649  0.003745  0.284924  1
  Si  Si334  1  0.263462  0.102521  0.309579  1
  Si  Si335  1  0.346916  0.161522  0.284898  1
  Si  Si336  1  0.148479  0.142197  0.285441  1
  Si  Si337  1  0.070286  0.039048  0.216026  1
  Si  Si338  1  0.070426  0.117887  0.216174  1
  Si  Si339  1  0.150590  0.341291  0.285595  1
  Si  Si340  1  0.146787  0.466291  0.285180  1
  Si  Si341  1  0.226231  0.404534  0.309354  1
  Si  Si342  1  0.234417  0.523914  0.309736  1
  Si  Si343  1  0.360167  0.428252  0.309729  1
  Si  Si344  1  0.365308  0.503766  0.284934  1
  Si  Si345  1  0.236504  0.602528  0.309600  1
  Si  Si346  1  0.430209  0.360853  0.309468  1
  Si  Si347  1  0.153048  0.661529  0.284919  1
  Si  Si348  1  0.351494  0.642195  0.285454  1
  Si  Si349  1  0.429701  0.539054  0.216038  1
  Si  Si350  1  0.429567  0.617893  0.216190  1
  Si  Si351  1  0.349403  0.841277  0.285607  1
  Si  Si352  1  0.353165  0.966278  0.285201  1
  Si  Si353  1  0.273733  0.904511  0.309357  1
  Si  Si354  1  0.267958  0.780730  0.309785  1
  Si  Si355  1  0.139799  0.928233  0.309723  1
  Si  Si356  1  0.133971  0.794328  0.285855  1
  Si  Si357  1  0.267788  0.701842  0.309624  1
  Si  Si358  1  0.069744  0.860838  0.309488  1
  Si  Si359  1  0.070222  0.760553  0.216004  1
  Si  Si360  1  0.070316  0.681591  0.216141  1
  Si  Si361  1  0.767988  0.280723  0.309772  1
  Si  Si362  1  0.734450  0.023906  0.309733  1
  Si  Si363  1  0.634007  0.294335  0.285836  1
  Si  Si364  1  0.767822  0.201835  0.309617  1
  Si  Si365  1  0.865343  0.003759  0.284934  1
  Si  Si366  1  0.736539  0.102520  0.309589  1
  Si  Si367  1  0.653083  0.161521  0.284911  1
  Si  Si368  1  0.851529  0.142188  0.285450  1
  Si  Si369  1  0.929737  0.039048  0.216037  1
  Si  Si370  1  0.929598  0.117887  0.216185  1
  Si  Si371  1  0.849419  0.341278  0.285604  1
  Si  Si372  1  0.853170  0.466280  0.285196  1
  Si  Si373  1  0.773749  0.404510  0.309359  1
  Si  Si374  1  0.765526  0.523904  0.309738  1
  Si  Si375  1  0.639820  0.428240  0.309730  1
  Si  Si376  1  0.634636  0.503753  0.284933  1
  Si  Si377  1  0.763451  0.602518  0.309597  1
  Si  Si378  1  0.569778  0.360842  0.309476  1
  Si  Si379  1  0.846890  0.661526  0.284915  1
  Si  Si380  1  0.648459  0.642183  0.285453  1
  Si  Si381  1  0.570250  0.539045  0.216036  1
  Si  Si382  1  0.570395  0.617884  0.216186  1
  Si  Si383  1  0.650573  0.841291  0.285599  1
  Si  Si384  1  0.646790  0.966293  0.285181  1
  Si  Si385  1  0.726220  0.904531  0.309359  1
  Si  Si386  1  0.731976  0.780727  0.309779  1
  Si  Si387  1  0.860157  0.928249  0.309737  1
  Si  Si388  1  0.865962  0.794331  0.285851  1
  Si  Si389  1  0.732148  0.701839  0.309619  1
  Si  Si390  1  0.930175  0.860842  0.309490  1
  Si  Si391  1  0.929723  0.760555  0.216004  1
  Si  Si392  1  0.929628  0.681592  0.216141  1
  Si  Si393  1  0.232011  0.280731  0.399691  1
  Si  Si394  1  0.265544  0.023912  0.399739  1
  Si  Si395  1  0.365997  0.294327  0.423626  1
  Si  Si396  1  0.232179  0.201843  0.399850  1
  Si  Si397  1  0.134655  0.003757  0.424538  1
  Si  Si398  1  0.263481  0.102526  0.399878  1
  Si  Si399  1  0.429758  0.260559  0.493479  1
  Si  Si400  1  0.346925  0.161534  0.424555  1
  Si  Si401  1  0.148489  0.142190  0.424024  1
  Si  Si402  1  0.070274  0.039050  0.493437  1
  Si  Si403  1  0.429661  0.181597  0.493334  1
  Si  Si404  1  0.070419  0.117888  0.493288  1
  Si  Si405  1  0.429706  0.257818  0.354719  1
  Si  Si406  1  0.070463  0.038852  0.354728  1
  Si  Si407  1  0.429499  0.178809  0.354721  1
  Si  Si408  1  0.070667  0.117819  0.354731  1
  Si  Si409  1  0.150579  0.341287  0.423858  1
  Si  Si410  1  0.146776  0.466290  0.424272  1
  Si  Si411  1  0.226223  0.404531  0.400109  1
  Si  Si412  1  0.234431  0.523909  0.399743  1
  Si  Si413  1  0.360162  0.428245  0.399749  1
  Si  Si414  1  0.365317  0.503755  0.424553  1
  Si  Si415  1  0.236516  0.602524  0.399898  1
  Si  Si416  1  0.430198  0.360843  0.399989  1
  Si  Si417  1  0.153048  0.661521  0.424574  1
  Si  Si418  1  0.351496  0.642199  0.424042  1
  Si  Si419  1  0.429696  0.539053  0.493449  1
  Si  Si420  1  0.429564  0.617891  0.493304  1
  Si  Si421  1  0.070170  0.362976  0.354724  1
  Si  Si422  1  0.069704  0.442817  0.354722  1
  Si  Si423  1  0.429497  0.538861  0.354746  1
  Si  Si424  1  0.429310  0.617827  0.354749  1
  Si  Si425  1  0.349391  0.841282  0.423880  1
  Si  Si426  1  0.353158  0.966278  0.424286  1
  Si  Si427  1  0.273728  0.904514  0.400112  1
  Si  Si428  1  0.267950  0.780731  0.399713  1
  Si  Si429  1  0.139799  0.928242  0.399742  1
  Si  Si430  1  0.133971  0.794343  0.423655  1
  Si  Si431  1  0.267782  0.701842  0.399870  1
  Si  Si432  1  0.069744  0.860848  0.400008  1
  Si  Si433  1  0.429800  0.862968  0.354745  1
  Si  Si434  1  0.430250  0.942809  0.354746  1
  Si  Si435  1  0.070263  0.757815  0.354760  1
  Si  Si436  1  0.070467  0.678805  0.354749  1
  Si  Si437  1  0.767980  0.280725  0.399700  1
  Si  Si438  1  0.734447  0.023906  0.399740  1
  Si  Si439  1  0.634000  0.294336  0.423638  1
  Si  Si440  1  0.767813  0.201837  0.399863  1
  Si  Si441  1  0.865333  0.003757  0.424554  1
  Si  Si442  1  0.736535  0.102520  0.399887  1
  Si  Si443  1  0.570258  0.260556  0.493487  1
  Si  Si444  1  0.653075  0.161519  0.424566  1
  Si  Si445  1  0.851518  0.142191  0.424038  1
  Si  Si446  1  0.929726  0.039050  0.493448  1
  Si  Si447  1  0.570349  0.181594  0.493343  1
  Si  Si448  1  0.929591  0.117889  0.493299  1
  Si  Si449  1  0.570300  0.257814  0.354736  1
  Si  Si450  1  0.929530  0.038855  0.354746  1
  Si  Si451  1  0.570500  0.178804  0.354738  1
  Si  Si452  1  0.929341  0.117821  0.354748  1
  Si  Si453  1  0.849413  0.341276  0.423873  1
  Si  Si454  1  0.853158  0.466278  0.424286  1
  Si  Si455  1  0.773743  0.404508  0.400114  1
  Si  Si456  1  0.765516  0.523903  0.399745  1
  Si  Si457  1  0.639814  0.428238  0.399749  1
  Si  Si458  1  0.634626  0.503750  0.424549  1
  Si  Si459  1  0.763446  0.602516  0.399895  1
  Si  Si460  1  0.569767  0.360841  0.399996  1
  Si  Si461  1  0.846888  0.661524  0.424574  1
  Si  Si462  1  0.648456  0.642185  0.424035  1
  Si  Si463  1  0.570245  0.539045  0.493446  1
  Si  Si464  1  0.570392  0.617884  0.493301  1
  Si  Si465  1  0.929817  0.362972  0.354741  1
  Si  Si466  1  0.930251  0.442814  0.354744  1
  Si  Si467  1  0.570430  0.538845  0.354741  1
  Si  Si468  1  0.570636  0.617812  0.354744  1
  Si  Si469  1  0.650556  0.841288  0.423862  1
  Si  Si470  1  0.646771  0.966295  0.424274  1
  Si  Si471  1  0.726205  0.904530  0.400115  1
  Si  Si472  1  0.731980  0.780726  0.399707  1
  Si  Si473  1  0.860143  0.928246  0.399757  1
  Si  Si474  1  0.865958  0.794335  0.423655  1
  Si  Si475  1  0.732149  0.701838  0.399865  1
  Si  Si476  1  0.930174  0.860844  0.400011  1
  Si  Si477  1  0.570154  0.862980  0.354727  1
  Si  Si478  1  0.569703  0.942822  0.354724  1
  Si  Si479  1  0.929669  0.757816  0.354755  1
  Si  Si480  1  0.929465  0.678807  0.354746  1
  H  H481  1  0.387795  0.280331  0.219240  1
  H  H482  1  0.382189  0.164797  0.218842  1
  H  H483  1  0.082404  0.032514  0.145261  1
  H  H484  1  0.082125  0.124337  0.145261  1
  H  H485  1  0.115815  0.344763  0.219377  1
  H  H486  1  0.113249  0.461437  0.218893  1
  H  H487  1  0.417575  0.532519  0.145274  1
  H  H488  1  0.417865  0.624342  0.145278  1
  H  H489  1  0.384210  0.844744  0.219400  1
  H  H490  1  0.386724  0.961422  0.218923  1
  H  H491  1  0.082319  0.767526  0.145284  1
  H  H492  1  0.081815  0.674838  0.145272  1
  H  H493  1  0.612205  0.280321  0.219254  1
  H  H494  1  0.617810  0.164793  0.218852  1
  H  H495  1  0.917609  0.032514  0.145273  1
  H  H496  1  0.917894  0.124337  0.145273  1
  H  H497  1  0.884219  0.344744  0.219394  1
  H  H498  1  0.886726  0.461423  0.218916  1
  H  H499  1  0.582369  0.532509  0.145271  1
  H  H500  1  0.582096  0.624333  0.145274  1
  H  H501  1  0.615806  0.844766  0.219378  1
  H  H502  1  0.613248  0.961442  0.218895  1
  H  H503  1  0.917627  0.767528  0.145284  1
  H  H504  1  0.918126  0.674841  0.145273  1
  H  H505  1  0.417661  0.267532  0.564199  1
  H  H506  1  0.082404  0.032514  0.564200  1
  H  H507  1  0.418155  0.174847  0.564202  1
  H  H508  1  0.082125  0.124337  0.564201  1
  H  H509  1  0.115789  0.344759  0.490071  1
  H  H510  1  0.113210  0.461437  0.490548  1
  H  H511  1  0.117777  0.664795  0.490632  1
  H  H512  1  0.417575  0.532519  0.564214  1
  H  H513  1  0.417865  0.624342  0.564217  1
  H  H514  1  0.384174  0.844750  0.490096  1
  H  H515  1  0.386679  0.961421  0.490578  1
  H  H516  1  0.112176  0.780330  0.490240  1
  H  H517  1  0.582351  0.267526  0.564207  1
  H  H518  1  0.917609  0.032514  0.564213  1
  H  H519  1  0.581849  0.174841  0.564211  1
  H  H520  1  0.917894  0.124337  0.564212  1
  H  H521  1  0.884196  0.344743  0.490089  1
  H  H522  1  0.886693  0.461418  0.490572  1
  H  H523  1  0.882159  0.664798  0.490633  1
  H  H524  1  0.582369  0.532509  0.564211  1
  H  H525  1  0.582096  0.624333  0.564213  1
  H  H526  1  0.615765  0.844764  0.490073  1
  H  H527  1  0.613198  0.961446  0.490550  1
  H  H528  1  0.887762  0.780327  0.490240  1
