# generated using pymatgen
data_Si28H6O59
_symmetry_space_group_name_H-M   'P 1'
_cell_length_a   21.88992159
_cell_length_b   39.14737771
_cell_length_c   39.52378940
_cell_angle_alpha   90.00000000
_cell_angle_beta   90.00000000
_cell_angle_gamma   90.00000000
_symmetry_Int_Tables_number   1
_chemical_formula_structural   Si28H6O59
_chemical_formula_sum   'Si224 H48 O472'
_cell_volume   33869.2405459
_cell_formula_units_Z   8
loop_
 _symmetry_equiv_pos_site_id
 _symmetry_equiv_pos_as_xyz
  1  'x, y, z'
loop_
 _atom_site_type_symbol
 _atom_site_label
 _atom_site_symmetry_multiplicity
 _atom_site_fract_x
 _atom_site_fract_y
 _atom_site_fract_z
 _atom_site_occupancy
  O  O1  1  0.181872  0.305580  0.319717  1
  O  O2  1  0.317780  0.000000  0.319562  1
  O  O3  1  0.295660  0.291226  0.319516  1
  O  O4  1  0.222266  0.241314  0.328187  1
  O  O5  1  0.274157  0.063275  0.328639  1
  O  O6  1  0.203097  0.013323  0.318314  1
  O  O7  1  0.398648  0.272506  0.341202  1
  O  O8  1  0.387795  0.280331  0.278263  1
  O  O9  1  0.387806  0.280316  0.149397  1
  O  O10  1  0.295055  0.189027  0.318915  1
  O  O11  1  0.179782  0.178018  0.319804  1
  O  O12  1  0.110056  0.017312  0.149795  1
  O  O13  1  0.110070  0.017307  0.277875  1
  O  O14  1  0.098013  0.022123  0.341229  1
  O  O15  1  0.200887  0.115078  0.318793  1
  O  O16  1  0.314829  0.126019  0.318733  1
  O  O17  1  0.417661  0.267532  0.213834  1
  O  O18  1  0.422077  0.221124  0.258125  1
  O  O19  1  0.422087  0.221119  0.169549  1
  O  O20  1  0.421930  0.218385  0.373466  1
  O  O21  1  0.382189  0.164797  0.277917  1
  O  O22  1  0.382193  0.164797  0.149753  1
  O  O23  1  0.395922  0.165742  0.341211  1
  O  O24  1  0.114764  0.137151  0.278080  1
  O  O25  1  0.114763  0.137148  0.149592  1
  O  O26  1  0.100547  0.134133  0.341467  1
  O  O27  1  -0.000000  0.032548  0.258708  1
  O  O28  1  0.082404  0.032514  0.213836  1
  O  O29  1  0.079469  0.078441  0.168887  1
  O  O30  1  0.079483  0.078439  0.258786  1
  O  O31  1  0.000000  0.124634  0.168237  1
  O  O32  1  0.389882  0.331891  0.318056  1
  O  O33  1  0.418155  0.174847  0.213837  1
  O  O34  1  0.082125  0.124337  0.213836  1
  O  O35  1  0.000000  0.124630  0.259445  1
  O  O36  1  0.499997  0.174305  0.259865  1
  O  O37  1  0.101627  0.348087  0.341333  1
  O  O38  1  0.115815  0.344763  0.278383  1
  O  O39  1  0.115789  0.344759  0.149277  1
  O  O40  1  0.199757  0.370377  0.318747  1
  O  O41  1  0.113249  0.461437  0.277961  1
  O  O42  1  0.113210  0.461437  0.149693  1
  O  O43  1  0.098479  0.459543  0.341335  1
  O  O44  1  0.182165  0.500627  0.319562  1
  O  O45  1  0.191910  0.435882  0.318617  1
  O  O46  1  0.000000  0.355452  0.259615  1
  O  O47  1  0.081941  0.355797  0.213831  1
  O  O48  1  0.078234  0.402074  0.258327  1
  O  O49  1  0.078211  0.402072  0.169331  1
  O  O50  1  0.295445  0.412199  0.327340  1
  O  O51  1  0.082464  0.448264  0.213828  1
  O  O52  1  0.225795  0.563283  0.328654  1
  O  O53  1  0.296851  0.513335  0.318310  1
  O  O54  1  0.406709  0.398363  0.327256  1
  O  O55  1  0.371274  0.463864  0.316767  1
  O  O56  1  0.499975  0.532549  0.258713  1
  O  O57  1  0.389908  0.517320  0.277887  1
  O  O58  1  0.389905  0.517315  0.149809  1
  O  O59  1  0.401918  0.522151  0.341243  1
  O  O60  1  0.299078  0.615080  0.318801  1
  O  O61  1  0.185128  0.626027  0.318761  1
  O  O62  1  0.117777  0.664795  0.149766  1
  O  O63  1  0.117786  0.664791  0.277928  1
  O  O64  1  0.104041  0.665761  0.341225  1
  O  O65  1  0.385222  0.637155  0.149608  1
  O  O66  1  0.385223  0.637153  0.278095  1
  O  O67  1  0.399420  0.634130  0.341481  1
  O  O68  1  0.499969  0.532549  0.168979  1
  O  O69  1  0.417575  0.532519  0.213848  1
  O  O70  1  0.420513  0.578445  0.258798  1
  O  O71  1  0.420506  0.578445  0.168900  1
  O  O72  1  0.417865  0.624342  0.213851  1
  O  O73  1  0.499978  0.624632  0.168246  1
  O  O74  1  0.499982  0.624633  0.259453  1
  O  O75  1  0.499994  0.357288  0.325617  1
  O  O76  1  0.318106  0.805570  0.319728  1
  O  O77  1  0.398340  0.848073  0.341355  1
  O  O78  1  0.384174  0.844750  0.149299  1
  O  O79  1  0.384210  0.844744  0.278403  1
  O  O80  1  0.300230  0.870364  0.318742  1
  O  O81  1  0.386679  0.961421  0.149719  1
  O  O82  1  0.386724  0.961422  0.277987  1
  O  O83  1  0.401451  0.959540  0.341366  1
  O  O84  1  0.308044  0.935868  0.318631  1
  O  O85  1  0.499973  0.855457  0.168065  1
  O  O86  1  0.418053  0.855786  0.213851  1
  O  O87  1  0.421725  0.902064  0.169355  1
  O  O88  1  0.421759  0.902063  0.258350  1
  O  O89  1  0.204518  0.912172  0.327338  1
  O  O90  1  0.204310  0.791221  0.319540  1
  O  O91  1  0.277710  0.741310  0.328205  1
  O  O92  1  0.417471  0.948254  0.213853  1
  O  O93  1  0.093251  0.898344  0.327263  1
  O  O94  1  0.128696  0.963842  0.316753  1
  O  O95  1  0.110069  0.831871  0.318081  1
  O  O96  1  0.101336  0.772486  0.341234  1
  O  O97  1  0.112176  0.780330  0.149425  1
  O  O98  1  0.112178  0.780311  0.278292  1
  O  O99  1  0.204917  0.689029  0.318931  1
  O  O100  1  0.320194  0.678016  0.319818  1
  O  O101  1  0.082319  0.767526  0.213857  1
  O  O102  1  0.077894  0.721125  0.169560  1
  O  O103  1  0.077889  0.721113  0.258140  1
  O  O104  1  0.081815  0.674838  0.213846  1
  O  O105  1  0.499945  0.948537  0.168600  1
  O  O106  1  0.499984  0.948535  0.259083  1
  O  O107  1  0.818136  0.305566  0.319725  1
  O  O108  1  0.682193  0.000000  0.319559  1
  O  O109  1  0.704345  0.291218  0.319522  1
  O  O110  1  0.777742  0.241303  0.328196  1
  O  O111  1  0.725828  0.063274  0.328650  1
  O  O112  1  0.796887  0.013331  0.318309  1
  O  O113  1  0.601372  0.272490  0.341216  1
  O  O114  1  0.612213  0.280319  0.149409  1
  O  O115  1  0.612205  0.280321  0.278276  1
  O  O116  1  0.704952  0.189021  0.318924  1
  O  O117  1  0.820228  0.178009  0.319814  1
  O  O118  1  0.889951  0.017312  0.277887  1
  O  O119  1  0.889930  0.017315  0.149809  1
  O  O120  1  0.901957  0.022142  0.341243  1
  O  O121  1  0.799115  0.115071  0.318796  1
  O  O122  1  0.685169  0.126019  0.318746  1
  O  O123  1  0.582351  0.267526  0.213842  1
  O  O124  1  0.577929  0.221117  0.169554  1
  O  O125  1  0.577922  0.221119  0.258132  1
  O  O126  1  0.617816  0.164788  0.149765  1
  O  O127  1  0.617810  0.164793  0.277926  1
  O  O128  1  0.604086  0.165746  0.341226  1
  O  O129  1  0.885242  0.137148  0.149604  1
  O  O130  1  0.885258  0.137147  0.278091  1
  O  O131  1  0.899453  0.134123  0.341478  1
  O  O132  1  0.917609  0.032514  0.213847  1
  O  O133  1  0.920546  0.078439  0.258796  1
  O  O134  1  0.920536  0.078442  0.168898  1
  O  O135  1  0.581849  0.174841  0.213845  1
  O  O136  1  0.917894  0.124337  0.213846  1
  O  O137  1  0.500009  0.267786  0.168689  1
  O  O138  1  0.610110  0.331878  0.318069  1
  O  O139  1  0.000000  0.032549  0.168975  1
  O  O140  1  0.500006  0.174301  0.167816  1
  O  O141  1  0.500002  0.267791  0.258987  1
  O  O142  1  0.898359  0.348079  0.341350  1
  O  O143  1  0.884196  0.344743  0.149293  1
  O  O144  1  0.884219  0.344744  0.278398  1
  O  O145  1  0.800240  0.370361  0.318743  1
  O  O146  1  0.886693  0.461418  0.149714  1
  O  O147  1  0.886726  0.461423  0.277982  1
  O  O148  1  0.901461  0.459544  0.341360  1
  O  O149  1  0.817769  0.500612  0.319561  1
  O  O150  1  0.808062  0.435865  0.318630  1
  O  O151  1  0.918066  0.355782  0.213846  1
  O  O152  1  0.921739  0.402058  0.169350  1
  O  O153  1  0.921765  0.402061  0.258346  1
  O  O154  1  0.704537  0.412180  0.327341  1
  O  O155  1  0.917479  0.448249  0.213847  1
  O  O156  1  0.774162  0.563272  0.328655  1
  O  O157  1  0.703083  0.513336  0.318316  1
  O  O158  1  0.593279  0.398350  0.327262  1
  O  O159  1  0.628704  0.463849  0.316763  1
  O  O160  1  -0.000000  0.355450  0.168062  1
  O  O161  1  0.000000  0.448532  0.259079  1
  O  O162  1  0.610028  0.517306  0.149805  1
  O  O163  1  0.610037  0.517308  0.277885  1
  O  O164  1  0.597999  0.522126  0.341240  1
  O  O165  1  0.700874  0.615068  0.318803  1
  O  O166  1  0.814815  0.626020  0.318753  1
  O  O167  1  0.882156  0.664791  0.277927  1
  O  O168  1  0.882159  0.664798  0.149767  1
  O  O169  1  0.895893  0.665756  0.341225  1
  O  O170  1  0.614741  0.637142  0.278092  1
  O  O171  1  0.614734  0.637144  0.149603  1
  O  O172  1  0.600528  0.634116  0.341477  1
  O  O173  1  0.000000  0.448529  0.168596  1
  O  O174  1  0.582369  0.532509  0.213845  1
  O  O175  1  0.579441  0.578436  0.168897  1
  O  O176  1  0.579445  0.578437  0.258795  1
  O  O177  1  0.582096  0.624333  0.213847  1
  O  O178  1  0.681841  0.805577  0.319728  1
  O  O179  1  0.601607  0.848092  0.341333  1
  O  O180  1  0.615806  0.844766  0.278384  1
  O  O181  1  0.615765  0.844764  0.149279  1
  O  O182  1  0.699749  0.870373  0.318754  1
  O  O183  1  0.613248  0.961442  0.277963  1
  O  O184  1  0.613198  0.961446  0.149695  1
  O  O185  1  0.598482  0.959550  0.341338  1
  O  O186  1  0.691897  0.935876  0.318617  1
  O  O187  1  0.500006  0.855455  0.259618  1
  O  O188  1  0.581927  0.855803  0.213832  1
  O  O189  1  0.578231  0.902078  0.258329  1
  O  O190  1  0.578195  0.902080  0.169332  1
  O  O191  1  0.795432  0.912202  0.327344  1
  O  O192  1  0.795624  0.791213  0.319530  1
  O  O193  1  0.722218  0.741307  0.328201  1
  O  O194  1  0.582458  0.948270  0.213830  1
  O  O195  1  0.906684  0.898352  0.327270  1
  O  O196  1  0.871292  0.963857  0.316772  1
  O  O197  1  0.889845  0.831878  0.318080  1
  O  O198  1  0.898601  0.772493  0.341232  1
  O  O199  1  0.887770  0.780316  0.278290  1
  O  O200  1  0.887762  0.780327  0.149424  1
  O  O201  1  0.795019  0.689025  0.318926  1
  O  O202  1  0.679748  0.678008  0.319818  1
  O  O203  1  0.917627  0.767528  0.213857  1
  O  O204  1  0.922054  0.721115  0.258139  1
  O  O205  1  0.922049  0.721126  0.169559  1
  O  O206  1  -0.000000  0.674296  0.259872  1
  O  O207  1  0.918126  0.674841  0.213846  1
  O  O208  1  -0.000000  0.857279  0.325633  1
  O  O209  1  -0.000000  0.767795  0.168708  1
  O  O210  1  0.000000  0.767785  0.259005  1
  O  O211  1  0.000000  0.674310  0.167822  1
  O  O212  1  0.181869  0.305577  0.427258  1
  O  O213  1  0.317787  -0.000000  0.427427  1
  O  O214  1  0.295659  0.291212  0.427461  1
  O  O215  1  0.222248  0.241311  0.418785  1
  O  O216  1  0.235196  0.286276  0.373487  1
  O  O217  1  0.274183  0.063280  0.418339  1
  O  O218  1  0.261172  0.017703  0.373494  1
  O  O219  1  0.203106  0.013337  0.428678  1
  O  O220  1  0.398636  0.272487  0.405763  1
  O  O221  1  0.387795  0.280331  0.597571  1
  O  O222  1  0.387806  0.280316  0.468705  1
  O  O223  1  0.295051  0.189031  0.428061  1
  O  O224  1  0.179778  0.178014  0.427172  1
  O  O225  1  0.235679  0.196331  0.373487  1
  O  O226  1  0.110056  0.017312  0.469103  1
  O  O227  1  0.110070  0.017307  0.597183  1
  O  O228  1  0.098034  0.022138  0.405748  1
  O  O229  1  0.200908  0.115077  0.428192  1
  O  O230  1  0.260614  0.108623  0.373488  1
  O  O231  1  0.314852  0.126029  0.428232  1
  O  O232  1  0.417661  0.267532  0.533142  1
  O  O233  1  0.422077  0.221124  0.577433  1
  O  O234  1  0.422087  0.221119  0.488857  1
  O  O235  1  0.082847  0.078270  0.373479  1
  O  O236  1  0.382189  0.164797  0.597224  1
  O  O237  1  0.382193  0.164797  0.469061  1
  O  O238  1  0.395929  0.165767  0.405765  1
  O  O239  1  0.114764  0.137151  0.597388  1
  O  O240  1  0.114763  0.137148  0.468900  1
  O  O241  1  0.100564  0.134119  0.405515  1
  O  O242  1  0.389876  0.331874  0.428911  1
  O  O243  1  0.000000  0.032548  0.578015  1
  O  O244  1  0.082404  0.032514  0.533144  1
  O  O245  1  0.079469  0.078441  0.488194  1
  O  O246  1  0.079483  0.078439  0.578094  1
  O  O247  1  0.000000  0.124634  0.487545  1
  O  O248  1  0.418155  0.174847  0.533145  1
  O  O249  1  0.082125  0.124337  0.533144  1
  O  O250  1  0.000000  0.124630  0.578752  1
  O  O251  1  0.000000  0.123162  0.373502  1
  O  O252  1  0.499999  0.171202  0.373486  1
  O  O253  1  0.499997  0.174305  0.579172  1
  O  O254  1  0.101632  0.348082  0.405633  1
  O  O255  1  0.115815  0.344763  0.597691  1
  O  O256  1  0.115789  0.344759  0.468585  1
  O  O257  1  0.199748  0.370373  0.428231  1
  O  O258  1  0.113249  0.461437  0.597269  1
  O  O259  1  0.113210  0.461437  0.469001  1
  O  O260  1  0.098496  0.459552  0.405620  1
  O  O261  1  0.182174  0.500623  0.427428  1
  O  O262  1  0.191895  0.435877  0.428364  1
  O  O263  1  0.499975  0.623162  0.373502  1
  O  O264  1  0.000000  0.355452  0.578923  1
  O  O265  1  0.081941  0.355797  0.533138  1
  O  O266  1  0.078234  0.402074  0.577634  1
  O  O267  1  0.078211  0.402072  0.488639  1
  O  O268  1  0.295435  0.412196  0.419648  1
  O  O269  1  0.218602  0.403918  0.373490  1
  O  O270  1  0.082464  0.448264  0.533136  1
  O  O271  1  0.417124  0.578279  0.373512  1
  O  O272  1  0.077596  0.402863  0.373486  1
  O  O273  1  0.225815  0.563277  0.418351  1
  O  O274  1  0.238792  0.517703  0.373497  1
  O  O275  1  0.296864  0.513325  0.428682  1
  O  O276  1  0.406693  0.398349  0.419730  1
  O  O277  1  0.361985  0.435136  0.373498  1
  O  O278  1  0.371279  0.463853  0.430234  1
  O  O279  1  0.499962  0.533281  0.373494  1
  O  O280  1  0.499975  0.532549  0.578021  1
  O  O281  1  0.389908  0.517320  0.597194  1
  O  O282  1  0.389905  0.517315  0.469117  1
  O  O283  1  0.401941  0.522137  0.405762  1
  O  O284  1  0.299089  0.615078  0.428206  1
  O  O285  1  0.239373  0.608626  0.373506  1
  O  O286  1  0.185141  0.626020  0.428257  1
  O  O287  1  0.424344  0.355976  0.373487  1
  O  O288  1  0.499981  0.357283  0.421364  1
  O  O289  1  0.117777  0.664795  0.469074  1
  O  O290  1  0.117786  0.664791  0.597236  1
  O  O291  1  0.104047  0.665738  0.405776  1
  O  O292  1  0.385222  0.637155  0.468916  1
  O  O293  1  0.385223  0.637153  0.597403  1
  O  O294  1  0.399425  0.634139  0.405529  1
  O  O295  1  0.499969  0.532549  0.488287  1
  O  O296  1  0.417575  0.532519  0.533156  1
  O  O297  1  0.420513  0.578445  0.578106  1
  O  O298  1  0.420506  0.578445  0.488207  1
  O  O299  1  0.417865  0.624342  0.533158  1
  O  O300  1  0.499978  0.624632  0.487553  1
  O  O301  1  0.499982  0.624633  0.578761  1
  O  O302  1  0.318101  0.805572  0.427277  1
  O  O303  1  0.398348  0.848076  0.405655  1
  O  O304  1  0.384174  0.844750  0.468607  1
  O  O305  1  0.384210  0.844744  0.597711  1
  O  O306  1  0.300220  0.870367  0.428248  1
  O  O307  1  0.386679  0.961421  0.469026  1
  O  O308  1  0.386724  0.961422  0.597295  1
  O  O309  1  0.401474  0.959533  0.405652  1
  O  O310  1  0.308034  0.935872  0.428356  1
  O  O311  1  0.499973  0.855457  0.487373  1
  O  O312  1  0.418053  0.855786  0.533159  1
  O  O313  1  0.421725  0.902064  0.488662  1
  O  O314  1  0.421759  0.902063  0.577658  1
  O  O315  1  0.204513  0.912178  0.419646  1
  O  O316  1  0.281352  0.903886  0.373494  1
  O  O317  1  0.204306  0.791228  0.427475  1
  O  O318  1  0.277697  0.741311  0.418806  1
  O  O319  1  0.264783  0.786275  0.373506  1
  O  O320  1  0.417471  0.948254  0.533161  1
  O  O321  1  0.093247  0.898358  0.419731  1
  O  O322  1  0.137985  0.935127  0.373490  1
  O  O323  1  0.128704  0.963855  0.430223  1
  O  O324  1  0.110074  0.831887  0.428936  1
  O  O325  1  0.101322  0.772499  0.405795  1
  O  O326  1  0.112176  0.780330  0.468732  1
  O  O327  1  0.112178  0.780311  0.597600  1
  O  O328  1  0.204911  0.689025  0.428073  1
  O  O329  1  0.320188  0.678019  0.427193  1
  O  O330  1  0.264295  0.696329  0.373504  1
  O  O331  1  0.075601  0.855969  0.373506  1
  O  O332  1  0.078036  0.718381  0.373523  1
  O  O333  1  0.422366  0.902854  0.373502  1
  O  O334  1  0.082319  0.767526  0.533164  1
  O  O335  1  0.077894  0.721125  0.488868  1
  O  O336  1  0.077889  0.721113  0.577447  1
  O  O337  1  0.499979  0.855591  0.373494  1
  O  O338  1  0.081815  0.674838  0.533153  1
  O  O339  1  0.499945  0.948537  0.487908  1
  O  O340  1  0.499984  0.948535  0.578390  1
  O  O341  1  0.499974  0.949643  0.373491  1
  O  O342  1  0.818131  0.305566  0.427266  1
  O  O343  1  0.682189  -0.000000  0.427428  1
  O  O344  1  0.704336  0.291224  0.427462  1
  O  O345  1  0.777729  0.241305  0.418798  1
  O  O346  1  0.764807  0.286267  0.373494  1
  O  O347  1  0.725824  0.063274  0.418341  1
  O  O348  1  0.738817  0.017694  0.373495  1
  O  O349  1  0.796883  0.013333  0.428683  1
  O  O350  1  0.601356  0.272492  0.405777  1
  O  O351  1  0.612213  0.280319  0.468717  1
  O  O352  1  0.612205  0.280321  0.597584  1
  O  O353  1  0.704941  0.189021  0.428068  1
  O  O354  1  0.820216  0.178012  0.427188  1
  O  O355  1  0.764327  0.196323  0.373498  1
  O  O356  1  0.889951  0.017312  0.597195  1
  O  O357  1  0.889930  0.017315  0.469116  1
  O  O358  1  0.901968  0.022130  0.405762  1
  O  O359  1  0.799108  0.115072  0.428200  1
  O  O360  1  0.739399  0.108621  0.373496  1
  O  O361  1  0.685157  0.126019  0.428243  1
  O  O362  1  0.582351  0.267526  0.533150  1
  O  O363  1  0.577929  0.221117  0.488862  1
  O  O364  1  0.577922  0.221119  0.577440  1
  O  O365  1  0.617816  0.164788  0.469072  1
  O  O366  1  0.617810  0.164793  0.597234  1
  O  O367  1  0.604068  0.165746  0.405776  1
  O  O368  1  0.885242  0.137148  0.468912  1
  O  O369  1  0.885258  0.137147  0.597399  1
  O  O370  1  0.899450  0.134131  0.405527  1
  O  O371  1  0.917609  0.032514  0.533154  1
  O  O372  1  0.920546  0.078439  0.578104  1
  O  O373  1  0.920536  0.078442  0.488205  1
  O  O374  1  0.581849  0.174841  0.533153  1
  O  O375  1  0.917894  0.124337  0.533154  1
  O  O376  1  0.917156  0.078273  0.373510  1
  O  O377  1  0.578073  0.218380  0.373497  1
  O  O378  1  0.500009  0.267786  0.487997  1
  O  O379  1  -0.000000  0.032549  0.488282  1
  O  O380  1  0.610096  0.331878  0.428925  1
  O  O381  1  0.000000  0.033282  0.373498  1
  O  O382  1  0.500006  0.174301  0.487124  1
  O  O383  1  0.500002  0.267791  0.578294  1
  O  O384  1  0.500003  0.265707  0.373488  1
  O  O385  1  0.898367  0.348077  0.405650  1
  O  O386  1  0.884196  0.344743  0.468601  1
  O  O387  1  0.884219  0.344744  0.597706  1
  O  O388  1  0.800237  0.370359  0.428246  1
  O  O389  1  0.886693  0.461418  0.469022  1
  O  O390  1  0.886726  0.461423  0.597289  1
  O  O391  1  0.901466  0.459542  0.405645  1
  O  O392  1  0.817759  0.500610  0.427436  1
  O  O393  1  0.808051  0.435864  0.428360  1
  O  O394  1  0.918066  0.355782  0.533154  1
  O  O395  1  0.921739  0.402058  0.488657  1
  O  O396  1  0.921765  0.402061  0.577653  1
  O  O397  1  0.704530  0.412174  0.419651  1
  O  O398  1  0.781366  0.403884  0.373495  1
  O  O399  1  0.917479  0.448249  0.533155  1
  O  O400  1  0.774153  0.563270  0.418348  1
  O  O401  1  0.761158  0.517693  0.373499  1
  O  O402  1  0.703072  0.513334  0.428679  1
  O  O403  1  0.593267  0.398349  0.419729  1
  O  O404  1  0.638005  0.435129  0.373498  1
  O  O405  1  0.628700  0.463845  0.430235  1
  O  O406  1  -0.000000  0.355450  0.487369  1
  O  O407  1  0.000000  0.448532  0.578387  1
  O  O408  1  0.610028  0.517306  0.469112  1
  O  O409  1  0.610037  0.517308  0.597192  1
  O  O410  1  0.597985  0.522119  0.405758  1
  O  O411  1  0.700869  0.615068  0.428201  1
  O  O412  1  0.760590  0.608619  0.373503  1
  O  O413  1  0.814809  0.626019  0.428256  1
  O  O414  1  0.575630  0.355966  0.373495  1
  O  O415  1  0.000000  0.355592  0.373491  1
  O  O416  1  0.882156  0.664791  0.597235  1
  O  O417  1  0.882159  0.664798  0.469075  1
  O  O418  1  0.895889  0.665747  0.405777  1
  O  O419  1  0.614741  0.637142  0.597399  1
  O  O420  1  0.614734  0.637144  0.468911  1
  O  O421  1  0.600527  0.634118  0.405525  1
  O  O422  1  0.000000  0.448529  0.487904  1
  O  O423  1  0.582369  0.532509  0.533153  1
  O  O424  1  0.579441  0.578436  0.488204  1
  O  O425  1  0.579445  0.578437  0.578103  1
  O  O426  1  0.582096  0.624333  0.533155  1
  O  O427  1  0.922374  0.402859  0.373501  1
  O  O428  1  0.000000  0.449643  0.373493  1
  O  O429  1  0.582814  0.578263  0.373503  1
  O  O430  1  0.681837  0.805574  0.427267  1
  O  O431  1  0.601614  0.848083  0.405633  1
  O  O432  1  0.615806  0.844766  0.597692  1
  O  O433  1  0.615765  0.844764  0.468587  1
  O  O434  1  0.699730  0.870372  0.428234  1
  O  O435  1  0.613248  0.961442  0.597271  1
  O  O436  1  0.613198  0.961446  0.469002  1
  O  O437  1  0.598491  0.959559  0.405622  1
  O  O438  1  0.691875  0.935875  0.428370  1
  O  O439  1  0.500006  0.855455  0.578926  1
  O  O440  1  0.581927  0.855803  0.533140  1
  O  O441  1  0.578231  0.902078  0.577636  1
  O  O442  1  0.578195  0.902080  0.488640  1
  O  O443  1  0.795415  0.912199  0.419656  1
  O  O444  1  0.718589  0.903920  0.373495  1
  O  O445  1  0.795623  0.791215  0.427477  1
  O  O446  1  0.722221  0.741306  0.418800  1
  O  O447  1  0.735162  0.786270  0.373501  1
  O  O448  1  0.582458  0.948270  0.533138  1
  O  O449  1  0.921891  0.718382  0.373510  1
  O  O450  1  -0.000000  0.765710  0.373510  1
  O  O451  1  0.906672  0.898351  0.419743  1
  O  O452  1  0.861968  0.935135  0.373505  1
  O  O453  1  0.871271  0.963854  0.430240  1
  O  O454  1  0.889846  0.831880  0.428935  1
  O  O455  1  0.898608  0.772493  0.405793  1
  O  O456  1  0.887770  0.780316  0.597598  1
  O  O457  1  0.887762  0.780327  0.468732  1
  O  O458  1  0.795019  0.689024  0.428073  1
  O  O459  1  0.679748  0.678008  0.427183  1
  O  O460  1  0.735647  0.696326  0.373500  1
  O  O461  1  0.924315  0.855971  0.373507  1
  O  O462  1  0.917627  0.767528  0.533164  1
  O  O463  1  0.922054  0.721115  0.577447  1
  O  O464  1  0.922049  0.721126  0.488867  1
  O  O465  1  -0.000000  0.674296  0.579179  1
  O  O466  1  0.918126  0.674841  0.533154  1
  O  O467  1  0.577587  0.902867  0.373490  1
  O  O468  1  -0.000000  0.857288  0.421380  1
  O  O469  1  -0.000000  0.671202  0.373503  1
  O  O470  1  -0.000000  0.767795  0.488016  1
  O  O471  1  0.000000  0.767785  0.578313  1
  O  O472  1  0.000000  0.674310  0.487129  1
  Si  Si473  1  0.232017  0.280734  0.334328  1
  Si  Si474  1  0.265533  0.023907  0.334300  1
  Si  Si475  1  0.365995  0.294345  0.313479  1
  Si  Si476  1  0.232186  0.201845  0.334190  1
  Si  Si477  1  0.134649  0.003745  0.312696  1
  Si  Si478  1  0.263462  0.102521  0.334168  1
  Si  Si479  1  0.429752  0.260563  0.252654  1
  Si  Si480  1  0.429758  0.260559  0.175016  1
  Si  Si481  1  0.346916  0.161522  0.312673  1
  Si  Si482  1  0.148479  0.142197  0.313146  1
  Si  Si483  1  0.070274  0.039050  0.174980  1
  Si  Si484  1  0.070286  0.039048  0.252694  1
  Si  Si485  1  0.429655  0.181601  0.252784  1
  Si  Si486  1  0.429661  0.181597  0.174890  1
  Si  Si487  1  0.070426  0.117887  0.252823  1
  Si  Si488  1  0.070419  0.117888  0.174851  1
  Si  Si489  1  0.150590  0.341291  0.313280  1
  Si  Si490  1  0.146787  0.466291  0.312919  1
  Si  Si491  1  0.070351  0.362555  0.252783  1
  Si  Si492  1  0.070333  0.362552  0.174879  1
  Si  Si493  1  0.226231  0.404534  0.333972  1
  Si  Si494  1  0.070260  0.441584  0.252629  1
  Si  Si495  1  0.070236  0.441582  0.175030  1
  Si  Si496  1  0.234417  0.523914  0.334304  1
  Si  Si497  1  0.360167  0.428252  0.334298  1
  Si  Si498  1  0.365308  0.503766  0.312705  1
  Si  Si499  1  0.236504  0.602528  0.334186  1
  Si  Si500  1  0.430209  0.360853  0.334071  1
  Si  Si501  1  0.153048  0.661529  0.312692  1
  Si  Si502  1  0.351494  0.642195  0.313157  1
  Si  Si503  1  0.429701  0.539054  0.252704  1
  Si  Si504  1  0.429696  0.539053  0.174991  1
  Si  Si505  1  0.429564  0.617891  0.174865  1
  Si  Si506  1  0.429567  0.617893  0.252837  1
  Si  Si507  1  0.349403  0.841277  0.313291  1
  Si  Si508  1  0.353165  0.966278  0.312937  1
  Si  Si509  1  0.429632  0.862546  0.174898  1
  Si  Si510  1  0.429661  0.862545  0.252802  1
  Si  Si511  1  0.273733  0.904511  0.333975  1
  Si  Si512  1  0.267958  0.780730  0.334347  1
  Si  Si513  1  0.429675  0.941575  0.175052  1
  Si  Si514  1  0.429708  0.941574  0.252651  1
  Si  Si515  1  0.139799  0.928233  0.334293  1
  Si  Si516  1  0.133971  0.794328  0.313507  1
  Si  Si517  1  0.267788  0.701842  0.334207  1
  Si  Si518  1  0.069744  0.860838  0.334088  1
  Si  Si519  1  0.070222  0.760564  0.175037  1
  Si  Si520  1  0.070222  0.760553  0.252674  1
  Si  Si521  1  0.070314  0.681601  0.174900  1
  Si  Si522  1  0.070316  0.681591  0.252794  1
  Si  Si523  1  0.767988  0.280723  0.334336  1
  Si  Si524  1  0.734450  0.023906  0.334302  1
  Si  Si525  1  0.634007  0.294335  0.313490  1
  Si  Si526  1  0.767822  0.201835  0.334201  1
  Si  Si527  1  0.865343  0.003759  0.312705  1
  Si  Si528  1  0.736539  0.102520  0.334176  1
  Si  Si529  1  0.570258  0.260556  0.175024  1
  Si  Si530  1  0.570252  0.260558  0.252660  1
  Si  Si531  1  0.653083  0.161521  0.312684  1
  Si  Si532  1  0.851529  0.142188  0.313154  1
  Si  Si533  1  0.929737  0.039048  0.252703  1
  Si  Si534  1  0.929726  0.039050  0.174989  1
  Si  Si535  1  0.570349  0.181594  0.174898  1
  Si  Si536  1  0.570344  0.181596  0.252791  1
  Si  Si537  1  0.929591  0.117889  0.174860  1
  Si  Si538  1  0.929598  0.117887  0.252832  1
  Si  Si539  1  0.849419  0.341278  0.313289  1
  Si  Si540  1  0.853170  0.466280  0.312933  1
  Si  Si541  1  0.929651  0.362541  0.174894  1
  Si  Si542  1  0.929670  0.362543  0.252797  1
  Si  Si543  1  0.773749  0.404510  0.333976  1
  Si  Si544  1  0.929686  0.441570  0.175046  1
  Si  Si545  1  0.929710  0.441572  0.252646  1
  Si  Si546  1  0.765526  0.523904  0.334306  1
  Si  Si547  1  0.639820  0.428240  0.334299  1
  Si  Si548  1  0.634636  0.503753  0.312704  1
  Si  Si549  1  0.763451  0.602518  0.334183  1
  Si  Si550  1  0.569778  0.360842  0.334078  1
  Si  Si551  1  0.846890  0.661526  0.312688  1
  Si  Si552  1  0.648459  0.642183  0.313157  1
  Si  Si553  1  0.570245  0.539045  0.174988  1
  Si  Si554  1  0.570250  0.539045  0.252702  1
  Si  Si555  1  0.570395  0.617884  0.252833  1
  Si  Si556  1  0.570392  0.617884  0.174861  1
  Si  Si557  1  0.650573  0.841291  0.313284  1
  Si  Si558  1  0.646790  0.966293  0.312920  1
  Si  Si559  1  0.570343  0.862559  0.252785  1
  Si  Si560  1  0.570314  0.862561  0.174882  1
  Si  Si561  1  0.726220  0.904531  0.333976  1
  Si  Si562  1  0.731976  0.780727  0.334342  1
  Si  Si563  1  0.570259  0.941589  0.252631  1
  Si  Si564  1  0.570225  0.941590  0.175032  1
  Si  Si565  1  0.860157  0.928249  0.334306  1
  Si  Si566  1  0.865962  0.794331  0.313503  1
  Si  Si567  1  0.732148  0.701839  0.334203  1
  Si  Si568  1  0.930175  0.860842  0.334090  1
  Si  Si569  1  0.929723  0.760555  0.252674  1
  Si  Si570  1  0.929721  0.760565  0.175037  1
  Si  Si571  1  0.929628  0.681592  0.252794  1
  Si  Si572  1  0.929625  0.681603  0.174900  1
  Si  Si573  1  0.232011  0.280731  0.412646  1
  Si  Si574  1  0.265544  0.023912  0.412687  1
  Si  Si575  1  0.365997  0.294327  0.433490  1
  Si  Si576  1  0.232179  0.201843  0.412784  1
  Si  Si577  1  0.134655  0.003757  0.434285  1
  Si  Si578  1  0.263481  0.102526  0.412809  1
  Si  Si579  1  0.429752  0.260563  0.571961  1
  Si  Si580  1  0.429758  0.260559  0.494324  1
  Si  Si581  1  0.346925  0.161534  0.434299  1
  Si  Si582  1  0.148489  0.142190  0.433837  1
  Si  Si583  1  0.070274  0.039050  0.494288  1
  Si  Si584  1  0.070286  0.039048  0.572001  1
  Si  Si585  1  0.429655  0.181601  0.572092  1
  Si  Si586  1  0.429661  0.181597  0.494198  1
  Si  Si587  1  0.070426  0.117887  0.572130  1
  Si  Si588  1  0.070419  0.117888  0.494158  1
  Si  Si589  1  0.429706  0.257818  0.373480  1
  Si  Si590  1  0.070463  0.038852  0.373488  1
  Si  Si591  1  0.429499  0.178809  0.373482  1
  Si  Si592  1  0.070667  0.117819  0.373491  1
  Si  Si593  1  0.150579  0.341287  0.433692  1
  Si  Si594  1  0.146776  0.466290  0.434053  1
  Si  Si595  1  0.070351  0.362555  0.572091  1
  Si  Si596  1  0.070333  0.362552  0.494187  1
  Si  Si597  1  0.226223  0.404531  0.413009  1
  Si  Si598  1  0.070260  0.441584  0.571937  1
  Si  Si599  1  0.070236  0.441582  0.494338  1
  Si  Si600  1  0.234431  0.523909  0.412691  1
  Si  Si601  1  0.360162  0.428245  0.412695  1
  Si  Si602  1  0.365317  0.503755  0.434298  1
  Si  Si603  1  0.236516  0.602524  0.412826  1
  Si  Si604  1  0.430198  0.360843  0.412905  1
  Si  Si605  1  0.153048  0.661521  0.434315  1
  Si  Si606  1  0.351496  0.642199  0.433853  1
  Si  Si607  1  0.429701  0.539054  0.572012  1
  Si  Si608  1  0.429696  0.539053  0.494298  1
  Si  Si609  1  0.429564  0.617891  0.494172  1
  Si  Si610  1  0.429567  0.617893  0.572144  1
  Si  Si611  1  0.070170  0.362976  0.373484  1
  Si  Si612  1  0.069704  0.442817  0.373483  1
  Si  Si613  1  0.429497  0.538861  0.373503  1
  Si  Si614  1  0.429310  0.617827  0.373506  1
  Si  Si615  1  0.349391  0.841282  0.433711  1
  Si  Si616  1  0.353158  0.966278  0.434065  1
  Si  Si617  1  0.429632  0.862546  0.494206  1
  Si  Si618  1  0.429661  0.862545  0.572110  1
  Si  Si619  1  0.273728  0.904514  0.413012  1
  Si  Si620  1  0.267950  0.780731  0.412664  1
  Si  Si621  1  0.429675  0.941575  0.494360  1
  Si  Si622  1  0.429708  0.941574  0.571959  1
  Si  Si623  1  0.139799  0.928242  0.412689  1
  Si  Si624  1  0.133971  0.794343  0.433515  1
  Si  Si625  1  0.267782  0.701842  0.412801  1
  Si  Si626  1  0.069744  0.860848  0.412921  1
  Si  Si627  1  0.070222  0.760564  0.494345  1
  Si  Si628  1  0.070222  0.760553  0.571982  1
  Si  Si629  1  0.070314  0.681601  0.494208  1
  Si  Si630  1  0.070316  0.681591  0.572101  1
  Si  Si631  1  0.429800  0.862968  0.373503  1
  Si  Si632  1  0.430250  0.942809  0.373504  1
  Si  Si633  1  0.070263  0.757815  0.373515  1
  Si  Si634  1  0.070467  0.678805  0.373506  1
  Si  Si635  1  0.767980  0.280725  0.412653  1
  Si  Si636  1  0.734447  0.023906  0.412688  1
  Si  Si637  1  0.634000  0.294336  0.433500  1
  Si  Si638  1  0.767813  0.201837  0.412795  1
  Si  Si639  1  0.865333  0.003757  0.434298  1
  Si  Si640  1  0.736535  0.102520  0.412816  1
  Si  Si641  1  0.570258  0.260556  0.494331  1
  Si  Si642  1  0.570252  0.260558  0.571968  1
  Si  Si643  1  0.653075  0.161519  0.434309  1
  Si  Si644  1  0.851518  0.142191  0.433849  1
  Si  Si645  1  0.929737  0.039048  0.572011  1
  Si  Si646  1  0.929726  0.039050  0.494297  1
  Si  Si647  1  0.570349  0.181594  0.494205  1
  Si  Si648  1  0.570344  0.181596  0.572099  1
  Si  Si649  1  0.929591  0.117889  0.494167  1
  Si  Si650  1  0.929598  0.117887  0.572140  1
  Si  Si651  1  0.570300  0.257814  0.373495  1
  Si  Si652  1  0.929530  0.038855  0.373504  1
  Si  Si653  1  0.570500  0.178804  0.373496  1
  Si  Si654  1  0.929341  0.117821  0.373505  1
  Si  Si655  1  0.849413  0.341276  0.433706  1
  Si  Si656  1  0.853158  0.466278  0.434065  1
  Si  Si657  1  0.929651  0.362541  0.494201  1
  Si  Si658  1  0.929670  0.362543  0.572105  1
  Si  Si659  1  0.773743  0.404508  0.413014  1
  Si  Si660  1  0.929686  0.441570  0.494354  1
  Si  Si661  1  0.929710  0.441572  0.571954  1
  Si  Si662  1  0.765516  0.523903  0.412692  1
  Si  Si663  1  0.639814  0.428238  0.412696  1
  Si  Si664  1  0.634626  0.503750  0.434294  1
  Si  Si665  1  0.763446  0.602516  0.412823  1
  Si  Si666  1  0.569767  0.360841  0.412911  1
  Si  Si667  1  0.846888  0.661524  0.434316  1
  Si  Si668  1  0.648456  0.642185  0.433846  1
  Si  Si669  1  0.570245  0.539045  0.494296  1
  Si  Si670  1  0.570250  0.539045  0.572010  1
  Si  Si671  1  0.570395  0.617884  0.572141  1
  Si  Si672  1  0.570392  0.617884  0.494169  1
  Si  Si673  1  0.929817  0.362972  0.373499  1
  Si  Si674  1  0.930251  0.442814  0.373501  1
  Si  Si675  1  0.570430  0.538845  0.373499  1
  Si  Si676  1  0.570636  0.617812  0.373501  1
  Si  Si677  1  0.650556  0.841288  0.433696  1
  Si  Si678  1  0.646771  0.966295  0.434055  1
  Si  Si679  1  0.570343  0.862559  0.572093  1
  Si  Si680  1  0.570314  0.862561  0.494189  1
  Si  Si681  1  0.726205  0.904530  0.413014  1
  Si  Si682  1  0.731980  0.780726  0.412659  1
  Si  Si683  1  0.570259  0.941589  0.571939  1
  Si  Si684  1  0.570225  0.941590  0.494340  1
  Si  Si685  1  0.860143  0.928246  0.412703  1
  Si  Si686  1  0.865958  0.794335  0.433515  1
  Si  Si687  1  0.732149  0.701838  0.412797  1
  Si  Si688  1  0.930174  0.860844  0.412924  1
  Si  Si689  1  0.929723  0.760555  0.571982  1
  Si  Si690  1  0.929721  0.760565  0.494345  1
  Si  Si691  1  0.929628  0.681592  0.572102  1
  Si  Si692  1  0.929625  0.681603  0.494208  1
  Si  Si693  1  0.570154  0.862980  0.373486  1
  Si  Si694  1  0.569703  0.942822  0.373484  1
  Si  Si695  1  0.929669  0.757816  0.373511  1
  Si  Si696  1  0.929465  0.678807  0.373503  1
  H  H697  1  0.387806  0.280316  0.126626  1
  H  H698  1  0.110056  0.017312  0.127024  1
  H  H699  1  0.382193  0.164797  0.126982  1
  H  H700  1  0.114763  0.137148  0.126821  1
  H  H701  1  0.115789  0.344759  0.126506  1
  H  H702  1  0.113210  0.461437  0.126922  1
  H  H703  1  0.389905  0.517315  0.127038  1
  H  H704  1  0.117777  0.664795  0.126995  1
  H  H705  1  0.385222  0.637155  0.126837  1
  H  H706  1  0.384174  0.844750  0.126528  1
  H  H707  1  0.386679  0.961421  0.126948  1
  H  H708  1  0.112176  0.780330  0.126654  1
  H  H709  1  0.612213  0.280319  0.126638  1
  H  H710  1  0.889930  0.017315  0.127038  1
  H  H711  1  0.617816  0.164788  0.126994  1
  H  H712  1  0.885242  0.137148  0.126833  1
  H  H713  1  0.884196  0.344743  0.126522  1
  H  H714  1  0.886693  0.461418  0.126943  1
  H  H715  1  0.610028  0.517306  0.127034  1
  H  H716  1  0.882159  0.664798  0.126996  1
  H  H717  1  0.614734  0.637144  0.126832  1
  H  H718  1  0.615765  0.844764  0.126508  1
  H  H719  1  0.613198  0.961446  0.126923  1
  H  H720  1  0.887762  0.780327  0.126653  1
  H  H721  1  0.387795  0.280331  0.620342  1
  H  H722  1  0.110070  0.017307  0.619954  1
  H  H723  1  0.382189  0.164797  0.619995  1
  H  H724  1  0.114764  0.137151  0.620159  1
  H  H725  1  0.115815  0.344763  0.620462  1
  H  H726  1  0.113249  0.461437  0.620040  1
  H  H727  1  0.389908  0.517320  0.619965  1
  H  H728  1  0.117786  0.664791  0.620007  1
  H  H729  1  0.385223  0.637153  0.620174  1
  H  H730  1  0.384210  0.844744  0.620482  1
  H  H731  1  0.386724  0.961422  0.620066  1
  H  H732  1  0.112178  0.780311  0.620371  1
  H  H733  1  0.612205  0.280321  0.620355  1
  H  H734  1  0.889951  0.017312  0.619966  1
  H  H735  1  0.617810  0.164793  0.620005  1
  H  H736  1  0.885258  0.137147  0.620170  1
  H  H737  1  0.884219  0.344744  0.620477  1
  H  H738  1  0.886726  0.461423  0.620061  1
  H  H739  1  0.610037  0.517308  0.619963  1
  H  H740  1  0.882156  0.664791  0.620006  1
  H  H741  1  0.614741  0.637142  0.620170  1
  H  H742  1  0.615806  0.844766  0.620463  1
  H  H743  1  0.613248  0.961442  0.620042  1
  H  H744  1  0.887770  0.780316  0.620369  1
