# generated using pymatgen
data_Si45H2O91
_symmetry_space_group_name_H-M   'P 1'
_cell_length_a   12.70128613
_cell_length_b   11.41729918
_cell_length_c   96.60823380
_cell_angle_alpha   90.00000000
_cell_angle_beta   90.00000000
_cell_angle_gamma   90.00000000
_symmetry_Int_Tables_number   1
_chemical_formula_structural   Si45H2O91
_chemical_formula_sum   'Si180 H8 O364'
_cell_volume   14009.5834866
_cell_formula_units_Z   4
loop_
 _symmetry_equiv_pos_site_id
 _symmetry_equiv_pos_as_xyz
  1  'x, y, z'
loop_
 _atom_site_type_symbol
 _atom_site_label
 _atom_site_symmetry_multiplicity
 _atom_site_fract_x
 _atom_site_fract_y
 _atom_site_fract_z
 _atom_site_occupancy
  O  O1  1  0.141845  0.500038  0.079253  1
  O  O2  1  0.175262  0.289560  0.088698  1
  O  O3  1  0.175283  0.710517  0.088699  1
  O  O4  1  0.360303  0.347617  0.134568  1
  O  O5  1  0.360323  0.652553  0.134571  1
  O  O6  1  0.298452  0.290089  0.109998  1
  O  O7  1  0.298470  0.710100  0.110000  1
  O  O8  1  0.360262  0.500094  0.115965  1
  O  O9  1  0.146641  0.660674  0.061076  1
  O  O10  1  0.499820  0.658456  0.115866  1
  O  O11  1  0.169332  0.114381  0.106437  1
  O  O12  1  0.169296  0.885745  0.106431  1
  O  O13  1  0.101583  0.312204  0.112753  1
  O  O14  1  0.101605  0.687911  0.112754  1
  O  O15  1  0.137645  0.000000  0.128959  1
  O  O16  1  0.499800  0.341713  0.115864  1
  O  O17  1  0.146641  0.339431  0.061073  1
  O  O18  1  -0.000000  0.342789  0.135140  1
  O  O19  1  0.857841  0.500042  0.079252  1
  O  O20  1  0.824399  0.710513  0.088699  1
  O  O21  1  0.824392  0.289578  0.088697  1
  O  O22  1  0.639292  0.652544  0.134574  1
  O  O23  1  0.639273  0.347578  0.134571  1
  O  O24  1  0.701172  0.710043  0.110000  1
  O  O25  1  0.701149  0.290103  0.109996  1
  O  O26  1  0.639352  0.500073  0.115970  1
  O  O27  1  0.830258  0.885744  0.106433  1
  O  O28  1  0.830230  0.114387  0.106435  1
  O  O29  1  0.898039  0.687960  0.112757  1
  O  O30  1  0.898016  0.312180  0.112756  1
  O  O31  1  -0.000000  0.000000  0.110427  1
  O  O32  1  0.861882  0.000000  0.128961  1
  O  O33  1  0.000000  0.657344  0.135141  1
  O  O34  1  0.000000  0.500064  0.116775  1
  O  O35  1  0.853104  0.660675  0.061075  1
  O  O36  1  0.000000  0.348257  0.078576  1
  O  O37  1  0.000000  0.651823  0.078579  1
  O  O38  1  0.853103  0.339433  0.061071  1
  O  O39  1  0.298924  0.283179  0.158420  1
  O  O40  1  0.299137  0.716987  0.221835  1
  O  O41  1  0.298949  0.716969  0.158424  1
  O  O42  1  0.299158  0.283202  0.221829  1
  O  O43  1  0.499974  0.657749  0.227002  1
  O  O44  1  0.358559  0.500074  0.153202  1
  O  O45  1  0.358768  0.500090  0.227056  1
  O  O46  1  0.100920  0.308995  0.157357  1
  O  O47  1  0.101161  0.691150  0.222923  1
  O  O48  1  0.100952  0.691130  0.157357  1
  O  O49  1  0.101188  0.309095  0.222914  1
  O  O50  1  0.171655  0.111701  0.151715  1
  O  O51  1  0.171898  0.888495  0.228541  1
  O  O52  1  0.171673  0.888444  0.151720  1
  O  O53  1  0.171885  0.111749  0.228541  1
  O  O54  1  0.172829  0.184543  0.176606  1
  O  O55  1  0.172868  0.815487  0.203655  1
  O  O56  1  0.172823  0.815564  0.176610  1
  O  O57  1  0.172877  0.184669  0.203651  1
  O  O58  1  0.133117  0.000000  0.190142  1
  O  O59  1  0.499793  0.657708  0.153263  1
  O  O60  1  0.499771  0.342415  0.153260  1
  O  O61  1  0.499997  0.342456  0.226997  1
  O  O62  1  0.000000  0.000000  0.232403  1
  O  O63  1  0.700850  0.283230  0.221837  1
  O  O64  1  0.700635  0.716937  0.158431  1
  O  O65  1  0.700817  0.717018  0.221843  1
  O  O66  1  0.700609  0.283155  0.158428  1
  O  O67  1  0.641209  0.500116  0.227060  1
  O  O68  1  0.641001  0.500050  0.153205  1
  O  O69  1  0.898852  0.309048  0.222901  1
  O  O70  1  0.898612  0.691100  0.157345  1
  O  O71  1  0.898818  0.691179  0.222907  1
  O  O72  1  0.898579  0.309050  0.157343  1
  O  O73  1  0.828114  0.111757  0.228546  1
  O  O74  1  0.827872  0.888436  0.151722  1
  O  O75  1  0.828099  0.888498  0.228542  1
  O  O76  1  0.827885  0.111691  0.151721  1
  O  O77  1  0.826953  0.184571  0.203654  1
  O  O78  1  0.826898  0.815474  0.176610  1
  O  O79  1  0.826929  0.815597  0.203654  1
  O  O80  1  0.826893  0.184667  0.176609  1
  O  O81  1  0.000000  0.000000  0.147859  1
  O  O82  1  0.000000  0.500069  0.153448  1
  O  O83  1  0.866652  0.000000  0.190119  1
  O  O84  1  -0.000000  0.159748  0.190129  1
  O  O85  1  0.000000  0.840395  0.190133  1
  O  O86  1  0.000000  0.500116  0.226814  1
  O  O87  1  0.141903  0.500068  0.301010  1
  O  O88  1  0.175345  0.710543  0.291565  1
  O  O89  1  0.175363  0.289614  0.291562  1
  O  O90  1  0.360465  0.652551  0.245691  1
  O  O91  1  0.360488  0.347586  0.245686  1
  O  O92  1  0.298579  0.710014  0.270266  1
  O  O93  1  0.298599  0.290078  0.270261  1
  O  O94  1  0.360398  0.500048  0.264291  1
  O  O95  1  0.169518  0.885746  0.273827  1
  O  O96  1  0.169498  0.114393  0.273830  1
  O  O97  1  0.101708  0.687964  0.267508  1
  O  O98  1  0.101733  0.312184  0.267504  1
  O  O99  1  0.137878  0.000000  0.251302  1
  O  O100  1  0.499929  0.658431  0.264399  1
  O  O101  1  0.499951  0.341687  0.264394  1
  O  O102  1  0.857900  0.500067  0.301009  1
  O  O103  1  0.824481  0.289599  0.291560  1
  O  O104  1  0.824472  0.710559  0.291566  1
  O  O105  1  0.000000  0.342816  0.245119  1
  O  O106  1  0.639455  0.347627  0.245690  1
  O  O107  1  0.639436  0.652563  0.245695  1
  O  O108  1  0.701301  0.290063  0.270260  1
  O  O109  1  0.701274  0.710075  0.270267  1
  O  O110  1  0.639488  0.500071  0.264297  1
  O  O111  1  0.830447  0.114387  0.273827  1
  O  O112  1  0.830429  0.885753  0.273828  1
  O  O113  1  0.898169  0.312206  0.267505  1
  O  O114  1  0.898139  0.687913  0.267511  1
  O  O115  1  0.862117  0.000000  0.251302  1
  O  O116  1  0.000000  0.657370  0.245124  1
  O  O117  1  0.000000  0.500070  0.263486  1
  O  O118  1  0.000000  0.348282  0.301683  1
  O  O119  1  0.000000  0.651850  0.301686  1
  O  O120  1  0.000000  0.000000  0.269835  1
  O  O121  1  0.141845  0.500038  0.337367  1
  O  O122  1  0.175262  0.289560  0.346812  1
  O  O123  1  0.175283  0.710517  0.346813  1
  O  O124  1  0.360303  0.347617  0.392682  1
  O  O125  1  0.360323  0.652553  0.392685  1
  O  O126  1  0.298452  0.290089  0.368112  1
  O  O127  1  0.298470  0.710100  0.368114  1
  O  O128  1  0.360262  0.500094  0.374079  1
  O  O129  1  0.146641  0.660674  0.319190  1
  O  O130  1  0.499820  0.658456  0.373980  1
  O  O131  1  0.169332  0.114381  0.364551  1
  O  O132  1  0.169296  0.885745  0.364545  1
  O  O133  1  0.101583  0.312204  0.370867  1
  O  O134  1  0.101605  0.687911  0.370868  1
  O  O135  1  0.137645  0.000000  0.387073  1
  O  O136  1  0.499800  0.341713  0.373978  1
  O  O137  1  0.146641  0.339431  0.319187  1
  O  O138  1  0.000000  0.342789  0.393254  1
  O  O139  1  0.857841  0.500042  0.337366  1
  O  O140  1  0.824399  0.710513  0.346813  1
  O  O141  1  0.824392  0.289578  0.346811  1
  O  O142  1  0.639292  0.652544  0.392688  1
  O  O143  1  0.639273  0.347578  0.392685  1
  O  O144  1  0.701172  0.710043  0.368114  1
  O  O145  1  0.701149  0.290103  0.368110  1
  O  O146  1  0.639352  0.500073  0.374084  1
  O  O147  1  0.830258  0.885744  0.364547  1
  O  O148  1  0.830230  0.114387  0.364549  1
  O  O149  1  0.898039  0.687960  0.370871  1
  O  O150  1  0.898016  0.312180  0.370870  1
  O  O151  1  0.000000  0.000000  0.368541  1
  O  O152  1  0.861882  0.000000  0.387075  1
  O  O153  1  -0.000000  0.657344  0.393255  1
  O  O154  1  0.000000  0.500064  0.374889  1
  O  O155  1  0.853104  0.660675  0.319189  1
  O  O156  1  0.000000  0.348257  0.336690  1
  O  O157  1  -0.000000  0.651823  0.336693  1
  O  O158  1  0.853103  0.339433  0.319185  1
  O  O159  1  0.298924  0.283179  0.416534  1
  O  O160  1  0.299137  0.716987  0.479949  1
  O  O161  1  0.298949  0.716969  0.416538  1
  O  O162  1  0.299158  0.283202  0.479943  1
  O  O163  1  0.499974  0.657749  0.485116  1
  O  O164  1  0.358559  0.500074  0.411316  1
  O  O165  1  0.358768  0.500090  0.485170  1
  O  O166  1  0.100920  0.308995  0.415471  1
  O  O167  1  0.101161  0.691150  0.481037  1
  O  O168  1  0.100952  0.691130  0.415471  1
  O  O169  1  0.101188  0.309095  0.481028  1
  O  O170  1  0.171655  0.111701  0.409829  1
  O  O171  1  0.171898  0.888495  0.486655  1
  O  O172  1  0.171673  0.888444  0.409834  1
  O  O173  1  0.171885  0.111749  0.486655  1
  O  O174  1  0.172829  0.184543  0.434720  1
  O  O175  1  0.172868  0.815487  0.461769  1
  O  O176  1  0.172823  0.815564  0.434724  1
  O  O177  1  0.172877  0.184669  0.461765  1
  O  O178  1  0.133117  0.000000  0.448256  1
  O  O179  1  0.499793  0.657708  0.411377  1
  O  O180  1  0.499771  0.342415  0.411374  1
  O  O181  1  0.499997  0.342456  0.485111  1
  O  O182  1  0.000000  0.000000  0.490517  1
  O  O183  1  0.700850  0.283230  0.479951  1
  O  O184  1  0.700635  0.716937  0.416545  1
  O  O185  1  0.700817  0.717018  0.479957  1
  O  O186  1  0.700609  0.283155  0.416542  1
  O  O187  1  0.641209  0.500116  0.485174  1
  O  O188  1  0.641001  0.500050  0.411319  1
  O  O189  1  0.898852  0.309048  0.481015  1
  O  O190  1  0.898612  0.691100  0.415459  1
  O  O191  1  0.898818  0.691179  0.481021  1
  O  O192  1  0.898579  0.309050  0.415457  1
  O  O193  1  0.828114  0.111757  0.486660  1
  O  O194  1  0.827872  0.888436  0.409836  1
  O  O195  1  0.828099  0.888498  0.486656  1
  O  O196  1  0.827885  0.111691  0.409835  1
  O  O197  1  0.826953  0.184571  0.461768  1
  O  O198  1  0.826898  0.815474  0.434724  1
  O  O199  1  0.826929  0.815597  0.461768  1
  O  O200  1  0.826893  0.184667  0.434723  1
  O  O201  1  0.000000  0.000000  0.405973  1
  O  O202  1  0.000000  0.500069  0.411562  1
  O  O203  1  0.866652  0.000000  0.448233  1
  O  O204  1  0.000000  0.159748  0.448243  1
  O  O205  1  0.000000  0.840395  0.448247  1
  O  O206  1  0.000000  0.500116  0.484928  1
  O  O207  1  0.141903  0.500068  0.559124  1
  O  O208  1  0.175345  0.710543  0.549679  1
  O  O209  1  0.175363  0.289614  0.549676  1
  O  O210  1  0.360465  0.652551  0.503805  1
  O  O211  1  0.360488  0.347586  0.503800  1
  O  O212  1  0.298579  0.710014  0.528380  1
  O  O213  1  0.298599  0.290078  0.528375  1
  O  O214  1  0.360398  0.500048  0.522405  1
  O  O215  1  0.169518  0.885746  0.531941  1
  O  O216  1  0.169498  0.114393  0.531944  1
  O  O217  1  0.101708  0.687964  0.525622  1
  O  O218  1  0.101733  0.312184  0.525618  1
  O  O219  1  0.137878  0.000000  0.509416  1
  O  O220  1  0.499929  0.658431  0.522513  1
  O  O221  1  0.499951  0.341687  0.522508  1
  O  O222  1  0.857900  0.500067  0.559123  1
  O  O223  1  0.824481  0.289599  0.549674  1
  O  O224  1  0.824472  0.710559  0.549680  1
  O  O225  1  -0.000000  0.342816  0.503233  1
  O  O226  1  0.639455  0.347627  0.503804  1
  O  O227  1  0.639436  0.652563  0.503809  1
  O  O228  1  0.701301  0.290063  0.528374  1
  O  O229  1  0.701274  0.710075  0.528381  1
  O  O230  1  0.639488  0.500071  0.522411  1
  O  O231  1  0.830447  0.114387  0.531941  1
  O  O232  1  0.830429  0.885753  0.531942  1
  O  O233  1  0.898169  0.312206  0.525619  1
  O  O234  1  0.898139  0.687913  0.525625  1
  O  O235  1  0.862117  0.000000  0.509416  1
  O  O236  1  0.000000  0.657370  0.503238  1
  O  O237  1  0.000000  0.500070  0.521600  1
  O  O238  1  -0.000000  0.348282  0.559797  1
  O  O239  1  -0.000000  0.651850  0.559800  1
  O  O240  1  0.000000  0.000000  0.527948  1
  O  O241  1  0.141845  0.500038  0.595481  1
  O  O242  1  0.175262  0.289560  0.604926  1
  O  O243  1  0.175283  0.710517  0.604927  1
  O  O244  1  0.360303  0.347617  0.650796  1
  O  O245  1  0.360323  0.652553  0.650799  1
  O  O246  1  0.298452  0.290089  0.626226  1
  O  O247  1  0.298470  0.710100  0.626228  1
  O  O248  1  0.360262  0.500094  0.632193  1
  O  O249  1  0.146641  0.660674  0.577304  1
  O  O250  1  0.499820  0.658456  0.632094  1
  O  O251  1  0.169332  0.114381  0.622665  1
  O  O252  1  0.169296  0.885745  0.622659  1
  O  O253  1  0.101583  0.312204  0.628981  1
  O  O254  1  0.101605  0.687911  0.628982  1
  O  O255  1  0.137645  0.000000  0.645187  1
  O  O256  1  0.499800  0.341713  0.632092  1
  O  O257  1  0.146641  0.339431  0.577301  1
  O  O258  1  -0.000000  0.342789  0.651368  1
  O  O259  1  0.857841  0.500042  0.595480  1
  O  O260  1  0.824399  0.710513  0.604927  1
  O  O261  1  0.824392  0.289578  0.604925  1
  O  O262  1  0.639292  0.652544  0.650802  1
  O  O263  1  0.639273  0.347578  0.650799  1
  O  O264  1  0.701172  0.710043  0.626228  1
  O  O265  1  0.701149  0.290103  0.626224  1
  O  O266  1  0.639352  0.500073  0.632198  1
  O  O267  1  0.830258  0.885744  0.622661  1
  O  O268  1  0.830230  0.114387  0.622663  1
  O  O269  1  0.898039  0.687960  0.628985  1
  O  O270  1  0.898016  0.312180  0.628984  1
  O  O271  1  0.000000  0.000000  0.626655  1
  O  O272  1  0.861882  0.000000  0.645189  1
  O  O273  1  0.000000  0.657344  0.651369  1
  O  O274  1  0.000000  0.500064  0.633003  1
  O  O275  1  0.853104  0.660675  0.577303  1
  O  O276  1  0.000000  0.348257  0.594804  1
  O  O277  1  -0.000000  0.651823  0.594807  1
  O  O278  1  0.853103  0.339433  0.577299  1
  O  O279  1  0.298924  0.283179  0.674648  1
  O  O280  1  0.299137  0.716987  0.738063  1
  O  O281  1  0.298949  0.716969  0.674652  1
  O  O282  1  0.299158  0.283202  0.738057  1
  O  O283  1  0.499974  0.657749  0.743230  1
  O  O284  1  0.358559  0.500074  0.669430  1
  O  O285  1  0.358768  0.500090  0.743284  1
  O  O286  1  0.100920  0.308995  0.673585  1
  O  O287  1  0.101161  0.691150  0.739151  1
  O  O288  1  0.100952  0.691130  0.673585  1
  O  O289  1  0.101188  0.309095  0.739142  1
  O  O290  1  0.171655  0.111701  0.667943  1
  O  O291  1  0.171898  0.888495  0.744769  1
  O  O292  1  0.171673  0.888444  0.667948  1
  O  O293  1  0.171885  0.111749  0.744769  1
  O  O294  1  0.172829  0.184543  0.692834  1
  O  O295  1  0.172868  0.815487  0.719883  1
  O  O296  1  0.172823  0.815564  0.692838  1
  O  O297  1  0.172877  0.184669  0.719879  1
  O  O298  1  0.133117  0.000000  0.706370  1
  O  O299  1  0.499793  0.657708  0.669491  1
  O  O300  1  0.499771  0.342415  0.669488  1
  O  O301  1  0.499997  0.342456  0.743225  1
  O  O302  1  0.000000  0.000000  0.748631  1
  O  O303  1  0.700850  0.283230  0.738065  1
  O  O304  1  0.700635  0.716937  0.674659  1
  O  O305  1  0.700817  0.717018  0.738071  1
  O  O306  1  0.700609  0.283155  0.674656  1
  O  O307  1  0.641209  0.500116  0.743288  1
  O  O308  1  0.641001  0.500050  0.669433  1
  O  O309  1  0.898852  0.309048  0.739129  1
  O  O310  1  0.898612  0.691100  0.673573  1
  O  O311  1  0.898818  0.691179  0.739135  1
  O  O312  1  0.898579  0.309050  0.673571  1
  O  O313  1  0.828114  0.111757  0.744774  1
  O  O314  1  0.827872  0.888436  0.667950  1
  O  O315  1  0.828099  0.888498  0.744770  1
  O  O316  1  0.827885  0.111691  0.667949  1
  O  O317  1  0.826953  0.184571  0.719882  1
  O  O318  1  0.826898  0.815474  0.692838  1
  O  O319  1  0.826929  0.815597  0.719882  1
  O  O320  1  0.826893  0.184667  0.692837  1
  O  O321  1  0.000000  -0.000000  0.664087  1
  O  O322  1  0.000000  0.500069  0.669676  1
  O  O323  1  0.866652  0.000000  0.706347  1
  O  O324  1  0.000000  0.159748  0.706357  1
  O  O325  1  0.000000  0.840395  0.706361  1
  O  O326  1  -0.000000  0.500116  0.743042  1
  O  O327  1  0.141903  0.500068  0.817238  1
  O  O328  1  0.175345  0.710543  0.807793  1
  O  O329  1  0.175363  0.289614  0.807790  1
  O  O330  1  0.360465  0.652551  0.761919  1
  O  O331  1  0.360488  0.347586  0.761914  1
  O  O332  1  0.298579  0.710014  0.786494  1
  O  O333  1  0.298599  0.290078  0.786489  1
  O  O334  1  0.360398  0.500048  0.780519  1
  O  O335  1  0.169518  0.885746  0.790055  1
  O  O336  1  0.169498  0.114393  0.790058  1
  O  O337  1  0.101708  0.687964  0.783736  1
  O  O338  1  0.101733  0.312184  0.783732  1
  O  O339  1  0.137878  0.000000  0.767530  1
  O  O340  1  0.499929  0.658431  0.780627  1
  O  O341  1  0.499951  0.341687  0.780622  1
  O  O342  1  0.857900  0.500067  0.817237  1
  O  O343  1  0.824481  0.289599  0.807788  1
  O  O344  1  0.824472  0.710559  0.807794  1
  O  O345  1  0.000000  0.342816  0.761347  1
  O  O346  1  0.639455  0.347627  0.761918  1
  O  O347  1  0.639436  0.652563  0.761923  1
  O  O348  1  0.701301  0.290063  0.786488  1
  O  O349  1  0.701274  0.710075  0.786495  1
  O  O350  1  0.639488  0.500071  0.780525  1
  O  O351  1  0.830447  0.114387  0.790055  1
  O  O352  1  0.830429  0.885753  0.790056  1
  O  O353  1  0.898169  0.312206  0.783733  1
  O  O354  1  0.898139  0.687913  0.783739  1
  O  O355  1  0.862117  0.000000  0.767530  1
  O  O356  1  -0.000000  0.657370  0.761352  1
  O  O357  1  0.000000  0.500070  0.779714  1
  O  O358  1  0.000000  0.348282  0.817911  1
  O  O359  1  0.000000  0.651850  0.817914  1
  O  O360  1  0.000000  0.000000  0.786062  1
  O  O361  1  0.146641  0.660674  0.835418  1
  O  O362  1  0.146641  0.339431  0.835415  1
  O  O363  1  0.853104  0.660675  0.835417  1
  O  O364  1  0.853103  0.339433  0.835413  1
  Si  Si365  1  0.121647  -0.000000  0.145007  1
  Si  Si366  1  0.189041  0.751452  0.104213  1
  Si  Si367  1  0.121515  -0.000000  0.112894  1
  Si  Si368  1  0.121763  0.364952  0.076932  1
  Si  Si369  1  0.121769  0.635127  0.076934  1
  Si  Si370  1  0.378782  0.365173  0.118603  1
  Si  Si371  1  0.378799  0.635010  0.118605  1
  Si  Si372  1  0.189034  0.248676  0.104214  1
  Si  Si373  1  0.000000  0.635225  0.119184  1
  Si  Si374  1  0.000000  0.364901  0.119183  1
  Si  Si375  1  0.877883  -0.000000  0.145009  1
  Si  Si376  1  0.877924  0.635132  0.076935  1
  Si  Si377  1  0.877919  0.364955  0.076932  1
  Si  Si378  1  0.620835  0.634992  0.118608  1
  Si  Si379  1  0.620818  0.365154  0.118606  1
  Si  Si380  1  0.810588  0.751436  0.104213  1
  Si  Si381  1  0.810568  0.248691  0.104212  1
  Si  Si382  1  0.878026  0.000000  0.112896  1
  Si  Si383  1  0.121599  0.135830  0.190133  1
  Si  Si384  1  0.121592  0.864306  0.190135  1
  Si  Si385  1  0.378716  0.365140  0.150552  1
  Si  Si386  1  0.378915  0.635024  0.229708  1
  Si  Si387  1  0.378734  0.635008  0.150554  1
  Si  Si388  1  0.378934  0.365154  0.229704  1
  Si  Si389  1  0.190343  0.220990  0.161190  1
  Si  Si390  1  0.190533  0.779157  0.219071  1
  Si  Si391  1  0.190360  0.779143  0.161194  1
  Si  Si392  1  0.190543  0.221048  0.219066  1
  Si  Si393  1  0.000000  0.635181  0.229145  1
  Si  Si394  1  0.000000  0.635137  0.151119  1
  Si  Si395  1  0.878170  0.864315  0.190128  1
  Si  Si396  1  0.878177  0.135839  0.190127  1
  Si  Si397  1  0.621052  0.365178  0.229707  1
  Si  Si398  1  0.620852  0.634988  0.150556  1
  Si  Si399  1  0.621033  0.635045  0.229711  1
  Si  Si400  1  0.620834  0.365118  0.150554  1
  Si  Si401  1  0.809431  0.221036  0.219069  1
  Si  Si402  1  0.809236  0.779113  0.161194  1
  Si  Si403  1  0.809404  0.779188  0.219071  1
  Si  Si404  1  0.809224  0.221011  0.161193  1
  Si  Si405  1  -0.000000  0.365001  0.151118  1
  Si  Si406  1  0.000000  0.365045  0.229141  1
  Si  Si407  1  0.189178  0.248699  0.276048  1
  Si  Si408  1  0.121885  0.000000  0.235253  1
  Si  Si409  1  0.121729  0.000000  0.267367  1
  Si  Si410  1  0.121822  0.635155  0.303330  1
  Si  Si411  1  0.121826  0.364978  0.303328  1
  Si  Si412  1  0.378915  0.634972  0.261657  1
  Si  Si413  1  0.378933  0.365134  0.261653  1
  Si  Si414  1  0.189167  0.751439  0.276050  1
  Si  Si415  1  0.878121  0.000000  0.235254  1
  Si  Si416  1  0.878240  0.000000  0.267367  1
  Si  Si417  1  0.877982  0.364978  0.303327  1
  Si  Si418  1  0.877977  0.635154  0.303330  1
  Si  Si419  1  0.620969  0.365154  0.261656  1
  Si  Si420  1  0.620951  0.634991  0.261660  1
  Si  Si421  1  0.810724  0.248684  0.276046  1
  Si  Si422  1  0.810701  0.751463  0.276050  1
  Si  Si423  1  -0.000000  0.635235  0.261080  1
  Si  Si424  1  0.000000  0.364911  0.261076  1
  Si  Si425  1  0.121647  0.000000  0.403121  1
  Si  Si426  1  0.189041  0.751452  0.362327  1
  Si  Si427  1  0.121515  0.000000  0.371008  1
  Si  Si428  1  0.121763  0.364952  0.335046  1
  Si  Si429  1  0.121769  0.635127  0.335048  1
  Si  Si430  1  0.378782  0.365173  0.376717  1
  Si  Si431  1  0.378799  0.635010  0.376719  1
  Si  Si432  1  0.189034  0.248676  0.362328  1
  Si  Si433  1  0.000000  0.635225  0.377298  1
  Si  Si434  1  0.000000  0.364901  0.377297  1
  Si  Si435  1  0.877883  -0.000000  0.403123  1
  Si  Si436  1  0.877924  0.635132  0.335049  1
  Si  Si437  1  0.877919  0.364955  0.335046  1
  Si  Si438  1  0.620835  0.634992  0.376722  1
  Si  Si439  1  0.620818  0.365154  0.376720  1
  Si  Si440  1  0.810588  0.751436  0.362327  1
  Si  Si441  1  0.810568  0.248691  0.362326  1
  Si  Si442  1  0.878026  0.000000  0.371010  1
  Si  Si443  1  0.121599  0.135830  0.448247  1
  Si  Si444  1  0.121592  0.864306  0.448249  1
  Si  Si445  1  0.378716  0.365140  0.408666  1
  Si  Si446  1  0.378915  0.635024  0.487822  1
  Si  Si447  1  0.378734  0.635008  0.408668  1
  Si  Si448  1  0.378934  0.365154  0.487818  1
  Si  Si449  1  0.190343  0.220990  0.419304  1
  Si  Si450  1  0.190533  0.779157  0.477185  1
  Si  Si451  1  0.190360  0.779143  0.419308  1
  Si  Si452  1  0.190543  0.221048  0.477180  1
  Si  Si453  1  -0.000000  0.635181  0.487259  1
  Si  Si454  1  -0.000000  0.635137  0.409233  1
  Si  Si455  1  0.878170  0.864315  0.448242  1
  Si  Si456  1  0.878177  0.135839  0.448241  1
  Si  Si457  1  0.621052  0.365178  0.487821  1
  Si  Si458  1  0.620852  0.634988  0.408670  1
  Si  Si459  1  0.621033  0.635045  0.487825  1
  Si  Si460  1  0.620834  0.365118  0.408668  1
  Si  Si461  1  0.809431  0.221036  0.477183  1
  Si  Si462  1  0.809236  0.779113  0.419308  1
  Si  Si463  1  0.809404  0.779188  0.477185  1
  Si  Si464  1  0.809224  0.221011  0.419307  1
  Si  Si465  1  0.000000  0.365001  0.409232  1
  Si  Si466  1  0.000000  0.365045  0.487255  1
  Si  Si467  1  0.189178  0.248699  0.534162  1
  Si  Si468  1  0.121885  0.000000  0.493367  1
  Si  Si469  1  0.121729  0.000000  0.525481  1
  Si  Si470  1  0.121822  0.635155  0.561444  1
  Si  Si471  1  0.121826  0.364978  0.561442  1
  Si  Si472  1  0.378915  0.634972  0.519771  1
  Si  Si473  1  0.378933  0.365134  0.519767  1
  Si  Si474  1  0.189167  0.751439  0.534164  1
  Si  Si475  1  0.878121  -0.000000  0.493368  1
  Si  Si476  1  0.878240  0.000000  0.525481  1
  Si  Si477  1  0.877982  0.364978  0.561441  1
  Si  Si478  1  0.877977  0.635154  0.561444  1
  Si  Si479  1  0.620969  0.365154  0.519770  1
  Si  Si480  1  0.620951  0.634991  0.519774  1
  Si  Si481  1  0.810724  0.248684  0.534159  1
  Si  Si482  1  0.810701  0.751463  0.534164  1
  Si  Si483  1  0.000000  0.635235  0.519194  1
  Si  Si484  1  -0.000000  0.364911  0.519190  1
  Si  Si485  1  0.121647  0.000000  0.661235  1
  Si  Si486  1  0.189041  0.751452  0.620441  1
  Si  Si487  1  0.121515  -0.000000  0.629122  1
  Si  Si488  1  0.121763  0.364952  0.593160  1
  Si  Si489  1  0.121769  0.635127  0.593162  1
  Si  Si490  1  0.378782  0.365173  0.634831  1
  Si  Si491  1  0.378799  0.635010  0.634833  1
  Si  Si492  1  0.189034  0.248676  0.620442  1
  Si  Si493  1  0.000000  0.635225  0.635412  1
  Si  Si494  1  0.000000  0.364901  0.635411  1
  Si  Si495  1  0.877883  0.000000  0.661237  1
  Si  Si496  1  0.877924  0.635132  0.593163  1
  Si  Si497  1  0.877919  0.364955  0.593160  1
  Si  Si498  1  0.620835  0.634992  0.634836  1
  Si  Si499  1  0.620818  0.365154  0.634834  1
  Si  Si500  1  0.810588  0.751436  0.620441  1
  Si  Si501  1  0.810568  0.248691  0.620440  1
  Si  Si502  1  0.878026  0.000000  0.629124  1
  Si  Si503  1  0.121599  0.135830  0.706361  1
  Si  Si504  1  0.121592  0.864306  0.706363  1
  Si  Si505  1  0.378716  0.365140  0.666779  1
  Si  Si506  1  0.378915  0.635024  0.745936  1
  Si  Si507  1  0.378734  0.635008  0.666782  1
  Si  Si508  1  0.378934  0.365154  0.745932  1
  Si  Si509  1  0.190343  0.220990  0.677418  1
  Si  Si510  1  0.190533  0.779157  0.735299  1
  Si  Si511  1  0.190360  0.779143  0.677422  1
  Si  Si512  1  0.190543  0.221048  0.735294  1
  Si  Si513  1  0.000000  0.635181  0.745373  1
  Si  Si514  1  -0.000000  0.635137  0.667347  1
  Si  Si515  1  0.878170  0.864315  0.706356  1
  Si  Si516  1  0.878177  0.135839  0.706355  1
  Si  Si517  1  0.621052  0.365178  0.745935  1
  Si  Si518  1  0.620852  0.634988  0.666784  1
  Si  Si519  1  0.621033  0.635045  0.745939  1
  Si  Si520  1  0.620834  0.365118  0.666782  1
  Si  Si521  1  0.809431  0.221036  0.735297  1
  Si  Si522  1  0.809236  0.779113  0.677422  1
  Si  Si523  1  0.809404  0.779188  0.735299  1
  Si  Si524  1  0.809224  0.221011  0.677421  1
  Si  Si525  1  0.000000  0.365001  0.667346  1
  Si  Si526  1  0.000000  0.365045  0.745368  1
  Si  Si527  1  0.189178  0.248699  0.792276  1
  Si  Si528  1  0.121885  -0.000000  0.751481  1
  Si  Si529  1  0.121729  0.000000  0.783595  1
  Si  Si530  1  0.121822  0.635155  0.819558  1
  Si  Si531  1  0.121826  0.364978  0.819556  1
  Si  Si532  1  0.378915  0.634972  0.777885  1
  Si  Si533  1  0.378933  0.365134  0.777881  1
  Si  Si534  1  0.189167  0.751439  0.792278  1
  Si  Si535  1  0.878121  -0.000000  0.751482  1
  Si  Si536  1  0.878240  0.000000  0.783595  1
  Si  Si537  1  0.877982  0.364978  0.819555  1
  Si  Si538  1  0.877977  0.635154  0.819558  1
  Si  Si539  1  0.620969  0.365154  0.777884  1
  Si  Si540  1  0.620951  0.634991  0.777888  1
  Si  Si541  1  0.810724  0.248684  0.792273  1
  Si  Si542  1  0.810701  0.751463  0.792278  1
  Si  Si543  1  -0.000000  0.635235  0.777308  1
  Si  Si544  1  -0.000000  0.364911  0.777304  1
  H  H545  1  0.146641  0.660674  0.051760  1
  H  H546  1  0.146641  0.339431  0.051757  1
  H  H547  1  0.853104  0.660675  0.051759  1
  H  H548  1  0.853103  0.339433  0.051755  1
  H  H549  1  0.146641  0.660674  0.844734  1
  H  H550  1  0.146641  0.339431  0.844731  1
  H  H551  1  0.853104  0.660675  0.844733  1
  H  H552  1  0.853103  0.339433  0.844729  1
