# generated using pymatgen
data_Si40H2O81
_symmetry_space_group_name_H-M   'P 1'
_cell_length_a   13.14980435
_cell_length_b   9.70786557
_cell_length_c   65.73402791
_cell_angle_alpha   108.36700000
_cell_angle_beta   90.00000000
_cell_angle_gamma   90.00000000
_symmetry_Int_Tables_number   1
_chemical_formula_structural   Si40H2O81
_chemical_formula_sum   'Si80 H4 O162'
_cell_volume   7963.90161848
_cell_formula_units_Z   2
loop_
 _symmetry_equiv_pos_site_id
 _symmetry_equiv_pos_as_xyz
  1  'x, y, z'
loop_
 _atom_site_type_symbol
 _atom_site_label
 _atom_site_symmetry_multiplicity
 _atom_site_fract_x
 _atom_site_fract_y
 _atom_site_fract_z
 _atom_site_occupancy
  O  O1  1  0.134741  0.204553  0.313241  1
  O  O2  1  0.634762  0.204476  0.150230  1
  O  O3  1  0.134761  0.795676  0.200452  1
  O  O4  1  0.634742  0.795765  0.363461  1
  O  O5  1  0.864964  0.795693  0.200452  1
  O  O6  1  0.364944  0.795766  0.363462  1
  O  O7  1  0.864945  0.204550  0.313240  1
  O  O8  1  0.364963  0.204463  0.150231  1
  O  O9  1  0.000000  0.122068  0.335211  1
  O  O10  1  0.499864  0.122006  0.172203  1
  O  O11  1  0.000000  0.878168  0.178481  1
  O  O12  1  0.499841  0.878229  0.341489  1
  O  O13  1  0.191583  0.175433  0.349060  1
  O  O14  1  0.691600  0.175368  0.186050  1
  O  O15  1  0.191604  0.824800  0.164634  1
  O  O16  1  0.691579  0.824871  0.327641  1
  O  O17  1  0.808125  0.824811  0.164633  1
  O  O18  1  0.308105  0.824872  0.327642  1
  O  O19  1  0.808103  0.175428  0.349058  1
  O  O20  1  0.308126  0.175361  0.186052  1
  O  O21  1  0.147748  0.948123  0.318607  1
  O  O22  1  0.647764  0.948055  0.155599  1
  O  O23  1  0.147771  0.052108  0.195087  1
  O  O24  1  0.647742  0.052185  0.358092  1
  O  O25  1  0.851959  0.052121  0.195085  1
  O  O26  1  0.351943  0.052186  0.358093  1
  O  O27  1  0.851938  0.948119  0.318606  1
  O  O28  1  0.351965  0.948045  0.155601  1
  O  O29  1  0.207049  0.643058  0.363419  1
  O  O30  1  0.707072  0.642967  0.200408  1
  O  O31  1  0.207070  0.357173  0.150274  1
  O  O32  1  0.707051  0.357273  0.313284  1
  O  O33  1  0.792661  0.357184  0.150273  1
  O  O34  1  0.292635  0.357276  0.313285  1
  O  O35  1  0.792639  0.643057  0.363418  1
  O  O36  1  0.292657  0.642953  0.200409  1
  O  O37  1  0.136421  0.740970  0.334860  1
  O  O38  1  0.636440  0.740895  0.171851  1
  O  O39  1  0.136441  0.259260  0.178834  1
  O  O40  1  0.636419  0.259346  0.341841  1
  O  O41  1  0.863285  0.259274  0.178833  1
  O  O42  1  0.363267  0.259348  0.341841  1
  O  O43  1  0.863265  0.740967  0.334858  1
  O  O44  1  0.363287  0.740882  0.171852  1
  O  O45  1  0.000000  0.639609  0.354342  1
  O  O46  1  0.499866  0.639504  0.191332  1
  O  O47  1  0.000000  0.360627  0.159350  1
  O  O48  1  0.499842  0.360731  0.322360  1
  O  O49  1  0.129612  0.473343  0.329762  1
  O  O50  1  0.629638  0.473261  0.166749  1
  O  O51  1  0.129634  0.526887  0.183932  1
  O  O52  1  0.629615  0.526981  0.346942  1
  O  O53  1  0.870098  0.526902  0.183931  1
  O  O54  1  0.370072  0.526983  0.346943  1
  O  O55  1  0.870075  0.473339  0.329760  1
  O  O56  1  0.370094  0.473247  0.166750  1
  O  O57  1  0.858464  0.404640  0.290243  1
  O  O58  1  0.358477  0.404559  0.127232  1
  O  O59  1  0.858483  0.595600  0.223449  1
  O  O60  1  0.358459  0.595672  0.386460  1
  O  O61  1  0.141240  0.595587  0.223449  1
  O  O62  1  0.641234  0.595672  0.386459  1
  O  O63  1  0.141220  0.404643  0.290244  1
  O  O64  1  0.641253  0.404569  0.127232  1
  O  O65  1  0.177282  0.673962  0.296112  1
  O  O66  1  0.677301  0.673899  0.133104  1
  O  O67  1  0.177299  0.326268  0.217582  1
  O  O68  1  0.677285  0.326342  0.380587  1
  O  O69  1  0.822417  0.326280  0.217580  1
  O  O70  1  0.322409  0.326343  0.380588  1
  O  O71  1  0.822402  0.673959  0.296111  1
  O  O72  1  0.322424  0.673889  0.133106  1
  O  O73  1  0.142654  0.500115  0.256847  1
  O  O74  1  0.642655  0.500121  0.093839  1
  O  O75  1  0.857046  0.500119  0.256845  1
  O  O76  1  0.357056  0.500117  0.093840  1
  O  O77  1  0.000000  0.566745  0.284331  1
  O  O78  1  0.499862  0.566672  0.121325  1
  O  O79  1  0.000000  0.433490  0.229361  1
  O  O80  1  0.499849  0.433564  0.392368  1
  O  O81  1  0.134741  0.204553  0.639255  1
  O  O82  1  0.634762  0.204476  0.476244  1
  O  O83  1  0.134761  0.795676  0.526466  1
  O  O84  1  0.634742  0.795765  0.689475  1
  O  O85  1  0.864964  0.795693  0.526465  1
  O  O86  1  0.364944  0.795766  0.689476  1
  O  O87  1  0.864945  0.204550  0.639254  1
  O  O88  1  0.364963  0.204463  0.476245  1
  O  O89  1  0.000000  0.122068  0.661225  1
  O  O90  1  0.499864  0.122006  0.498217  1
  O  O91  1  0.000000  0.878168  0.504495  1
  O  O92  1  0.499841  0.878229  0.667503  1
  O  O93  1  0.191583  0.175433  0.675074  1
  O  O94  1  0.691600  0.175368  0.512064  1
  O  O95  1  0.191604  0.824800  0.490648  1
  O  O96  1  0.691579  0.824871  0.653655  1
  O  O97  1  0.808125  0.824811  0.490647  1
  O  O98  1  0.308105  0.824872  0.653655  1
  O  O99  1  0.808103  0.175428  0.675072  1
  O  O100  1  0.308126  0.175361  0.512066  1
  O  O101  1  0.147748  0.948123  0.644621  1
  O  O102  1  0.647764  0.948055  0.481613  1
  O  O103  1  0.147771  0.052108  0.521101  1
  O  O104  1  0.647742  0.052185  0.684106  1
  O  O105  1  0.851959  0.052121  0.521099  1
  O  O106  1  0.351943  0.052186  0.684107  1
  O  O107  1  0.851938  0.948119  0.644620  1
  O  O108  1  0.351965  0.948045  0.481614  1
  O  O109  1  0.207049  0.643058  0.689433  1
  O  O110  1  0.707072  0.642967  0.526421  1
  O  O111  1  0.207070  0.357173  0.476288  1
  O  O112  1  0.707051  0.357273  0.639298  1
  O  O113  1  0.792661  0.357184  0.476287  1
  O  O114  1  0.292635  0.357276  0.639298  1
  O  O115  1  0.792639  0.643057  0.689432  1
  O  O116  1  0.292657  0.642953  0.526422  1
  O  O117  1  0.136421  0.740970  0.660873  1
  O  O118  1  0.636440  0.740895  0.497865  1
  O  O119  1  0.136441  0.259260  0.504848  1
  O  O120  1  0.636419  0.259346  0.667854  1
  O  O121  1  0.863285  0.259274  0.504847  1
  O  O122  1  0.363267  0.259348  0.667855  1
  O  O123  1  0.863265  0.740967  0.660872  1
  O  O124  1  0.363287  0.740882  0.497866  1
  O  O125  1  0.000000  0.639609  0.680356  1
  O  O126  1  0.499866  0.639504  0.517346  1
  O  O127  1  0.000000  0.360627  0.485364  1
  O  O128  1  0.499842  0.360731  0.648373  1
  O  O129  1  0.129612  0.473343  0.655776  1
  O  O130  1  0.629638  0.473261  0.492763  1
  O  O131  1  0.129634  0.526887  0.509946  1
  O  O132  1  0.629615  0.526981  0.672956  1
  O  O133  1  0.870098  0.526902  0.509945  1
  O  O134  1  0.370072  0.526983  0.672957  1
  O  O135  1  0.870075  0.473339  0.655774  1
  O  O136  1  0.370094  0.473247  0.492764  1
  O  O137  1  0.858464  0.404640  0.616257  1
  O  O138  1  0.358477  0.404559  0.453246  1
  O  O139  1  0.858483  0.595600  0.549462  1
  O  O140  1  0.358459  0.595672  0.712474  1
  O  O141  1  0.141240  0.595587  0.549463  1
  O  O142  1  0.641234  0.595672  0.712473  1
  O  O143  1  0.141220  0.404643  0.616258  1
  O  O144  1  0.641253  0.404569  0.453246  1
  O  O145  1  0.177282  0.673962  0.622126  1
  O  O146  1  0.677301  0.673899  0.459118  1
  O  O147  1  0.177299  0.326268  0.543595  1
  O  O148  1  0.677285  0.326342  0.706601  1
  O  O149  1  0.822417  0.326280  0.543594  1
  O  O150  1  0.322409  0.326343  0.706602  1
  O  O151  1  0.822402  0.673959  0.622125  1
  O  O152  1  0.322424  0.673889  0.459119  1
  O  O153  1  0.142654  0.500115  0.582861  1
  O  O154  1  0.642655  0.500121  0.419852  1
  O  O155  1  0.857046  0.500119  0.582859  1
  O  O156  1  0.357056  0.500117  0.419854  1
  O  O157  1  0.000000  0.566745  0.610345  1
  O  O158  1  0.499862  0.566672  0.447339  1
  O  O159  1  -0.000000  0.433490  0.555375  1
  O  O160  1  0.499849  0.433564  0.718382  1
  O  O161  1  0.642655  0.500121  0.745866  1
  O  O162  1  0.357056  0.500117  0.745868  1
  Si  Si163  1  0.116827  0.112436  0.329176  1
  Si  Si164  1  0.616846  0.112368  0.166166  1
  Si  Si165  1  0.116847  0.887798  0.184518  1
  Si  Si166  1  0.616825  0.887870  0.347525  1
  Si  Si167  1  0.882881  0.887809  0.184517  1
  Si  Si168  1  0.382859  0.887873  0.347526  1
  Si  Si169  1  0.882860  0.112431  0.329175  1
  Si  Si170  1  0.382879  0.112360  0.166168  1
  Si  Si171  1  0.115875  0.627315  0.347085  1
  Si  Si172  1  0.615896  0.627225  0.184074  1
  Si  Si173  1  0.115896  0.372914  0.166608  1
  Si  Si174  1  0.615875  0.373016  0.329617  1
  Si  Si175  1  0.883834  0.372928  0.166607  1
  Si  Si176  1  0.383811  0.373017  0.329618  1
  Si  Si177  1  0.883811  0.627313  0.347084  1
  Si  Si178  1  0.383834  0.627213  0.184075  1
  Si  Si179  1  0.826835  0.350235  0.309683  1
  Si  Si180  1  0.326853  0.350145  0.146672  1
  Si  Si181  1  0.826856  0.650006  0.204009  1
  Si  Si182  1  0.326832  0.650086  0.367021  1
  Si  Si183  1  0.172873  0.649992  0.204009  1
  Si  Si184  1  0.672856  0.650086  0.367020  1
  Si  Si185  1  0.172851  0.350238  0.309684  1
  Si  Si186  1  0.672878  0.350155  0.146672  1
  Si  Si187  1  0.117454  0.536135  0.281379  1
  Si  Si188  1  0.617473  0.536078  0.118370  1
  Si  Si189  1  0.117468  0.464093  0.232314  1
  Si  Si190  1  0.617459  0.464164  0.395321  1
  Si  Si191  1  0.882247  0.464104  0.232314  1
  Si  Si192  1  0.382239  0.464163  0.395322  1
  Si  Si193  1  0.882234  0.536135  0.281378  1
  Si  Si194  1  0.382252  0.536069  0.118371  1
  Si  Si195  1  0.804061  0.798102  0.318218  1
  Si  Si196  1  0.304087  0.798029  0.155213  1
  Si  Si197  1  0.804081  0.202137  0.195473  1
  Si  Si198  1  0.304067  0.202204  0.358481  1
  Si  Si199  1  0.195644  0.202127  0.195474  1
  Si  Si200  1  0.695620  0.202200  0.358480  1
  Si  Si201  1  0.195623  0.798105  0.318220  1
  Si  Si202  1  0.695641  0.798039  0.155212  1
  Si  Si203  1  0.116827  0.112436  0.655190  1
  Si  Si204  1  0.616846  0.112368  0.492180  1
  Si  Si205  1  0.116847  0.887798  0.510531  1
  Si  Si206  1  0.616825  0.887870  0.673538  1
  Si  Si207  1  0.882881  0.887809  0.510531  1
  Si  Si208  1  0.382859  0.887873  0.673539  1
  Si  Si209  1  0.882860  0.112431  0.655188  1
  Si  Si210  1  0.382879  0.112360  0.492182  1
  Si  Si211  1  0.115875  0.627315  0.673099  1
  Si  Si212  1  0.615896  0.627225  0.510088  1
  Si  Si213  1  0.115896  0.372914  0.492622  1
  Si  Si214  1  0.615875  0.373016  0.655631  1
  Si  Si215  1  0.883834  0.372928  0.492621  1
  Si  Si216  1  0.383811  0.373017  0.655632  1
  Si  Si217  1  0.883811  0.627313  0.673098  1
  Si  Si218  1  0.383834  0.627213  0.510089  1
  Si  Si219  1  0.826835  0.350235  0.635697  1
  Si  Si220  1  0.326853  0.350145  0.472686  1
  Si  Si221  1  0.826856  0.650006  0.530023  1
  Si  Si222  1  0.326832  0.650086  0.693035  1
  Si  Si223  1  0.172873  0.649992  0.530023  1
  Si  Si224  1  0.672856  0.650086  0.693033  1
  Si  Si225  1  0.172851  0.350238  0.635698  1
  Si  Si226  1  0.672878  0.350155  0.472686  1
  Si  Si227  1  0.117454  0.536135  0.607393  1
  Si  Si228  1  0.617473  0.536078  0.444384  1
  Si  Si229  1  0.117468  0.464093  0.558328  1
  Si  Si230  1  0.617459  0.464164  0.721335  1
  Si  Si231  1  0.882247  0.464104  0.558327  1
  Si  Si232  1  0.382239  0.464163  0.721336  1
  Si  Si233  1  0.882234  0.536135  0.607392  1
  Si  Si234  1  0.382252  0.536069  0.444385  1
  Si  Si235  1  0.804061  0.798102  0.644232  1
  Si  Si236  1  0.304087  0.798029  0.481227  1
  Si  Si237  1  0.804081  0.202137  0.521487  1
  Si  Si238  1  0.304067  0.202204  0.684494  1
  Si  Si239  1  0.195644  0.202127  0.521488  1
  Si  Si240  1  0.695620  0.202200  0.684493  1
  Si  Si241  1  0.195623  0.798105  0.644233  1
  Si  Si242  1  0.695641  0.798039  0.481225  1
  H  H243  1  0.642655  0.500121  0.080147  1
  H  H244  1  0.357056  0.500117  0.080148  1
  H  H245  1  0.642655  0.500121  0.759558  1
  H  H246  1  0.357056  0.500117  0.759559  1
