# generated using pymatgen
data_Si12H2O25
_symmetry_space_group_name_H-M   'P 1'
_cell_length_a   8.96222512
_cell_length_b   15.01261002
_cell_length_c   41.01898076
_cell_angle_alpha   90.00000000
_cell_angle_beta   90.00000000
_cell_angle_gamma   90.00000000
_symmetry_Int_Tables_number   1
_chemical_formula_structural   Si12H2O25
_chemical_formula_sum   'Si48 H8 O100'
_cell_volume   5518.95580938
_cell_formula_units_Z   4
loop_
 _symmetry_equiv_pos_site_id
 _symmetry_equiv_pos_as_xyz
  1  'x, y, z'
loop_
 _atom_site_type_symbol
 _atom_site_label
 _atom_site_symmetry_multiplicity
 _atom_site_fract_x
 _atom_site_fract_y
 _atom_site_fract_z
 _atom_site_occupancy
  O  O1  1  0.749834  0.115193  0.495228  1
  O  O2  1  0.249851  0.615191  0.495243  1
  O  O3  1  0.249885  0.115198  0.260982  1
  O  O4  1  0.749879  0.615200  0.260965  1
  O  O5  1  0.749873  0.115200  0.260978  1
  O  O6  1  0.249889  0.615197  0.260965  1
  O  O7  1  0.249845  0.115191  0.495235  1
  O  O8  1  0.749838  0.615193  0.495249  1
  O  O9  1  0.696662  0.237657  0.454198  1
  O  O10  1  0.196655  0.737658  0.454218  1
  O  O11  1  0.196715  0.237661  0.219951  1
  O  O12  1  0.696725  0.737663  0.219932  1
  O  O13  1  0.696723  0.237667  0.302012  1
  O  O14  1  0.196717  0.737663  0.301995  1
  O  O15  1  0.196654  0.237657  0.536261  1
  O  O16  1  0.696662  0.737663  0.536277  1
  O  O17  1  0.302998  0.237658  0.454202  1
  O  O18  1  0.803004  0.737655  0.454219  1
  O  O19  1  0.803064  0.237666  0.219952  1
  O  O20  1  0.303060  0.737665  0.219936  1
  O  O21  1  0.303059  0.237667  0.302010  1
  O  O22  1  0.803067  0.737669  0.301990  1
  O  O23  1  0.803004  0.237661  0.536257  1
  O  O24  1  0.302999  0.737657  0.536276  1
  O  O25  1  0.796296  0.909781  0.433972  1
  O  O26  1  0.296311  0.409797  0.433961  1
  O  O27  1  0.296365  0.909802  0.199699  1
  O  O28  1  0.796354  0.409790  0.199711  1
  O  O29  1  0.796354  0.909794  0.322232  1
  O  O30  1  0.296363  0.409804  0.322246  1
  O  O31  1  0.296305  0.909796  0.556518  1
  O  O32  1  0.796299  0.409788  0.556502  1
  O  O33  1  0.203365  0.909784  0.433976  1
  O  O34  1  0.703355  0.409796  0.433961  1
  O  O35  1  0.703409  0.909806  0.199691  1
  O  O36  1  0.203423  0.409790  0.199706  1
  O  O37  1  0.203425  0.909792  0.322239  1
  O  O38  1  0.703410  0.409809  0.322252  1
  O  O39  1  0.703351  0.909803  0.556513  1
  O  O40  1  0.203370  0.409783  0.556503  1
  O  O41  1  0.758559  0.576907  0.433715  1
  O  O42  1  0.258546  0.076900  0.433702  1
  O  O43  1  0.258605  0.576908  0.199431  1
  O  O44  1  0.758609  0.076920  0.199442  1
  O  O45  1  0.758606  0.576924  0.322501  1
  O  O46  1  0.258607  0.076911  0.322515  1
  O  O47  1  0.258555  0.576899  0.556776  1
  O  O48  1  0.758548  0.076915  0.556762  1
  O  O49  1  0.241104  0.576910  0.433708  1
  O  O50  1  0.741106  0.076897  0.433695  1
  O  O51  1  0.741163  0.576904  0.199433  1
  O  O52  1  0.241152  0.076912  0.199447  1
  O  O53  1  0.241151  0.576915  0.322500  1
  O  O54  1  0.741167  0.076908  0.322510  1
  O  O55  1  0.741117  0.576905  0.556782  1
  O  O56  1  0.241094  0.076908  0.556770  1
  O  O57  1  0.749818  0.862861  0.495244  1
  O  O58  1  0.249835  0.362859  0.495231  1
  O  O59  1  0.249915  0.862865  0.260969  1
  O  O60  1  0.749905  0.362868  0.260984  1
  O  O61  1  0.749913  0.862868  0.260959  1
  O  O62  1  0.249908  0.362865  0.260977  1
  O  O63  1  0.249820  0.862859  0.495248  1
  O  O64  1  0.749832  0.362861  0.495229  1
  O  O65  1  -0.000000  0.847840  0.469109  1
  O  O66  1  0.499832  0.347833  0.469093  1
  O  O67  1  0.499904  0.847840  0.234826  1
  O  O68  1  0.000000  0.347847  0.234842  1
  O  O69  1  -0.000000  0.847850  0.287101  1
  O  O70  1  0.499900  0.347843  0.287118  1
  O  O71  1  0.499823  0.847836  0.521384  1
  O  O72  1  -0.000000  0.347843  0.521368  1
  O  O73  1  0.792299  0.994952  0.378102  1
  O  O74  1  0.292291  0.495021  0.378104  1
  O  O75  1  0.292286  0.995021  0.143842  1
  O  O76  1  0.792303  0.494951  0.143841  1
  O  O77  1  0.207420  0.994961  0.378108  1
  O  O78  1  0.707428  0.495035  0.378107  1
  O  O79  1  0.707423  0.995034  0.143836  1
  O  O80  1  0.207423  0.494962  0.143837  1
  O  O81  1  -0.000000  0.617936  0.464589  1
  O  O82  1  0.499833  0.117938  0.464569  1
  O  O83  1  0.499886  0.617945  0.230304  1
  O  O84  1  0.000000  0.117943  0.230322  1
  O  O85  1  -0.000000  0.617945  0.291623  1
  O  O86  1  0.499884  0.117947  0.291641  1
  O  O87  1  0.499839  0.617940  0.525908  1
  O  O88  1  -0.000000  0.117938  0.525889  1
  O  O89  1  -0.000000  0.018271  0.418969  1
  O  O90  1  0.499837  0.518308  0.418971  1
  O  O91  1  0.499877  0.018315  0.184704  1
  O  O92  1  -0.000000  0.518278  0.184703  1
  O  O93  1  -0.000000  0.018279  0.337241  1
  O  O94  1  0.499877  0.518317  0.337240  1
  O  O95  1  0.499828  0.018310  0.571506  1
  O  O96  1  0.000000  0.518272  0.571507  1
  O  O97  1  0.292286  0.995021  0.612375  1
  O  O98  1  0.792303  0.494951  0.612374  1
  O  O99  1  0.707423  0.995034  0.612368  1
  O  O100  1  0.207423  0.494962  0.612370  1
  Si  Si101  1  0.827274  0.635257  0.461575  1
  Si  Si102  1  0.327269  0.135258  0.461559  1
  Si  Si103  1  0.327322  0.635264  0.227289  1
  Si  Si104  1  0.827319  0.135264  0.227304  1
  Si  Si105  1  0.827321  0.635267  0.294639  1
  Si  Si106  1  0.327321  0.135266  0.294656  1
  Si  Si107  1  0.327275  0.635259  0.528919  1
  Si  Si108  1  0.827267  0.135261  0.528902  1
  Si  Si109  1  0.172399  0.635256  0.461570  1
  Si  Si110  1  0.672395  0.135257  0.461553  1
  Si  Si111  1  0.672449  0.635265  0.227290  1
  Si  Si112  1  0.172445  0.135263  0.227307  1
  Si  Si113  1  0.172446  0.635265  0.294639  1
  Si  Si114  1  0.672448  0.135268  0.294654  1
  Si  Si115  1  0.672401  0.635262  0.528924  1
  Si  Si116  1  0.172393  0.135257  0.528908  1
  Si  Si117  1  0.671163  0.339791  0.461904  1
  Si  Si118  1  0.171155  0.839791  0.461923  1
  Si  Si119  1  0.171228  0.339798  0.227653  1
  Si  Si120  1  0.671232  0.839800  0.227635  1
  Si  Si121  1  0.671228  0.339803  0.294308  1
  Si  Si122  1  0.171232  0.839800  0.294292  1
  Si  Si123  1  0.171162  0.339791  0.528555  1
  Si  Si124  1  0.671155  0.839796  0.528570  1
  Si  Si125  1  0.328501  0.339793  0.461905  1
  Si  Si126  1  0.828494  0.839791  0.461920  1
  Si  Si127  1  0.828567  0.339799  0.227658  1
  Si  Si128  1  0.328570  0.839798  0.227642  1
  Si  Si129  1  0.328567  0.339800  0.294303  1
  Si  Si130  1  0.828571  0.839802  0.294285  1
  Si  Si131  1  0.828501  0.339796  0.528555  1
  Si  Si132  1  0.328494  0.839793  0.528573  1
  Si  Si133  1  0.827449  0.000000  0.415650  1
  Si  Si134  1  0.327453  0.500723  0.415652  1
  Si  Si135  1  0.327492  0.000000  0.181389  1
  Si  Si136  1  0.827496  0.500693  0.181387  1
  Si  Si137  1  0.827497  0.000000  0.340556  1
  Si  Si138  1  0.327493  0.500728  0.340557  1
  Si  Si139  1  0.327445  0.000000  0.574826  1
  Si  Si140  1  0.827455  0.500690  0.574825  1
  Si  Si141  1  0.172220  0.000000  0.415655  1
  Si  Si142  1  0.672223  0.500726  0.415654  1
  Si  Si143  1  0.672262  -0.000000  0.181385  1
  Si  Si144  1  0.172268  0.500697  0.181385  1
  Si  Si145  1  0.172268  -0.000000  0.340560  1
  Si  Si146  1  0.672263  0.500737  0.340559  1
  Si  Si147  1  0.672215  -0.000000  0.574822  1
  Si  Si148  1  0.172227  0.500690  0.574823  1
  H  H149  1  0.292286  0.995021  0.121901  1
  H  H150  1  0.792303  0.494951  0.121900  1
  H  H151  1  0.707423  0.995034  0.121895  1
  H  H152  1  0.207423  0.494962  0.121896  1
  H  H153  1  0.292286  0.995021  0.634316  1
  H  H154  1  0.792303  0.494951  0.634315  1
  H  H155  1  0.707423  0.995034  0.634310  1
  H  H156  1  0.207423  0.494962  0.634311  1
