# generated using pymatgen
data_Si10H2O21
_symmetry_space_group_name_H-M   'P 1'
_cell_length_a   8.52920369
_cell_length_b   27.82197427
_cell_length_c   41.21613845
_cell_angle_alpha   90.00000000
_cell_angle_beta   90.00000000
_cell_angle_gamma   90.00000000
_symmetry_Int_Tables_number   1
_chemical_formula_structural   Si10H2O21
_chemical_formula_sum   'Si80 H16 O168'
_cell_volume   9780.56020894
_cell_formula_units_Z   8
loop_
 _symmetry_equiv_pos_site_id
 _symmetry_equiv_pos_as_xyz
  1  'x, y, z'
loop_
 _atom_site_type_symbol
 _atom_site_label
 _atom_site_symmetry_multiplicity
 _atom_site_fract_x
 _atom_site_fract_y
 _atom_site_fract_z
 _atom_site_occupancy
  O  O1  1  0.327100  0.533523  0.145404  1
  O  O2  1  0.176353  0.966255  0.145829  1
  O  O3  1  0.321478  0.624489  0.161949  1
  O  O4  1  0.176340  0.875067  0.162446  1
  O  O5  1  0.166191  0.785574  0.143227  1
  O  O6  1  0.332799  0.713893  0.143148  1
  O  O7  1  0.832377  0.033774  0.198926  1
  O  O8  1  0.131390  0.033798  0.311148  1
  O  O9  1  0.672397  0.033212  0.249163  1
  O  O10  1  0.373473  0.033149  0.344356  1
  O  O11  1  0.327100  0.533523  0.352775  1
  O  O12  1  0.626301  0.534527  0.240015  1
  O  O13  1  0.177722  0.534600  0.301601  1
  O  O14  1  0.871775  0.534390  0.207970  1
  O  O15  1  0.176353  0.966255  0.353200  1
  O  O16  1  0.875137  0.966110  0.239517  1
  O  O17  1  0.326877  0.965683  0.301858  1
  O  O18  1  0.627540  0.965881  0.208303  1
  O  O19  1  0.663818  0.468644  0.197482  1
  O  O20  1  0.372389  0.467428  0.310506  1
  O  O21  1  0.818152  0.466039  0.248317  1
  O  O22  1  0.127252  0.466773  0.342353  1
  O  O23  1  0.645191  0.064601  0.364606  1
  O  O24  1  0.929274  0.065233  0.350229  1
  O  O25  1  0.861393  0.064415  0.291280  1
  O  O26  1  0.578033  0.062832  0.305759  1
  O  O27  1  0.144580  0.564515  0.187468  1
  O  O28  1  0.427861  0.566032  0.201099  1
  O  O29  1  0.359000  0.567237  0.259561  1
  O  O30  1  0.076613  0.565484  0.245911  1
  O  O31  1  0.358640  0.933824  0.187634  1
  O  O32  1  0.076939  0.934585  0.201834  1
  O  O33  1  0.145109  0.933715  0.260259  1
  O  O34  1  0.426882  0.933065  0.246051  1
  O  O35  1  0.854851  0.436315  0.363859  1
  O  O36  1  0.570820  0.435189  0.349739  1
  O  O37  1  0.639906  0.434723  0.291229  1
  O  O38  1  0.922257  0.435945  0.304987  1
  O  O39  1  0.053244  0.124396  0.312204  1
  O  O40  1  0.674643  0.123224  0.266510  1
  O  O41  1  0.455101  0.123477  0.342511  1
  O  O42  1  0.321478  0.624489  0.369320  1
  O  O43  1  0.552865  0.625543  0.238331  1
  O  O44  1  0.176310  0.625373  0.285318  1
  O  O45  1  0.956356  0.624565  0.208210  1
  O  O46  1  0.176340  0.875067  0.369817  1
  O  O47  1  0.955271  0.874817  0.238706  1
  O  O48  1  0.323658  0.874090  0.285555  1
  O  O49  1  0.549243  0.874341  0.208289  1
  O  O50  1  0.445027  0.376280  0.311826  1
  O  O51  1  0.820925  0.375677  0.265870  1
  O  O52  1  0.043579  0.376478  0.342487  1
  O  O53  1  0.835936  0.286197  0.247089  1
  O  O54  1  0.358402  0.286740  0.308683  1
  O  O55  1  0.657620  0.286057  0.199487  1
  O  O56  1  0.129904  0.286302  0.345931  1
  O  O57  1  0.339359  0.784078  0.302775  1
  O  O58  1  0.862690  0.785494  0.240573  1
  O  O59  1  0.166191  0.785574  0.350598  1
  O  O60  1  0.632053  0.784139  0.204655  1
  O  O61  1  0.160263  0.715443  0.302598  1
  O  O62  1  0.632175  0.715471  0.241812  1
  O  O63  1  0.332799  0.713893  0.350519  1
  O  O64  1  0.863232  0.713920  0.206005  1
  O  O65  1  0.666319  0.213924  0.247971  1
  O  O66  1  0.131785  0.215925  0.308780  1
  O  O67  1  0.839936  0.216048  0.199481  1
  O  O68  1  0.366934  0.214583  0.344579  1
  O  O69  1  0.650146  0.184481  0.363986  1
  O  O70  1  0.933079  0.184316  0.349672  1
  O  O71  1  0.852452  0.183719  0.291809  1
  O  O72  1  0.569950  0.184998  0.305770  1
  O  O73  1  0.145978  0.685495  0.186722  1
  O  O74  1  0.427294  0.685281  0.201607  1
  O  O75  1  0.355425  0.685177  0.260097  1
  O  O76  1  0.074526  0.685416  0.244817  1
  O  O77  1  0.353446  0.814380  0.186911  1
  O  O78  1  0.073111  0.814014  0.201852  1
  O  O79  1  0.145422  0.813726  0.260157  1
  O  O80  1  0.427494  0.814008  0.245086  1
  O  O81  1  0.848580  0.316414  0.364361  1
  O  O82  1  0.565943  0.316452  0.349058  1
  O  O83  1  0.640147  0.315260  0.290418  1
  O  O84  1  0.922662  0.314978  0.305929  1
  O  O85  1  0.832377  0.033774  0.406297  1
  O  O86  1  0.131390  0.033798  0.518519  1
  O  O87  1  0.672397  0.033212  0.456534  1
  O  O88  1  0.373473  0.033149  0.551728  1
  O  O89  1  0.327100  0.533523  0.560146  1
  O  O90  1  0.626301  0.534527  0.447387  1
  O  O91  1  0.177722  0.534600  0.508972  1
  O  O92  1  0.871775  0.534390  0.415341  1
  O  O93  1  0.176353  0.966255  0.560571  1
  O  O94  1  0.875137  0.966110  0.446888  1
  O  O95  1  0.326877  0.965683  0.509230  1
  O  O96  1  0.627540  0.965881  0.415674  1
  O  O97  1  0.663818  0.468644  0.404853  1
  O  O98  1  0.372389  0.467428  0.517877  1
  O  O99  1  0.818152  0.466039  0.455688  1
  O  O100  1  0.127252  0.466773  0.549725  1
  O  O101  1  0.645191  0.064601  0.571978  1
  O  O102  1  0.929274  0.065233  0.557600  1
  O  O103  1  0.861393  0.064415  0.498652  1
  O  O104  1  0.578033  0.062832  0.513130  1
  O  O105  1  0.144580  0.564515  0.394839  1
  O  O106  1  0.427861  0.566032  0.408470  1
  O  O107  1  0.359000  0.567237  0.466932  1
  O  O108  1  0.076613  0.565484  0.453282  1
  O  O109  1  0.358640  0.933824  0.395005  1
  O  O110  1  0.076939  0.934585  0.409205  1
  O  O111  1  0.145109  0.933715  0.467630  1
  O  O112  1  0.426882  0.933065  0.453422  1
  O  O113  1  0.854851  0.436315  0.571231  1
  O  O114  1  0.570820  0.435189  0.557110  1
  O  O115  1  0.639906  0.434723  0.498600  1
  O  O116  1  0.922257  0.435945  0.512358  1
  O  O117  1  0.826440  0.124560  0.390295  1
  O  O118  1  0.053244  0.124396  0.519575  1
  O  O119  1  0.674643  0.123224  0.473881  1
  O  O120  1  0.455101  0.123477  0.549882  1
  O  O121  1  0.552865  0.625543  0.445702  1
  O  O122  1  0.176310  0.625373  0.492689  1
  O  O123  1  0.956356  0.624565  0.415581  1
  O  O124  1  0.955271  0.874817  0.446078  1
  O  O125  1  0.323658  0.874090  0.492926  1
  O  O126  1  0.549243  0.874341  0.415660  1
  O  O127  1  0.672375  0.376982  0.389936  1
  O  O128  1  0.445027  0.376280  0.519197  1
  O  O129  1  0.820925  0.375677  0.473241  1
  O  O130  1  0.043579  0.376478  0.549858  1
  O  O131  1  0.835936  0.286197  0.454461  1
  O  O132  1  0.358402  0.286740  0.516055  1
  O  O133  1  0.657620  0.286057  0.406858  1
  O  O134  1  0.129904  0.286302  0.553302  1
  O  O135  1  0.339359  0.784078  0.510147  1
  O  O136  1  0.862690  0.785494  0.447944  1
  O  O137  1  0.166191  0.785574  0.557969  1
  O  O138  1  0.632053  0.784139  0.412026  1
  O  O139  1  0.160263  0.715443  0.509969  1
  O  O140  1  0.632175  0.715471  0.449183  1
  O  O141  1  0.332799  0.713893  0.557890  1
  O  O142  1  0.863232  0.713920  0.413376  1
  O  O143  1  0.666319  0.213924  0.455342  1
  O  O144  1  0.131785  0.215925  0.516151  1
  O  O145  1  0.839936  0.216048  0.406852  1
  O  O146  1  0.366934  0.214583  0.551950  1
  O  O147  1  0.650146  0.184481  0.571357  1
  O  O148  1  0.933079  0.184316  0.557043  1
  O  O149  1  0.852452  0.183719  0.499180  1
  O  O150  1  0.569950  0.184998  0.513141  1
  O  O151  1  0.145978  0.685495  0.394093  1
  O  O152  1  0.427294  0.685281  0.408978  1
  O  O153  1  0.355425  0.685177  0.467468  1
  O  O154  1  0.074526  0.685416  0.452188  1
  O  O155  1  0.353446  0.814380  0.394282  1
  O  O156  1  0.073111  0.814014  0.409223  1
  O  O157  1  0.145422  0.813726  0.467528  1
  O  O158  1  0.427494  0.814008  0.452458  1
  O  O159  1  0.848580  0.316414  0.571732  1
  O  O160  1  0.565943  0.316452  0.556429  1
  O  O161  1  0.640147  0.315260  0.497789  1
  O  O162  1  0.922662  0.314978  0.513300  1
  O  O163  1  0.832377  0.033774  0.613668  1
  O  O164  1  0.663818  0.468644  0.612224  1
  O  O165  1  0.826440  0.124560  0.597666  1
  O  O166  1  0.672375  0.376982  0.597307  1
  O  O167  1  0.657620  0.286057  0.614229  1
  O  O168  1  0.839936  0.216048  0.614223  1
  Si  Si169  1  0.002054  0.071284  0.315386  1
  Si  Si170  1  0.692638  0.069951  0.276390  1
  Si  Si171  1  0.504523  0.070151  0.340386  1
  Si  Si172  1  0.310062  0.571622  0.172603  1
  Si  Si173  1  0.499948  0.572850  0.235710  1
  Si  Si174  1  0.192016  0.572753  0.274415  1
  Si  Si175  1  0.007100  0.571709  0.211390  1
  Si  Si176  1  0.191798  0.927846  0.173248  1
  Si  Si177  1  0.007496  0.927655  0.236271  1
  Si  Si178  1  0.311487  0.926823  0.274665  1
  Si  Si179  1  0.496356  0.926974  0.211505  1
  Si  Si180  1  0.687139  0.429903  0.379005  1
  Si  Si181  1  0.498570  0.429026  0.314904  1
  Si  Si182  1  0.806758  0.428723  0.276425  1
  Si  Si183  1  0.992855  0.429428  0.339487  1
  Si  Si184  1  0.507225  0.176590  0.340314  1
  Si  Si185  1  0.001250  0.177608  0.314158  1
  Si  Si186  1  0.682128  0.176346  0.277349  1
  Si  Si187  1  0.004758  0.677829  0.210006  1
  Si  Si188  1  0.313371  0.677611  0.172327  1
  Si  Si189  1  0.499131  0.678325  0.236557  1
  Si  Si190  1  0.185743  0.678631  0.274826  1
  Si  Si191  1  0.498171  0.821062  0.209982  1
  Si  Si192  1  0.185096  0.821747  0.172508  1
  Si  Si193  1  0.004183  0.821564  0.236601  1
  Si  Si194  1  0.314352  0.820858  0.274927  1
  Si  Si195  1  0.993722  0.323046  0.341053  1
  Si  Si196  1  0.678722  0.323754  0.379150  1
  Si  Si197  1  0.495040  0.323000  0.313725  1
  Si  Si198  1  0.810823  0.322003  0.275813  1
  Si  Si199  1  0.751510  0.001127  0.223786  1
  Si  Si200  1  0.252161  0.001014  0.327489  1
  Si  Si201  1  0.252648  0.500161  0.326854  1
  Si  Si202  1  0.741920  0.501003  0.222793  1
  Si  Si203  1  0.750137  0.251356  0.222706  1
  Si  Si204  1  0.243794  0.251900  0.326950  1
  Si  Si205  1  0.249370  0.749719  0.325875  1
  Si  Si206  1  0.743725  0.749731  0.223203  1
  Si  Si207  1  0.813430  0.071430  0.379564  1
  Si  Si208  1  0.002054  0.071284  0.522757  1
  Si  Si209  1  0.692638  0.069951  0.483761  1
  Si  Si210  1  0.504523  0.070151  0.547757  1
  Si  Si211  1  0.310062  0.571622  0.379974  1
  Si  Si212  1  0.499948  0.572850  0.443081  1
  Si  Si213  1  0.192016  0.572753  0.481786  1
  Si  Si214  1  0.007100  0.571709  0.418761  1
  Si  Si215  1  0.191798  0.927846  0.380619  1
  Si  Si216  1  0.007496  0.927655  0.443642  1
  Si  Si217  1  0.311487  0.926823  0.482036  1
  Si  Si218  1  0.496356  0.926974  0.418876  1
  Si  Si219  1  0.687139  0.429903  0.586376  1
  Si  Si220  1  0.498570  0.429026  0.522275  1
  Si  Si221  1  0.806758  0.428723  0.483796  1
  Si  Si222  1  0.992855  0.429428  0.546858  1
  Si  Si223  1  0.507225  0.176590  0.547685  1
  Si  Si224  1  0.818819  0.177843  0.379553  1
  Si  Si225  1  0.001250  0.177608  0.521529  1
  Si  Si226  1  0.682128  0.176346  0.484720  1
  Si  Si227  1  0.004758  0.677829  0.417377  1
  Si  Si228  1  0.313371  0.677611  0.379699  1
  Si  Si229  1  0.499131  0.678325  0.443928  1
  Si  Si230  1  0.185743  0.678631  0.482197  1
  Si  Si231  1  0.498171  0.821062  0.417353  1
  Si  Si232  1  0.185096  0.821747  0.379880  1
  Si  Si233  1  0.004183  0.821564  0.443973  1
  Si  Si234  1  0.314352  0.820858  0.482298  1
  Si  Si235  1  0.993722  0.323046  0.548425  1
  Si  Si236  1  0.678722  0.323754  0.586521  1
  Si  Si237  1  0.495040  0.323000  0.521096  1
  Si  Si238  1  0.810823  0.322003  0.483184  1
  Si  Si239  1  0.751510  0.001127  0.431157  1
  Si  Si240  1  0.252161  0.001014  0.534860  1
  Si  Si241  1  0.252648  0.500161  0.534225  1
  Si  Si242  1  0.741920  0.501003  0.430164  1
  Si  Si243  1  0.750137  0.251356  0.430077  1
  Si  Si244  1  0.243794  0.251900  0.534321  1
  Si  Si245  1  0.249370  0.749719  0.533246  1
  Si  Si246  1  0.743725  0.749731  0.430574  1
  Si  Si247  1  0.813430  0.071430  0.586935  1
  Si  Si248  1  0.818819  0.177843  0.586924  1
  H  H249  1  0.327100  0.533523  0.123568  1
  H  H250  1  0.176353  0.966255  0.123993  1
  H  H251  1  0.166191  0.785574  0.121391  1
  H  H252  1  0.332799  0.713893  0.121312  1
  H  H253  1  0.832377  0.033774  0.177090  1
  H  H254  1  0.663818  0.468644  0.175646  1
  H  H255  1  0.657620  0.286057  0.177650  1
  H  H256  1  0.839936  0.216048  0.177645  1
  H  H257  1  0.327100  0.533523  0.581982  1
  H  H258  1  0.176353  0.966255  0.582407  1
  H  H259  1  0.166191  0.785574  0.579806  1
  H  H260  1  0.332799  0.713893  0.579726  1
  H  H261  1  0.832377  0.033774  0.635504  1
  H  H262  1  0.663818  0.468644  0.634060  1
  H  H263  1  0.657620  0.286057  0.636065  1
  H  H264  1  0.839936  0.216048  0.636059  1
