# generated using pymatgen
data_Si15H2O31
_symmetry_space_group_name_H-M   'P 1'
_cell_length_a   8.52920369
_cell_length_b   27.82197427
_cell_length_c   51.28221378
_cell_angle_alpha   90.00000000
_cell_angle_beta   90.00000000
_cell_angle_gamma   90.00000000
_symmetry_Int_Tables_number   1
_chemical_formula_structural   Si15H2O31
_chemical_formula_sum   'Si120 H16 O248'
_cell_volume   12169.2326943
_cell_formula_units_Z   8
loop_
 _symmetry_equiv_pos_site_id
 _symmetry_equiv_pos_as_xyz
  1  'x, y, z'
loop_
 _atom_site_type_symbol
 _atom_site_label
 _atom_site_symmetry_multiplicity
 _atom_site_fract_x
 _atom_site_fract_y
 _atom_site_fract_z
 _atom_site_occupancy
  Si  Si1  1  0.002054  0.071284  0.282079  1
  Si  Si2  1  0.692638  0.069951  0.250738  1
  Si  Si3  1  0.504523  0.070151  0.302173  1
  Si  Si4  1  0.310062  0.571622  0.167323  1
  Si  Si5  1  0.499948  0.572850  0.218044  1
  Si  Si6  1  0.192016  0.572753  0.249151  1
  Si  Si7  1  0.007100  0.571709  0.198497  1
  Si  Si8  1  0.191798  0.927846  0.167842  1
  Si  Si9  1  0.007496  0.927655  0.218494  1
  Si  Si10  1  0.311487  0.926823  0.249352  1
  Si  Si11  1  0.496356  0.926974  0.198590  1
  Si  Si12  1  0.687139  0.429903  0.333211  1
  Si  Si13  1  0.498570  0.429026  0.281692  1
  Si  Si14  1  0.806758  0.428723  0.250766  1
  Si  Si15  1  0.992855  0.429428  0.301450  1
  Si  Si16  1  0.507225  0.176590  0.302115  1
  Si  Si17  1  0.001250  0.177608  0.281093  1
  Si  Si18  1  0.682128  0.176346  0.251509  1
  Si  Si19  1  0.004758  0.677829  0.197384  1
  Si  Si20  1  0.313371  0.677611  0.167102  1
  Si  Si21  1  0.499131  0.678325  0.218724  1
  Si  Si22  1  0.185743  0.678631  0.249481  1
  Si  Si23  1  0.498171  0.821062  0.197365  1
  Si  Si24  1  0.185096  0.821747  0.167247  1
  Si  Si25  1  0.004183  0.821564  0.218760  1
  Si  Si26  1  0.314352  0.820858  0.249562  1
  Si  Si27  1  0.993722  0.323046  0.302709  1
  Si  Si28  1  0.678722  0.323754  0.333328  1
  Si  Si29  1  0.495040  0.323000  0.280745  1
  Si  Si30  1  0.810823  0.322003  0.250275  1
  Si  Si31  1  0.751510  0.001127  0.208460  1
  Si  Si32  1  0.252161  0.001014  0.291807  1
  Si  Si33  1  0.252648  0.500161  0.291297  1
  Si  Si34  1  0.741920  0.501003  0.207662  1
  Si  Si35  1  0.750137  0.251356  0.207591  1
  Si  Si36  1  0.243794  0.251900  0.291374  1
  Si  Si37  1  0.249370  0.749719  0.290509  1
  Si  Si38  1  0.743725  0.749731  0.207991  1
  Si  Si39  1  0.813430  0.071430  0.333661  1
  Si  Si40  1  0.002054  0.071284  0.448746  1
  Si  Si41  1  0.692638  0.069951  0.417405  1
  Si  Si42  1  0.504523  0.070151  0.468840  1
  Si  Si43  1  0.310062  0.571622  0.333990  1
  Si  Si44  1  0.499948  0.572850  0.384710  1
  Si  Si45  1  0.192016  0.572753  0.415818  1
  Si  Si46  1  0.007100  0.571709  0.365163  1
  Si  Si47  1  0.191798  0.927846  0.334508  1
  Si  Si48  1  0.007496  0.927655  0.385160  1
  Si  Si49  1  0.311487  0.926823  0.416019  1
  Si  Si50  1  0.496356  0.926974  0.365256  1
  Si  Si51  1  0.687139  0.429903  0.499878  1
  Si  Si52  1  0.498570  0.429026  0.448358  1
  Si  Si53  1  0.806758  0.428723  0.417433  1
  Si  Si54  1  0.992855  0.429428  0.468116  1
  Si  Si55  1  0.507225  0.176590  0.468781  1
  Si  Si56  1  0.818819  0.177843  0.333651  1
  Si  Si57  1  0.001250  0.177608  0.447759  1
  Si  Si58  1  0.682128  0.176346  0.418175  1
  Si  Si59  1  0.004758  0.677829  0.364052  1
  Si  Si60  1  0.313371  0.677611  0.333769  1
  Si  Si61  1  0.499131  0.678325  0.385391  1
  Si  Si62  1  0.185743  0.678631  0.416148  1
  Si  Si63  1  0.498171  0.821062  0.364032  1
  Si  Si64  1  0.185096  0.821747  0.333914  1
  Si  Si65  1  0.004183  0.821564  0.385427  1
  Si  Si66  1  0.314352  0.820858  0.416229  1
  Si  Si67  1  0.993722  0.323046  0.469376  1
  Si  Si68  1  0.678722  0.323754  0.499994  1
  Si  Si69  1  0.495040  0.323000  0.447412  1
  Si  Si70  1  0.810823  0.322003  0.416942  1
  Si  Si71  1  0.751510  0.001127  0.375127  1
  Si  Si72  1  0.252161  0.001014  0.458474  1
  Si  Si73  1  0.252648  0.500161  0.457964  1
  Si  Si74  1  0.741920  0.501003  0.374328  1
  Si  Si75  1  0.750137  0.251356  0.374258  1
  Si  Si76  1  0.243794  0.251900  0.458041  1
  Si  Si77  1  0.249370  0.749719  0.457176  1
  Si  Si78  1  0.743725  0.749731  0.374658  1
  O  O79  1  0.327100  0.533523  0.145463  1
  O  O80  1  0.176353  0.966255  0.145805  1
  O  O81  1  0.321478  0.624489  0.158761  1
  O  O82  1  0.176340  0.875067  0.159160  1
  O  O83  1  0.166191  0.785574  0.143713  1
  O  O84  1  0.332799  0.713893  0.143650  1
  O  O85  1  0.832377  0.033774  0.188479  1
  O  O86  1  0.131390  0.033798  0.278674  1
  O  O87  1  0.672397  0.033212  0.228856  1
  O  O88  1  0.373473  0.033149  0.305364  1
  O  O89  1  0.327100  0.533523  0.312130  1
  O  O90  1  0.626301  0.534527  0.221503  1
  O  O91  1  0.177722  0.534600  0.271000  1
  O  O92  1  0.871775  0.534390  0.195748  1
  O  O93  1  0.176353  0.966255  0.312471  1
  O  O94  1  0.875137  0.966110  0.221103  1
  O  O95  1  0.326877  0.965683  0.271207  1
  O  O96  1  0.627540  0.965881  0.196016  1
  O  O97  1  0.663818  0.468644  0.187319  1
  O  O98  1  0.372389  0.467428  0.278158  1
  O  O99  1  0.818152  0.466039  0.228175  1
  O  O100  1  0.127252  0.466773  0.303754  1
  O  O101  1  0.645191  0.064601  0.321639  1
  O  O102  1  0.929274  0.065233  0.310084  1
  O  O103  1  0.861393  0.064415  0.262706  1
  O  O104  1  0.578033  0.062832  0.274342  1
  O  O105  1  0.144580  0.564515  0.179270  1
  O  O106  1  0.427861  0.566032  0.190226  1
  O  O107  1  0.359000  0.567237  0.237212  1
  O  O108  1  0.076613  0.565484  0.226242  1
  O  O109  1  0.358640  0.933824  0.179403  1
  O  O110  1  0.076939  0.934585  0.190816  1
  O  O111  1  0.145109  0.933715  0.237774  1
  O  O112  1  0.426882  0.933065  0.226354  1
  O  O113  1  0.854851  0.436315  0.321038  1
  O  O114  1  0.570820  0.435189  0.309690  1
  O  O115  1  0.639906  0.434723  0.262664  1
  O  O116  1  0.922257  0.435945  0.273722  1
  O  O117  1  0.053244  0.124396  0.279523  1
  O  O118  1  0.674643  0.123224  0.242797  1
  O  O119  1  0.455101  0.123477  0.303880  1
  O  O120  1  0.321478  0.624489  0.325427  1
  O  O121  1  0.552865  0.625543  0.220150  1
  O  O122  1  0.176310  0.625373  0.257914  1
  O  O123  1  0.956356  0.624565  0.195941  1
  O  O124  1  0.176340  0.875067  0.325827  1
  O  O125  1  0.955271  0.874817  0.220451  1
  O  O126  1  0.323658  0.874090  0.258104  1
  O  O127  1  0.549243  0.874341  0.196004  1
  O  O128  1  0.445027  0.376280  0.279218  1
  O  O129  1  0.820925  0.375677  0.242283  1
  O  O130  1  0.043579  0.376478  0.303861  1
  O  O131  1  0.835936  0.286197  0.227189  1
  O  O132  1  0.358402  0.286740  0.276693  1
  O  O133  1  0.657620  0.286057  0.188930  1
  O  O134  1  0.129904  0.286302  0.306629  1
  O  O135  1  0.339359  0.784078  0.271944  1
  O  O136  1  0.862690  0.785494  0.221951  1
  O  O137  1  0.166191  0.785574  0.310381  1
  O  O138  1  0.632053  0.784139  0.193084  1
  O  O139  1  0.160263  0.715443  0.271802  1
  O  O140  1  0.632175  0.715471  0.222948  1
  O  O141  1  0.332799  0.713893  0.310316  1
  O  O142  1  0.863232  0.713920  0.194169  1
  O  O143  1  0.666319  0.213924  0.227898  1
  O  O144  1  0.131785  0.215925  0.276770  1
  O  O145  1  0.839936  0.216048  0.188925  1
  O  O146  1  0.366934  0.214583  0.305542  1
  O  O147  1  0.650146  0.184481  0.321140  1
  O  O148  1  0.933079  0.184316  0.309636  1
  O  O149  1  0.852452  0.183719  0.263131  1
  O  O150  1  0.569950  0.184998  0.274351  1
  O  O151  1  0.145978  0.685495  0.178671  1
  O  O152  1  0.427294  0.685281  0.190635  1
  O  O153  1  0.355425  0.685177  0.237643  1
  O  O154  1  0.074526  0.685416  0.225363  1
  O  O155  1  0.353446  0.814380  0.178823  1
  O  O156  1  0.073111  0.814014  0.190831  1
  O  O157  1  0.145422  0.813726  0.237692  1
  O  O158  1  0.427494  0.814008  0.225579  1
  O  O159  1  0.848580  0.316414  0.321441  1
  O  O160  1  0.565943  0.316452  0.309142  1
  O  O161  1  0.640147  0.315260  0.262013  1
  O  O162  1  0.922662  0.314978  0.274479  1
  O  O163  1  0.832377  0.033774  0.355146  1
  O  O164  1  0.131390  0.033798  0.445340  1
  O  O165  1  0.672397  0.033212  0.395522  1
  O  O166  1  0.373473  0.033149  0.472031  1
  O  O167  1  0.327100  0.533523  0.478797  1
  O  O168  1  0.626301  0.534527  0.388170  1
  O  O169  1  0.177722  0.534600  0.437667  1
  O  O170  1  0.871775  0.534390  0.362414  1
  O  O171  1  0.176353  0.966255  0.479138  1
  O  O172  1  0.875137  0.966110  0.387769  1
  O  O173  1  0.326877  0.965683  0.437874  1
  O  O174  1  0.627540  0.965881  0.362683  1
  O  O175  1  0.663818  0.468644  0.353986  1
  O  O176  1  0.372389  0.467428  0.444825  1
  O  O177  1  0.818152  0.466039  0.394842  1
  O  O178  1  0.127252  0.466773  0.470421  1
  O  O179  1  0.645191  0.064601  0.488306  1
  O  O180  1  0.929274  0.065233  0.476750  1
  O  O181  1  0.861393  0.064415  0.429372  1
  O  O182  1  0.578033  0.062832  0.441009  1
  O  O183  1  0.144580  0.564515  0.345937  1
  O  O184  1  0.427861  0.566032  0.356893  1
  O  O185  1  0.359000  0.567237  0.403879  1
  O  O186  1  0.076613  0.565484  0.392909  1
  O  O187  1  0.358640  0.933824  0.346071  1
  O  O188  1  0.076939  0.934585  0.357483  1
  O  O189  1  0.145109  0.933715  0.404440  1
  O  O190  1  0.426882  0.933065  0.393021  1
  O  O191  1  0.854851  0.436315  0.487705  1
  O  O192  1  0.570820  0.435189  0.476356  1
  O  O193  1  0.639906  0.434723  0.429331  1
  O  O194  1  0.922257  0.435945  0.440389  1
  O  O195  1  0.826440  0.124560  0.342285  1
  O  O196  1  0.053244  0.124396  0.446190  1
  O  O197  1  0.674643  0.123224  0.409464  1
  O  O198  1  0.455101  0.123477  0.470547  1
  O  O199  1  0.321478  0.624489  0.492094  1
  O  O200  1  0.552865  0.625543  0.386817  1
  O  O201  1  0.176310  0.625373  0.424581  1
  O  O202  1  0.956356  0.624565  0.362608  1
  O  O203  1  0.176340  0.875067  0.492493  1
  O  O204  1  0.955271  0.874817  0.387118  1
  O  O205  1  0.323658  0.874090  0.424770  1
  O  O206  1  0.549243  0.874341  0.362671  1
  O  O207  1  0.672375  0.376982  0.341996  1
  O  O208  1  0.445027  0.376280  0.445885  1
  O  O209  1  0.820925  0.375677  0.408950  1
  O  O210  1  0.043579  0.376478  0.470527  1
  O  O211  1  0.835936  0.286197  0.393856  1
  O  O212  1  0.358402  0.286740  0.443359  1
  O  O213  1  0.657620  0.286057  0.355596  1
  O  O214  1  0.129904  0.286302  0.473296  1
  O  O215  1  0.339359  0.784078  0.438611  1
  O  O216  1  0.862690  0.785494  0.388618  1
  O  O217  1  0.166191  0.785574  0.477047  1
  O  O218  1  0.632053  0.784139  0.359750  1
  O  O219  1  0.160263  0.715443  0.438469  1
  O  O220  1  0.632175  0.715471  0.389614  1
  O  O221  1  0.332799  0.713893  0.476983  1
  O  O222  1  0.863232  0.713920  0.360836  1
  O  O223  1  0.666319  0.213924  0.394564  1
  O  O224  1  0.131785  0.215925  0.443437  1
  O  O225  1  0.839936  0.216048  0.355592  1
  O  O226  1  0.366934  0.214583  0.472210  1
  O  O227  1  0.650146  0.184481  0.487807  1
  O  O228  1  0.933079  0.184316  0.476302  1
  O  O229  1  0.852452  0.183719  0.429797  1
  O  O230  1  0.569950  0.184998  0.441018  1
  O  O231  1  0.145978  0.685495  0.345338  1
  O  O232  1  0.427294  0.685281  0.357301  1
  O  O233  1  0.355425  0.685177  0.404310  1
  O  O234  1  0.074526  0.685416  0.392030  1
  O  O235  1  0.353446  0.814380  0.345490  1
  O  O236  1  0.073111  0.814014  0.357498  1
  O  O237  1  0.145422  0.813726  0.404358  1
  O  O238  1  0.427494  0.814008  0.392246  1
  O  O239  1  0.848580  0.316414  0.488108  1
  O  O240  1  0.565943  0.316452  0.475809  1
  O  O241  1  0.640147  0.315260  0.428679  1
  O  O242  1  0.922662  0.314978  0.441146  1
  H  H243  1  0.327100  0.533523  0.127913  1
  H  H244  1  0.176353  0.966255  0.128254  1
  H  H245  1  0.166191  0.785574  0.126164  1
  H  H246  1  0.332799  0.713893  0.126100  1
  H  H247  1  0.832377  0.033774  0.170929  1
  H  H248  1  0.663818  0.468644  0.169769  1
  H  H249  1  0.657620  0.286057  0.171380  1
  H  H250  1  0.839936  0.216048  0.171375  1
  Si  Si251  1  0.813430  0.071430  0.500327  1
  Si  Si252  1  0.002054  0.071284  0.615413  1
  Si  Si253  1  0.692638  0.069951  0.584072  1
  Si  Si254  1  0.504523  0.070151  0.635506  1
  Si  Si255  1  0.310062  0.571622  0.500656  1
  Si  Si256  1  0.499948  0.572850  0.551377  1
  Si  Si257  1  0.192016  0.572753  0.582484  1
  Si  Si258  1  0.007100  0.571709  0.531830  1
  Si  Si259  1  0.191798  0.927846  0.501175  1
  Si  Si260  1  0.007496  0.927655  0.551827  1
  Si  Si261  1  0.311487  0.926823  0.582685  1
  Si  Si262  1  0.496356  0.926974  0.531922  1
  Si  Si263  1  0.687139  0.429903  0.666544  1
  Si  Si264  1  0.498570  0.429026  0.615026  1
  Si  Si265  1  0.806758  0.428723  0.584099  1
  Si  Si266  1  0.992855  0.429428  0.634783  1
  Si  Si267  1  0.507225  0.176590  0.635447  1
  Si  Si268  1  0.818819  0.177843  0.500318  1
  Si  Si269  1  0.001250  0.177608  0.614426  1
  Si  Si270  1  0.682128  0.176346  0.584842  1
  Si  Si271  1  0.004758  0.677829  0.530718  1
  Si  Si272  1  0.313371  0.677611  0.500435  1
  Si  Si273  1  0.499131  0.678325  0.552057  1
  Si  Si274  1  0.185743  0.678631  0.582815  1
  Si  Si275  1  0.498171  0.821062  0.530699  1
  Si  Si276  1  0.185096  0.821747  0.500580  1
  Si  Si277  1  0.004183  0.821564  0.552093  1
  Si  Si278  1  0.314352  0.820858  0.582896  1
  Si  Si279  1  0.993722  0.323046  0.636043  1
  Si  Si280  1  0.678722  0.323754  0.666661  1
  Si  Si281  1  0.495040  0.323000  0.614078  1
  Si  Si282  1  0.810823  0.322003  0.583608  1
  Si  Si283  1  0.751510  0.001127  0.541793  1
  Si  Si284  1  0.252161  0.001014  0.625140  1
  Si  Si285  1  0.252648  0.500161  0.624630  1
  Si  Si286  1  0.741920  0.501003  0.540995  1
  Si  Si287  1  0.750137  0.251356  0.540925  1
  Si  Si288  1  0.243794  0.251900  0.624707  1
  Si  Si289  1  0.249370  0.749719  0.623843  1
  Si  Si290  1  0.743725  0.749731  0.541324  1
  Si  Si291  1  0.813430  0.071430  0.666994  1
  Si  Si292  1  0.818819  0.177843  0.666985  1
  O  O293  1  0.832377  0.033774  0.521813  1
  O  O294  1  0.131390  0.033798  0.612007  1
  O  O295  1  0.672397  0.033212  0.562189  1
  O  O296  1  0.373473  0.033149  0.638697  1
  O  O297  1  0.327100  0.533523  0.645463  1
  O  O298  1  0.626301  0.534527  0.554837  1
  O  O299  1  0.177722  0.534600  0.604334  1
  O  O300  1  0.871775  0.534390  0.529081  1
  O  O301  1  0.176353  0.966255  0.645805  1
  O  O302  1  0.875137  0.966110  0.554436  1
  O  O303  1  0.326877  0.965683  0.604541  1
  O  O304  1  0.627540  0.965881  0.529350  1
  O  O305  1  0.663818  0.468644  0.520652  1
  O  O306  1  0.372389  0.467428  0.611491  1
  O  O307  1  0.818152  0.466039  0.561509  1
  O  O308  1  0.127252  0.466773  0.637087  1
  O  O309  1  0.645191  0.064601  0.654972  1
  O  O310  1  0.929274  0.065233  0.643417  1
  O  O311  1  0.861393  0.064415  0.596039  1
  O  O312  1  0.578033  0.062832  0.607676  1
  O  O313  1  0.144580  0.564515  0.512604  1
  O  O314  1  0.427861  0.566032  0.523559  1
  O  O315  1  0.359000  0.567237  0.570546  1
  O  O316  1  0.076613  0.565484  0.559576  1
  O  O317  1  0.358640  0.933824  0.512737  1
  O  O318  1  0.076939  0.934585  0.524150  1
  O  O319  1  0.145109  0.933715  0.571107  1
  O  O320  1  0.426882  0.933065  0.559688  1
  O  O321  1  0.854851  0.436315  0.654372  1
  O  O322  1  0.570820  0.435189  0.643023  1
  O  O323  1  0.639906  0.434723  0.595997  1
  O  O324  1  0.922257  0.435945  0.607055  1
  O  O325  1  0.826440  0.124560  0.508952  1
  O  O326  1  0.053244  0.124396  0.612856  1
  O  O327  1  0.674643  0.123224  0.576130  1
  O  O328  1  0.455101  0.123477  0.637213  1
  O  O329  1  0.552865  0.625543  0.553483  1
  O  O330  1  0.176310  0.625373  0.591248  1
  O  O331  1  0.956356  0.624565  0.529274  1
  O  O332  1  0.955271  0.874817  0.553785  1
  O  O333  1  0.323658  0.874090  0.591438  1
  O  O334  1  0.549243  0.874341  0.529338  1
  O  O335  1  0.672375  0.376982  0.508663  1
  O  O336  1  0.445027  0.376280  0.612552  1
  O  O337  1  0.820925  0.375677  0.575616  1
  O  O338  1  0.043579  0.376478  0.637194  1
  O  O339  1  0.835936  0.286197  0.560523  1
  O  O340  1  0.358402  0.286740  0.610026  1
  O  O341  1  0.657620  0.286057  0.522263  1
  O  O342  1  0.129904  0.286302  0.639962  1
  O  O343  1  0.339359  0.784078  0.605278  1
  O  O344  1  0.862690  0.785494  0.555285  1
  O  O345  1  0.166191  0.785574  0.643714  1
  O  O346  1  0.632053  0.784139  0.526417  1
  O  O347  1  0.160263  0.715443  0.605136  1
  O  O348  1  0.632175  0.715471  0.556281  1
  O  O349  1  0.332799  0.713893  0.643650  1
  O  O350  1  0.863232  0.713920  0.527502  1
  O  O351  1  0.666319  0.213924  0.561231  1
  O  O352  1  0.131785  0.215925  0.610104  1
  O  O353  1  0.839936  0.216048  0.522259  1
  O  O354  1  0.366934  0.214583  0.638876  1
  O  O355  1  0.650146  0.184481  0.654474  1
  O  O356  1  0.933079  0.184316  0.642969  1
  O  O357  1  0.852452  0.183719  0.596464  1
  O  O358  1  0.569950  0.184998  0.607684  1
  O  O359  1  0.145978  0.685495  0.512004  1
  O  O360  1  0.427294  0.685281  0.523968  1
  O  O361  1  0.355425  0.685177  0.570977  1
  O  O362  1  0.074526  0.685416  0.558696  1
  O  O363  1  0.353446  0.814380  0.512157  1
  O  O364  1  0.073111  0.814014  0.524165  1
  O  O365  1  0.145422  0.813726  0.571025  1
  O  O366  1  0.427494  0.814008  0.558913  1
  O  O367  1  0.848580  0.316414  0.654775  1
  O  O368  1  0.565943  0.316452  0.642475  1
  O  O369  1  0.640147  0.315260  0.595347  1
  O  O370  1  0.922662  0.314978  0.607812  1
  O  O371  1  0.832377  0.033774  0.688479  1
  O  O372  1  0.663818  0.468644  0.687319  1
  O  O373  1  0.826440  0.124560  0.675618  1
  O  O374  1  0.672375  0.376982  0.675330  1
  O  O375  1  0.657620  0.286057  0.688930  1
  O  O376  1  0.839936  0.216048  0.688925  1
  H  H377  1  0.327100  0.533523  0.663013  1
  H  H378  1  0.176353  0.966255  0.663355  1
  H  H379  1  0.166191  0.785574  0.661264  1
  H  H380  1  0.332799  0.713893  0.661200  1
  H  H381  1  0.832377  0.033774  0.706029  1
  H  H382  1  0.663818  0.468644  0.704869  1
  H  H383  1  0.657620  0.286057  0.706480  1
  H  H384  1  0.839936  0.216048  0.706476  1
