# generated using pymatgen
data_Si36H2O73
_symmetry_space_group_name_H-M   'P 1'
_cell_length_a   8.96222512
_cell_length_b   15.01261002
_cell_length_c   79.45644260
_cell_angle_alpha   90.00000000
_cell_angle_beta   90.00000000
_cell_angle_gamma   90.00000000
_symmetry_Int_Tables_number   1
_chemical_formula_structural   Si36H2O73
_chemical_formula_sum   'Si144 H8 O292'
_cell_volume   10690.5775652
_cell_formula_units_Z   4
loop_
 _symmetry_equiv_pos_site_id
 _symmetry_equiv_pos_as_xyz
  1  'x, y, z'
loop_
 _atom_site_type_symbol
 _atom_site_label
 _atom_site_symmetry_multiplicity
 _atom_site_fract_x
 _atom_site_fract_y
 _atom_site_fract_z
 _atom_site_occupancy
  O  O1  1  0.749834  0.115193  0.255659  1
  O  O2  1  0.249851  0.615191  0.255667  1
  O  O3  1  0.249885  0.115198  0.134730  1
  O  O4  1  0.749879  0.615200  0.134722  1
  O  O5  1  0.749873  0.115200  0.134729  1
  O  O6  1  0.249889  0.615197  0.134722  1
  O  O7  1  0.249845  0.115191  0.255662  1
  O  O8  1  0.749838  0.615193  0.255670  1
  O  O9  1  0.696662  0.237657  0.234477  1
  O  O10  1  0.196655  0.737658  0.234488  1
  O  O11  1  0.196715  0.237661  0.113548  1
  O  O12  1  0.696725  0.737663  0.113539  1
  O  O13  1  0.696723  0.237667  0.155912  1
  O  O14  1  0.196717  0.737663  0.155903  1
  O  O15  1  0.196654  0.237657  0.276842  1
  O  O16  1  0.696662  0.737663  0.276850  1
  O  O17  1  0.302998  0.237658  0.234479  1
  O  O18  1  0.803004  0.737655  0.234488  1
  O  O19  1  0.803064  0.237666  0.113549  1
  O  O20  1  0.303060  0.737665  0.113541  1
  O  O21  1  0.303059  0.237667  0.155911  1
  O  O22  1  0.803067  0.737669  0.155901  1
  O  O23  1  0.803004  0.237661  0.276840  1
  O  O24  1  0.302999  0.737657  0.276850  1
  O  O25  1  0.796296  0.909781  0.224036  1
  O  O26  1  0.296311  0.409797  0.224030  1
  O  O27  1  0.296365  0.909802  0.103093  1
  O  O28  1  0.796354  0.409790  0.103100  1
  O  O29  1  0.796354  0.909794  0.166350  1
  O  O30  1  0.296363  0.409804  0.166358  1
  O  O31  1  0.296305  0.909796  0.287299  1
  O  O32  1  0.796299  0.409788  0.287291  1
  O  O33  1  0.203365  0.909784  0.224038  1
  O  O34  1  0.703355  0.409796  0.224030  1
  O  O35  1  0.703409  0.909806  0.103089  1
  O  O36  1  0.203423  0.409790  0.103097  1
  O  O37  1  0.203425  0.909792  0.166354  1
  O  O38  1  0.703410  0.409809  0.166361  1
  O  O39  1  0.703351  0.909803  0.287297  1
  O  O40  1  0.203370  0.409783  0.287292  1
  O  O41  1  0.758559  0.576907  0.223903  1
  O  O42  1  0.258546  0.076900  0.223897  1
  O  O43  1  0.258605  0.576908  0.102955  1
  O  O44  1  0.758609  0.076920  0.102961  1
  O  O45  1  0.758606  0.576924  0.166490  1
  O  O46  1  0.258607  0.076911  0.166497  1
  O  O47  1  0.258555  0.576899  0.287433  1
  O  O48  1  0.758548  0.076915  0.287426  1
  O  O49  1  0.241104  0.576910  0.223900  1
  O  O50  1  0.741106  0.076897  0.223893  1
  O  O51  1  0.741163  0.576904  0.102956  1
  O  O52  1  0.241152  0.076912  0.102963  1
  O  O53  1  0.241151  0.576915  0.166489  1
  O  O54  1  0.741167  0.076908  0.166494  1
  O  O55  1  0.741117  0.576905  0.287436  1
  O  O56  1  0.241094  0.076908  0.287429  1
  O  O57  1  0.749818  0.862861  0.255667  1
  O  O58  1  0.249835  0.362859  0.255660  1
  O  O59  1  0.249915  0.862865  0.134724  1
  O  O60  1  0.749905  0.362868  0.134731  1
  O  O61  1  0.749913  0.862868  0.134719  1
  O  O62  1  0.249908  0.362865  0.134728  1
  O  O63  1  0.249820  0.862859  0.255669  1
  O  O64  1  0.749832  0.362861  0.255660  1
  O  O65  1  -0.000000  0.847840  0.242175  1
  O  O66  1  0.499832  0.347833  0.242167  1
  O  O67  1  0.499904  0.847840  0.121228  1
  O  O68  1  0.000000  0.347847  0.121236  1
  O  O69  1  -0.000000  0.847850  0.148215  1
  O  O70  1  0.499900  0.347843  0.148223  1
  O  O71  1  0.499823  0.847836  0.269162  1
  O  O72  1  -0.000000  0.347843  0.269154  1
  O  O73  1  0.792299  0.994952  0.195193  1
  O  O74  1  0.292291  0.495021  0.195194  1
  O  O75  1  0.292286  0.995021  0.074258  1
  O  O76  1  0.792303  0.494951  0.074257  1
  O  O77  1  0.207420  0.994961  0.195196  1
  O  O78  1  0.707428  0.495035  0.195196  1
  O  O79  1  0.707423  0.995034  0.074255  1
  O  O80  1  0.207423  0.494962  0.074255  1
  O  O81  1  -0.000000  0.617936  0.239841  1
  O  O82  1  0.499833  0.117938  0.239832  1
  O  O83  1  0.499886  0.617945  0.118893  1
  O  O84  1  -0.000000  0.117943  0.118903  1
  O  O85  1  -0.000000  0.617945  0.150549  1
  O  O86  1  0.499884  0.117947  0.150558  1
  O  O87  1  0.499839  0.617940  0.271497  1
  O  O88  1  -0.000000  0.117938  0.271488  1
  O  O89  1  -0.000000  0.018271  0.216291  1
  O  O90  1  0.499837  0.518308  0.216292  1
  O  O91  1  0.499877  0.018315  0.095353  1
  O  O92  1  -0.000000  0.518278  0.095352  1
  O  O93  1  -0.000000  0.018279  0.174099  1
  O  O94  1  0.499877  0.518317  0.174098  1
  O  O95  1  0.499828  0.018310  0.295037  1
  O  O96  1  -0.000000  0.518272  0.295038  1
  O  O97  1  0.749834  0.115193  0.497536  1
  O  O98  1  0.249851  0.615191  0.497544  1
  O  O99  1  0.249885  0.115198  0.376608  1
  O  O100  1  0.749879  0.615200  0.376600  1
  O  O101  1  0.749873  0.115200  0.376606  1
  O  O102  1  0.249889  0.615197  0.376599  1
  O  O103  1  0.249845  0.115191  0.497540  1
  O  O104  1  0.749838  0.615193  0.497548  1
  O  O105  1  0.696662  0.237657  0.476355  1
  O  O106  1  0.196655  0.737658  0.476365  1
  O  O107  1  0.196715  0.237661  0.355426  1
  O  O108  1  0.696725  0.737663  0.355416  1
  O  O109  1  0.696723  0.237667  0.397789  1
  O  O110  1  0.196717  0.737663  0.397781  1
  O  O111  1  0.196654  0.237657  0.518719  1
  O  O112  1  0.696662  0.737663  0.518728  1
  O  O113  1  0.302998  0.237658  0.476357  1
  O  O114  1  0.803004  0.737655  0.476366  1
  O  O115  1  0.803064  0.237666  0.355427  1
  O  O116  1  0.303060  0.737665  0.355418  1
  O  O117  1  0.303059  0.237667  0.397789  1
  O  O118  1  0.803067  0.737669  0.397779  1
  O  O119  1  0.803004  0.237661  0.518718  1
  O  O120  1  0.302999  0.737657  0.518728  1
  O  O121  1  0.796296  0.909781  0.465913  1
  O  O122  1  0.296311  0.409797  0.465908  1
  O  O123  1  0.296365  0.909802  0.344971  1
  O  O124  1  0.796354  0.409790  0.344977  1
  O  O125  1  0.796354  0.909794  0.408228  1
  O  O126  1  0.296363  0.409804  0.408235  1
  O  O127  1  0.296305  0.909796  0.529177  1
  O  O128  1  0.796299  0.409788  0.529169  1
  O  O129  1  0.203365  0.909784  0.465915  1
  O  O130  1  0.703355  0.409796  0.465908  1
  O  O131  1  0.703409  0.909806  0.344967  1
  O  O132  1  0.203423  0.409790  0.344975  1
  O  O133  1  0.203425  0.909792  0.408232  1
  O  O134  1  0.703410  0.409809  0.408238  1
  O  O135  1  0.703351  0.909803  0.529175  1
  O  O136  1  0.203370  0.409783  0.529169  1
  O  O137  1  0.758559  0.576907  0.465781  1
  O  O138  1  0.258546  0.076900  0.465774  1
  O  O139  1  0.258605  0.576908  0.344833  1
  O  O140  1  0.758609  0.076920  0.344839  1
  O  O141  1  0.758606  0.576924  0.408367  1
  O  O142  1  0.258607  0.076911  0.408374  1
  O  O143  1  0.258555  0.576899  0.529310  1
  O  O144  1  0.758548  0.076915  0.529303  1
  O  O145  1  0.241104  0.576910  0.465777  1
  O  O146  1  0.741106  0.076897  0.465770  1
  O  O147  1  0.741163  0.576904  0.344834  1
  O  O148  1  0.241152  0.076912  0.344841  1
  O  O149  1  0.241151  0.576915  0.408366  1
  O  O150  1  0.741167  0.076908  0.408372  1
  O  O151  1  0.741117  0.576905  0.529314  1
  O  O152  1  0.241094  0.076908  0.529307  1
  O  O153  1  0.749818  0.862861  0.497545  1
  O  O154  1  0.249835  0.362859  0.497538  1
  O  O155  1  0.249915  0.862865  0.376601  1
  O  O156  1  0.749905  0.362868  0.376609  1
  O  O157  1  0.749913  0.862868  0.376596  1
  O  O158  1  0.249908  0.362865  0.376605  1
  O  O159  1  0.249820  0.862859  0.497547  1
  O  O160  1  0.749832  0.362861  0.497537  1
  O  O161  1  -0.000000  0.847840  0.484052  1
  O  O162  1  0.499832  0.347833  0.484044  1
  O  O163  1  0.499904  0.847840  0.363105  1
  O  O164  1  0.000000  0.347847  0.363114  1
  O  O165  1  0.000000  0.847850  0.390092  1
  O  O166  1  0.499900  0.347843  0.390101  1
  O  O167  1  0.499823  0.847836  0.511039  1
  O  O168  1  -0.000000  0.347843  0.511031  1
  O  O169  1  0.792299  0.994952  0.437071  1
  O  O170  1  0.292291  0.495021  0.437072  1
  O  O171  1  0.292286  0.995021  0.316135  1
  O  O172  1  0.792303  0.494951  0.316135  1
  O  O173  1  0.207420  0.994961  0.437074  1
  O  O174  1  0.707428  0.495035  0.437074  1
  O  O175  1  0.707423  0.995034  0.316132  1
  O  O176  1  0.207423  0.494962  0.316133  1
  O  O177  1  -0.000000  0.617936  0.481719  1
  O  O178  1  0.499833  0.117938  0.481709  1
  O  O179  1  0.499886  0.617945  0.360771  1
  O  O180  1  -0.000000  0.117943  0.360780  1
  O  O181  1  -0.000000  0.617945  0.392427  1
  O  O182  1  0.499884  0.117947  0.392436  1
  O  O183  1  0.499839  0.617940  0.513375  1
  O  O184  1  -0.000000  0.117938  0.513365  1
  O  O185  1  -0.000000  0.018271  0.458168  1
  O  O186  1  0.499837  0.518308  0.458169  1
  O  O187  1  0.499877  0.018315  0.337230  1
  O  O188  1  0.000000  0.518278  0.337230  1
  O  O189  1  -0.000000  0.018279  0.415976  1
  O  O190  1  0.499877  0.518317  0.415976  1
  O  O191  1  0.499828  0.018310  0.536915  1
  O  O192  1  -0.000000  0.518272  0.536915  1
  O  O193  1  0.749834  0.115193  0.739414  1
  O  O194  1  0.249851  0.615191  0.739422  1
  O  O195  1  0.249885  0.115198  0.618486  1
  O  O196  1  0.749879  0.615200  0.618477  1
  O  O197  1  0.749873  0.115200  0.618484  1
  O  O198  1  0.249889  0.615197  0.618477  1
  O  O199  1  0.249845  0.115191  0.739418  1
  O  O200  1  0.749838  0.615193  0.739425  1
  O  O201  1  0.696662  0.237657  0.718232  1
  O  O202  1  0.196655  0.737658  0.718243  1
  O  O203  1  0.196715  0.237661  0.597304  1
  O  O204  1  0.696725  0.737663  0.597294  1
  O  O205  1  0.696723  0.237667  0.639667  1
  O  O206  1  0.196717  0.737663  0.639658  1
  O  O207  1  0.196654  0.237657  0.760597  1
  O  O208  1  0.696662  0.737663  0.760606  1
  O  O209  1  0.302998  0.237658  0.718234  1
  O  O210  1  0.803004  0.737655  0.718243  1
  O  O211  1  0.803064  0.237666  0.597304  1
  O  O212  1  0.303060  0.737665  0.597296  1
  O  O213  1  0.303059  0.237667  0.639666  1
  O  O214  1  0.803067  0.737669  0.639656  1
  O  O215  1  0.803004  0.237661  0.760595  1
  O  O216  1  0.302999  0.737657  0.760605  1
  O  O217  1  0.796296  0.909781  0.707791  1
  O  O218  1  0.296311  0.409797  0.707785  1
  O  O219  1  0.296365  0.909802  0.586848  1
  O  O220  1  0.796354  0.409790  0.586855  1
  O  O221  1  0.796354  0.909794  0.650106  1
  O  O222  1  0.296363  0.409804  0.650113  1
  O  O223  1  0.296305  0.909796  0.771054  1
  O  O224  1  0.796299  0.409788  0.771046  1
  O  O225  1  0.203365  0.909784  0.707793  1
  O  O226  1  0.703355  0.409796  0.707785  1
  O  O227  1  0.703409  0.909806  0.586844  1
  O  O228  1  0.203423  0.409790  0.586852  1
  O  O229  1  0.203425  0.909792  0.650110  1
  O  O230  1  0.703410  0.409809  0.650116  1
  O  O231  1  0.703351  0.909803  0.771052  1
  O  O232  1  0.203370  0.409783  0.771047  1
  O  O233  1  0.758559  0.576907  0.707658  1
  O  O234  1  0.258546  0.076900  0.707652  1
  O  O235  1  0.258605  0.576908  0.586710  1
  O  O236  1  0.758609  0.076920  0.586716  1
  O  O237  1  0.758606  0.576924  0.650245  1
  O  O238  1  0.258607  0.076911  0.650252  1
  O  O239  1  0.258555  0.576899  0.771188  1
  O  O240  1  0.758548  0.076915  0.771181  1
  O  O241  1  0.241104  0.576910  0.707655  1
  O  O242  1  0.741106  0.076897  0.707648  1
  O  O243  1  0.741163  0.576904  0.586711  1
  O  O244  1  0.241152  0.076912  0.586719  1
  O  O245  1  0.241151  0.576915  0.650244  1
  O  O246  1  0.741167  0.076908  0.650249  1
  O  O247  1  0.741117  0.576905  0.771191  1
  O  O248  1  0.241094  0.076908  0.771185  1
  O  O249  1  0.749818  0.862861  0.739422  1
  O  O250  1  0.249835  0.362859  0.739415  1
  O  O251  1  0.249915  0.862865  0.618479  1
  O  O252  1  0.749905  0.362868  0.618487  1
  O  O253  1  0.749913  0.862868  0.618474  1
  O  O254  1  0.249908  0.362865  0.618483  1
  O  O255  1  0.249820  0.862859  0.739424  1
  O  O256  1  0.749832  0.362861  0.739415  1
  O  O257  1  -0.000000  0.847840  0.725930  1
  O  O258  1  0.499832  0.347833  0.725922  1
  O  O259  1  0.499904  0.847840  0.604983  1
  O  O260  1  -0.000000  0.347847  0.604991  1
  O  O261  1  -0.000000  0.847850  0.631970  1
  O  O262  1  0.499900  0.347843  0.631978  1
  O  O263  1  0.499823  0.847836  0.752917  1
  O  O264  1  -0.000000  0.347843  0.752909  1
  O  O265  1  0.792299  0.994952  0.678948  1
  O  O266  1  0.292291  0.495021  0.678949  1
  O  O267  1  0.292286  0.995021  0.558013  1
  O  O268  1  0.792303  0.494951  0.558012  1
  O  O269  1  0.207420  0.994961  0.678952  1
  O  O270  1  0.707428  0.495035  0.678951  1
  O  O271  1  0.707423  0.995034  0.558010  1
  O  O272  1  0.207423  0.494962  0.558010  1
  O  O273  1  -0.000000  0.617936  0.723597  1
  O  O274  1  0.499833  0.117938  0.723587  1
  O  O275  1  0.499886  0.617945  0.602648  1
  O  O276  1  -0.000000  0.117943  0.602658  1
  O  O277  1  -0.000000  0.617945  0.634304  1
  O  O278  1  0.499884  0.117947  0.634314  1
  O  O279  1  0.499839  0.617940  0.755253  1
  O  O280  1  -0.000000  0.117938  0.755243  1
  O  O281  1  -0.000000  0.018271  0.700046  1
  O  O282  1  0.499837  0.518308  0.700047  1
  O  O283  1  0.499877  0.018315  0.579108  1
  O  O284  1  -0.000000  0.518278  0.579107  1
  O  O285  1  -0.000000  0.018279  0.657854  1
  O  O286  1  0.499877  0.518317  0.657854  1
  O  O287  1  0.499828  0.018310  0.778792  1
  O  O288  1  -0.000000  0.518272  0.778793  1
  O  O289  1  0.292286  0.995021  0.799890  1
  O  O290  1  0.792303  0.494951  0.799890  1
  O  O291  1  0.707423  0.995034  0.799887  1
  O  O292  1  0.207423  0.494962  0.799888  1
  Si  Si293  1  0.827274  0.635257  0.238285  1
  Si  Si294  1  0.327269  0.135258  0.238277  1
  Si  Si295  1  0.327322  0.635264  0.117337  1
  Si  Si296  1  0.827319  0.135264  0.117345  1
  Si  Si297  1  0.827321  0.635267  0.152106  1
  Si  Si298  1  0.327321  0.135266  0.152115  1
  Si  Si299  1  0.327275  0.635259  0.273052  1
  Si  Si300  1  0.827267  0.135261  0.273043  1
  Si  Si301  1  0.172399  0.635256  0.238283  1
  Si  Si302  1  0.672395  0.135257  0.238274  1
  Si  Si303  1  0.672449  0.635265  0.117337  1
  Si  Si304  1  0.172445  0.135263  0.117346  1
  Si  Si305  1  0.172446  0.635265  0.152106  1
  Si  Si306  1  0.672448  0.135268  0.152114  1
  Si  Si307  1  0.672401  0.635262  0.273054  1
  Si  Si308  1  0.172393  0.135257  0.273046  1
  Si  Si309  1  0.671163  0.339791  0.238456  1
  Si  Si310  1  0.171155  0.839791  0.238465  1
  Si  Si311  1  0.171228  0.339798  0.117525  1
  Si  Si312  1  0.671232  0.839800  0.117515  1
  Si  Si313  1  0.671228  0.339803  0.151935  1
  Si  Si314  1  0.171232  0.839800  0.151927  1
  Si  Si315  1  0.171162  0.339791  0.272864  1
  Si  Si316  1  0.671155  0.839796  0.272872  1
  Si  Si317  1  0.328501  0.339793  0.238456  1
  Si  Si318  1  0.828494  0.839791  0.238464  1
  Si  Si319  1  0.828567  0.339799  0.117527  1
  Si  Si320  1  0.328570  0.839798  0.117519  1
  Si  Si321  1  0.328567  0.339800  0.151932  1
  Si  Si322  1  0.828571  0.839802  0.151923  1
  Si  Si323  1  0.828501  0.339796  0.272864  1
  Si  Si324  1  0.328494  0.839793  0.272873  1
  Si  Si325  1  0.827449  0.000000  0.214577  1
  Si  Si326  1  0.327453  0.500723  0.214578  1
  Si  Si327  1  0.327492  -0.000000  0.093641  1
  Si  Si328  1  0.827496  0.500693  0.093640  1
  Si  Si329  1  0.827497  -0.000000  0.175810  1
  Si  Si330  1  0.327493  0.500728  0.175811  1
  Si  Si331  1  0.327445  -0.000000  0.296751  1
  Si  Si332  1  0.827455  0.500690  0.296751  1
  Si  Si333  1  0.172220  0.000000  0.214580  1
  Si  Si334  1  0.672223  0.500726  0.214579  1
  Si  Si335  1  0.672262  -0.000000  0.093639  1
  Si  Si336  1  0.172268  0.500697  0.093639  1
  Si  Si337  1  0.172268  -0.000000  0.175812  1
  Si  Si338  1  0.672263  0.500737  0.175812  1
  Si  Si339  1  0.672215  -0.000000  0.296749  1
  Si  Si340  1  0.172227  0.500690  0.296749  1
  Si  Si341  1  0.827274  0.635257  0.480163  1
  Si  Si342  1  0.327269  0.135258  0.480155  1
  Si  Si343  1  0.327322  0.635264  0.359215  1
  Si  Si344  1  0.827319  0.135264  0.359222  1
  Si  Si345  1  0.827321  0.635267  0.393984  1
  Si  Si346  1  0.327321  0.135266  0.393992  1
  Si  Si347  1  0.327275  0.635259  0.514929  1
  Si  Si348  1  0.827267  0.135261  0.514921  1
  Si  Si349  1  0.172399  0.635256  0.480161  1
  Si  Si350  1  0.672395  0.135257  0.480152  1
  Si  Si351  1  0.672449  0.635265  0.359215  1
  Si  Si352  1  0.172445  0.135263  0.359224  1
  Si  Si353  1  0.172446  0.635265  0.393983  1
  Si  Si354  1  0.672448  0.135268  0.393991  1
  Si  Si355  1  0.672401  0.635262  0.514932  1
  Si  Si356  1  0.172393  0.135257  0.514924  1
  Si  Si357  1  0.671163  0.339791  0.480333  1
  Si  Si358  1  0.171155  0.839791  0.480343  1
  Si  Si359  1  0.171228  0.339798  0.359402  1
  Si  Si360  1  0.671232  0.839800  0.359393  1
  Si  Si361  1  0.671228  0.339803  0.393813  1
  Si  Si362  1  0.171232  0.839800  0.393804  1
  Si  Si363  1  0.171162  0.339791  0.514742  1
  Si  Si364  1  0.671155  0.839796  0.514749  1
  Si  Si365  1  0.328501  0.339793  0.480334  1
  Si  Si366  1  0.828494  0.839791  0.480342  1
  Si  Si367  1  0.828567  0.339799  0.359405  1
  Si  Si368  1  0.328570  0.839798  0.359396  1
  Si  Si369  1  0.328567  0.339800  0.393810  1
  Si  Si370  1  0.828571  0.839802  0.393801  1
  Si  Si371  1  0.828501  0.339796  0.514741  1
  Si  Si372  1  0.328494  0.839793  0.514751  1
  Si  Si373  1  0.827449  -0.000000  0.456455  1
  Si  Si374  1  0.327453  0.500723  0.456456  1
  Si  Si375  1  0.327492  -0.000000  0.335519  1
  Si  Si376  1  0.827496  0.500693  0.335518  1
  Si  Si377  1  0.827497  -0.000000  0.417688  1
  Si  Si378  1  0.327493  0.500728  0.417688  1
  Si  Si379  1  0.327445  0.000000  0.538628  1
  Si  Si380  1  0.827455  0.500690  0.538628  1
  Si  Si381  1  0.172220  -0.000000  0.456457  1
  Si  Si382  1  0.672223  0.500726  0.456457  1
  Si  Si383  1  0.672262  -0.000000  0.335516  1
  Si  Si384  1  0.172268  0.500697  0.335517  1
  Si  Si385  1  0.172268  -0.000000  0.417690  1
  Si  Si386  1  0.672263  0.500737  0.417689  1
  Si  Si387  1  0.672215  -0.000000  0.538626  1
  Si  Si388  1  0.172227  0.500690  0.538627  1
  Si  Si389  1  0.827274  0.635257  0.722041  1
  Si  Si390  1  0.327269  0.135258  0.722032  1
  Si  Si391  1  0.327322  0.635264  0.601092  1
  Si  Si392  1  0.827319  0.135264  0.601100  1
  Si  Si393  1  0.827321  0.635267  0.635861  1
  Si  Si394  1  0.327321  0.135266  0.635870  1
  Si  Si395  1  0.327275  0.635259  0.756807  1
  Si  Si396  1  0.827267  0.135261  0.756798  1
  Si  Si397  1  0.172399  0.635256  0.722038  1
  Si  Si398  1  0.672395  0.135257  0.722029  1
  Si  Si399  1  0.672449  0.635265  0.601092  1
  Si  Si400  1  0.172445  0.135263  0.601101  1
  Si  Si401  1  0.172446  0.635265  0.635861  1
  Si  Si402  1  0.672448  0.135268  0.635869  1
  Si  Si403  1  0.672401  0.635262  0.756809  1
  Si  Si404  1  0.172393  0.135257  0.756801  1
  Si  Si405  1  0.671163  0.339791  0.722211  1
  Si  Si406  1  0.171155  0.839791  0.722220  1
  Si  Si407  1  0.171228  0.339798  0.601280  1
  Si  Si408  1  0.671232  0.839800  0.601270  1
  Si  Si409  1  0.671228  0.339803  0.635690  1
  Si  Si410  1  0.171232  0.839800  0.635682  1
  Si  Si411  1  0.171162  0.339791  0.756619  1
  Si  Si412  1  0.671155  0.839796  0.756627  1
  Si  Si413  1  0.328501  0.339793  0.722211  1
  Si  Si414  1  0.828494  0.839791  0.722219  1
  Si  Si415  1  0.828567  0.339799  0.601282  1
  Si  Si416  1  0.328570  0.839798  0.601274  1
  Si  Si417  1  0.328567  0.339800  0.635687  1
  Si  Si418  1  0.828571  0.839802  0.635678  1
  Si  Si419  1  0.828501  0.339796  0.756619  1
  Si  Si420  1  0.328494  0.839793  0.756628  1
  Si  Si421  1  0.827449  -0.000000  0.698333  1
  Si  Si422  1  0.327453  0.500723  0.698333  1
  Si  Si423  1  0.327492  0.000000  0.577396  1
  Si  Si424  1  0.827496  0.500693  0.577395  1
  Si  Si425  1  0.827497  -0.000000  0.659565  1
  Si  Si426  1  0.327493  0.500728  0.659566  1
  Si  Si427  1  0.327445  0.000000  0.780506  1
  Si  Si428  1  0.827455  0.500690  0.780506  1
  Si  Si429  1  0.172220  -0.000000  0.698335  1
  Si  Si430  1  0.672223  0.500726  0.698334  1
  Si  Si431  1  0.672262  -0.000000  0.577394  1
  Si  Si432  1  0.172268  0.500697  0.577394  1
  Si  Si433  1  0.172268  0.000000  0.659568  1
  Si  Si434  1  0.672263  0.500737  0.659567  1
  Si  Si435  1  0.672215  -0.000000  0.780504  1
  Si  Si436  1  0.172227  0.500690  0.780505  1
  H  H437  1  0.292286  0.995021  0.062931  1
  H  H438  1  0.792303  0.494951  0.062930  1
  H  H439  1  0.707423  0.995034  0.062928  1
  H  H440  1  0.207423  0.494962  0.062928  1
  H  H441  1  0.292286  0.995021  0.811217  1
  H  H442  1  0.792303  0.494951  0.811217  1
  H  H443  1  0.707423  0.995034  0.811214  1
  H  H444  1  0.207423  0.494962  0.811215  1
