# generated using pymatgen
data_Si15H2O31
_symmetry_space_group_name_H-M   'P 1'
_cell_length_a   12.70128613
_cell_length_b   11.41729918
_cell_length_c   46.73636054
_cell_angle_alpha   90.00000000
_cell_angle_beta   90.00000000
_cell_angle_gamma   90.00000000
_symmetry_Int_Tables_number   1
_chemical_formula_structural   Si15H2O31
_chemical_formula_sum   'Si60 H8 O124'
_cell_volume   6777.44452102
_cell_formula_units_Z   4
loop_
 _symmetry_equiv_pos_site_id
 _symmetry_equiv_pos_as_xyz
  1  'x, y, z'
loop_
 _atom_site_type_symbol
 _atom_site_label
 _atom_site_symmetry_multiplicity
 _atom_site_fract_x
 _atom_site_fract_y
 _atom_site_fract_z
 _atom_site_occupancy
  O  O1  1  0.141845  0.500038  0.163822  1
  O  O2  1  0.175262  0.289560  0.183347  1
  O  O3  1  0.175283  0.710517  0.183349  1
  O  O4  1  0.360303  0.347617  0.278165  1
  O  O5  1  0.360323  0.652553  0.278170  1
  O  O6  1  0.298452  0.290089  0.227375  1
  O  O7  1  0.298470  0.710100  0.227380  1
  O  O8  1  0.360262  0.500094  0.239711  1
  O  O9  1  0.146641  0.660674  0.126249  1
  O  O10  1  0.499820  0.658456  0.239505  1
  O  O11  1  0.169332  0.114381  0.220015  1
  O  O12  1  0.169296  0.885745  0.220003  1
  O  O13  1  0.101583  0.312204  0.233070  1
  O  O14  1  0.101605  0.687911  0.233072  1
  O  O15  1  0.137645  0.000000  0.266570  1
  O  O16  1  0.499800  0.341713  0.239500  1
  O  O17  1  0.146641  0.339431  0.126244  1
  O  O18  1  0.000000  0.342789  0.279347  1
  O  O19  1  0.857841  0.500042  0.163820  1
  O  O20  1  0.824399  0.710513  0.183350  1
  O  O21  1  0.824392  0.289578  0.183345  1
  O  O22  1  0.639292  0.652544  0.278176  1
  O  O23  1  0.639273  0.347578  0.278171  1
  O  O24  1  0.701172  0.710043  0.227379  1
  O  O25  1  0.701149  0.290103  0.227372  1
  O  O26  1  0.639352  0.500073  0.239721  1
  O  O27  1  0.830258  0.885744  0.220006  1
  O  O28  1  0.830230  0.114387  0.220011  1
  O  O29  1  0.898039  0.687960  0.233079  1
  O  O30  1  0.898016  0.312180  0.233076  1
  O  O31  1  0.000000  0.000000  0.228263  1
  O  O32  1  0.861882  0.000000  0.266573  1
  O  O33  1  0.000000  0.657344  0.279348  1
  O  O34  1  0.000000  0.500064  0.241385  1
  O  O35  1  0.853104  0.660675  0.126247  1
  O  O36  1  0.000000  0.348257  0.162423  1
  O  O37  1  0.000000  0.651823  0.162430  1
  O  O38  1  0.853103  0.339433  0.126240  1
  O  O39  1  0.298924  0.283179  0.327469  1
  O  O40  1  0.299137  0.716987  0.458554  1
  O  O41  1  0.298949  0.716969  0.327477  1
  O  O42  1  0.299158  0.283202  0.458540  1
  O  O43  1  0.499974  0.657749  0.469234  1
  O  O44  1  0.358559  0.500074  0.316683  1
  O  O45  1  0.358768  0.500090  0.469346  1
  O  O46  1  0.100920  0.308995  0.325270  1
  O  O47  1  0.101161  0.691150  0.460801  1
  O  O48  1  0.100952  0.691130  0.325270  1
  O  O49  1  0.101188  0.309095  0.460783  1
  O  O50  1  0.171655  0.111701  0.313608  1
  O  O51  1  0.171898  0.888495  0.472415  1
  O  O52  1  0.171673  0.888444  0.313619  1
  O  O53  1  0.171885  0.111749  0.472416  1
  O  O54  1  0.172829  0.184543  0.365060  1
  O  O55  1  0.172868  0.815487  0.420972  1
  O  O56  1  0.172823  0.815564  0.365069  1
  O  O57  1  0.172877  0.184669  0.420965  1
  O  O58  1  0.133117  -0.000000  0.393041  1
  O  O59  1  0.499793  0.657708  0.316809  1
  O  O60  1  0.499771  0.342415  0.316803  1
  O  O61  1  0.499997  0.342456  0.469223  1
  O  O62  1  -0.000000  0.000000  0.480397  1
  O  O63  1  0.700850  0.283230  0.458556  1
  O  O64  1  0.700635  0.716937  0.327490  1
  O  O65  1  0.700817  0.717018  0.458569  1
  O  O66  1  0.700609  0.283155  0.327484  1
  O  O67  1  0.641209  0.500116  0.469352  1
  O  O68  1  0.641001  0.500050  0.316688  1
  O  O69  1  0.898852  0.309048  0.460757  1
  O  O70  1  0.898612  0.691100  0.325246  1
  O  O71  1  0.898818  0.691179  0.460769  1
  O  O72  1  0.898579  0.309050  0.325243  1
  O  O73  1  0.828114  0.111757  0.472425  1
  O  O74  1  0.827872  0.888436  0.313623  1
  O  O75  1  0.828099  0.888498  0.472418  1
  O  O76  1  0.827885  0.111691  0.313620  1
  O  O77  1  0.826953  0.184571  0.420971  1
  O  O78  1  0.826898  0.815474  0.365068  1
  O  O79  1  0.826929  0.815597  0.420972  1
  O  O80  1  0.826893  0.184667  0.365066  1
  O  O81  1  0.000000  0.000000  0.305639  1
  O  O82  1  0.000000  0.500069  0.317190  1
  O  O83  1  0.866652  0.000000  0.392993  1
  O  O84  1  -0.000000  0.159748  0.393015  1
  O  O85  1  0.000000  0.840395  0.393021  1
  O  O86  1  0.000000  0.500116  0.468845  1
  O  O87  1  0.141903  0.500068  0.622215  1
  O  O88  1  0.175345  0.710543  0.602691  1
  O  O89  1  0.175363  0.289614  0.602685  1
  O  O90  1  0.360465  0.652551  0.507865  1
  O  O91  1  0.360488  0.347586  0.507855  1
  O  O92  1  0.298579  0.710014  0.558664  1
  O  O93  1  0.298599  0.290078  0.558653  1
  O  O94  1  0.360398  0.500048  0.546313  1
  O  O95  1  0.169518  0.885746  0.566025  1
  O  O96  1  0.169498  0.114393  0.566030  1
  O  O97  1  0.101708  0.687964  0.552962  1
  O  O98  1  0.101733  0.312184  0.552954  1
  O  O99  1  0.137878  0.000000  0.519464  1
  O  O100  1  0.499929  0.658431  0.546537  1
  O  O101  1  0.499951  0.341687  0.546527  1
  O  O102  1  0.857900  0.500067  0.622213  1
  O  O103  1  0.824481  0.289599  0.602682  1
  O  O104  1  0.824472  0.710559  0.602692  1
  O  O105  1  0.000000  0.342816  0.506682  1
  O  O106  1  0.639455  0.347627  0.507863  1
  O  O107  1  0.639436  0.652563  0.507873  1
  O  O108  1  0.701301  0.290063  0.558651  1
  O  O109  1  0.701274  0.710075  0.558665  1
  O  O110  1  0.639488  0.500071  0.546325  1
  O  O111  1  0.830447  0.114387  0.566025  1
  O  O112  1  0.830429  0.885753  0.566026  1
  O  O113  1  0.898169  0.312206  0.552956  1
  O  O114  1  0.898139  0.687913  0.552970  1
  O  O115  1  0.862117  0.000000  0.519465  1
  O  O116  1  0.000000  0.657370  0.506693  1
  O  O117  1  -0.000000  0.500070  0.544650  1
  O  O118  1  -0.000000  0.348282  0.623605  1
  O  O119  1  0.000000  0.651850  0.623611  1
  O  O120  1  0.000000  0.000000  0.557772  1
  O  O121  1  0.146641  0.660674  0.659794  1
  O  O122  1  0.146641  0.339431  0.659789  1
  O  O123  1  0.853104  0.660675  0.659792  1
  O  O124  1  0.853103  0.339433  0.659785  1
  Si  Si125  1  0.121647  0.000000  0.299743  1
  Si  Si126  1  0.189041  0.751452  0.215418  1
  Si  Si127  1  0.121515  0.000000  0.233362  1
  Si  Si128  1  0.121763  0.364952  0.159025  1
  Si  Si129  1  0.121769  0.635127  0.159030  1
  Si  Si130  1  0.378782  0.365173  0.245163  1
  Si  Si131  1  0.378799  0.635010  0.245167  1
  Si  Si132  1  0.189034  0.248676  0.215420  1
  Si  Si133  1  -0.000000  0.635225  0.246364  1
  Si  Si134  1  0.000000  0.364901  0.246363  1
  Si  Si135  1  0.877883  0.000000  0.299747  1
  Si  Si136  1  0.877924  0.635132  0.159031  1
  Si  Si137  1  0.877919  0.364955  0.159025  1
  Si  Si138  1  0.620835  0.634992  0.245173  1
  Si  Si139  1  0.620818  0.365154  0.245168  1
  Si  Si140  1  0.810588  0.751436  0.215418  1
  Si  Si141  1  0.810568  0.248691  0.215416  1
  Si  Si142  1  0.878026  0.000000  0.233366  1
  Si  Si143  1  0.121599  0.135830  0.393022  1
  Si  Si144  1  0.121592  0.864306  0.393027  1
  Si  Si145  1  0.378716  0.365140  0.311203  1
  Si  Si146  1  0.378915  0.635024  0.474827  1
  Si  Si147  1  0.378734  0.635008  0.311208  1
  Si  Si148  1  0.378934  0.365154  0.474819  1
  Si  Si149  1  0.190343  0.220990  0.333195  1
  Si  Si150  1  0.190533  0.779157  0.452840  1
  Si  Si151  1  0.190360  0.779143  0.333202  1
  Si  Si152  1  0.190543  0.221048  0.452829  1
  Si  Si153  1  0.000000  0.635181  0.473664  1
  Si  Si154  1  -0.000000  0.635137  0.312377  1
  Si  Si155  1  0.878170  0.864315  0.393012  1
  Si  Si156  1  0.878177  0.135839  0.393010  1
  Si  Si157  1  0.621052  0.365178  0.474825  1
  Si  Si158  1  0.620852  0.634988  0.311214  1
  Si  Si159  1  0.621033  0.635045  0.474834  1
  Si  Si160  1  0.620834  0.365118  0.311209  1
  Si  Si161  1  0.809431  0.221036  0.452834  1
  Si  Si162  1  0.809236  0.779113  0.333203  1
  Si  Si163  1  0.809404  0.779188  0.452839  1
  Si  Si164  1  0.809224  0.221011  0.333200  1
  Si  Si165  1  -0.000000  0.365001  0.312375  1
  Si  Si166  1  -0.000000  0.365045  0.473654  1
  Si  Si167  1  0.189178  0.248699  0.570616  1
  Si  Si168  1  0.121885  0.000000  0.486289  1
  Si  Si169  1  0.121729  0.000000  0.552671  1
  Si  Si170  1  0.121822  0.635155  0.627010  1
  Si  Si171  1  0.121826  0.364978  0.627005  1
  Si  Si172  1  0.378915  0.634972  0.540868  1
  Si  Si173  1  0.378933  0.365134  0.540859  1
  Si  Si174  1  0.189167  0.751439  0.570620  1
  Si  Si175  1  0.878121  0.000000  0.486291  1
  Si  Si176  1  0.878240  0.000000  0.552672  1
  Si  Si177  1  0.877982  0.364978  0.627004  1
  Si  Si178  1  0.877977  0.635154  0.627011  1
  Si  Si179  1  0.620969  0.365154  0.540866  1
  Si  Si180  1  0.620951  0.634991  0.540875  1
  Si  Si181  1  0.810724  0.248684  0.570611  1
  Si  Si182  1  0.810701  0.751463  0.570621  1
  Si  Si183  1  -0.000000  0.635235  0.539676  1
  Si  Si184  1  0.000000  0.364911  0.539667  1
  H  H185  1  0.146641  0.660674  0.106992  1
  H  H186  1  0.146641  0.339431  0.106987  1
  H  H187  1  0.853104  0.660675  0.106990  1
  H  H188  1  0.853103  0.339433  0.106983  1
  H  H189  1  0.146641  0.660674  0.679051  1
  H  H190  1  0.146641  0.339431  0.679046  1
  H  H191  1  0.853104  0.660675  0.679049  1
  H  H192  1  0.853103  0.339433  0.679042  1
