# generated using pymatgen
data_Si20H2O41
_symmetry_space_group_name_H-M   'P 1'
_cell_length_a   8.52920369
_cell_length_b   27.82197427
_cell_length_c   59.82924941
_cell_angle_alpha   90.00000000
_cell_angle_beta   90.00000000
_cell_angle_gamma   90.00000000
_symmetry_Int_Tables_number   1
_chemical_formula_structural   Si20H2O41
_chemical_formula_sum   'Si160 H16 O328'
_cell_volume   14197.4381434
_cell_formula_units_Z   8
loop_
 _symmetry_equiv_pos_site_id
 _symmetry_equiv_pos_as_xyz
  1  'x, y, z'
loop_
 _atom_site_type_symbol
 _atom_site_label
 _atom_site_symmetry_multiplicity
 _atom_site_fract_x
 _atom_site_fract_y
 _atom_site_fract_z
 _atom_site_occupancy
  Si  Si1  1  0.002054  0.071284  0.241782  1
  Si  Si2  1  0.692638  0.069951  0.214919  1
  Si  Si3  1  0.504523  0.070151  0.259005  1
  Si  Si4  1  0.310062  0.571622  0.143420  1
  Si  Si5  1  0.499948  0.572850  0.186894  1
  Si  Si6  1  0.192016  0.572753  0.213558  1
  Si  Si7  1  0.007100  0.571709  0.170140  1
  Si  Si8  1  0.191798  0.927846  0.143864  1
  Si  Si9  1  0.007496  0.927655  0.187281  1
  Si  Si10  1  0.311487  0.926823  0.213730  1
  Si  Si11  1  0.496356  0.926974  0.170220  1
  Si  Si12  1  0.687139  0.429903  0.285609  1
  Si  Si13  1  0.498570  0.429026  0.241450  1
  Si  Si14  1  0.806758  0.428723  0.214942  1
  Si  Si15  1  0.992855  0.429428  0.258386  1
  Si  Si16  1  0.507225  0.176590  0.258955  1
  Si  Si17  1  0.001250  0.177608  0.240937  1
  Si  Si18  1  0.682128  0.176346  0.215579  1
  Si  Si19  1  0.004758  0.677829  0.169187  1
  Si  Si20  1  0.313371  0.677611  0.143230  1
  Si  Si21  1  0.499131  0.678325  0.187478  1
  Si  Si22  1  0.185743  0.678631  0.213841  1
  Si  Si23  1  0.498171  0.821062  0.169170  1
  Si  Si24  1  0.185096  0.821747  0.143355  1
  Si  Si25  1  0.004183  0.821564  0.187508  1
  Si  Si26  1  0.314352  0.820858  0.213910  1
  Si  Si27  1  0.993722  0.323046  0.259465  1
  Si  Si28  1  0.678722  0.323754  0.285709  1
  Si  Si29  1  0.495040  0.323000  0.240638  1
  Si  Si30  1  0.810823  0.322003  0.214521  1
  Si  Si31  1  0.751510  0.001127  0.178680  1
  Si  Si32  1  0.252161  0.001014  0.250121  1
  Si  Si33  1  0.252648  0.500161  0.249683  1
  Si  Si34  1  0.741920  0.501003  0.177996  1
  Si  Si35  1  0.750137  0.251356  0.177936  1
  Si  Si36  1  0.243794  0.251900  0.249749  1
  Si  Si37  1  0.249370  0.749719  0.249008  1
  Si  Si38  1  0.743725  0.749731  0.178278  1
  Si  Si39  1  0.813430  0.071430  0.285995  1
  Si  Si40  1  0.002054  0.071284  0.384640  1
  Si  Si41  1  0.692638  0.069951  0.357776  1
  Si  Si42  1  0.504523  0.070151  0.401862  1
  Si  Si43  1  0.310062  0.571622  0.286277  1
  Si  Si44  1  0.499948  0.572850  0.329751  1
  Si  Si45  1  0.192016  0.572753  0.356415  1
  Si  Si46  1  0.007100  0.571709  0.312997  1
  Si  Si47  1  0.191798  0.927846  0.286721  1
  Si  Si48  1  0.007496  0.927655  0.330138  1
  Si  Si49  1  0.311487  0.926823  0.356587  1
  Si  Si50  1  0.496356  0.926974  0.313077  1
  Si  Si51  1  0.687139  0.429903  0.428467  1
  Si  Si52  1  0.498570  0.429026  0.384307  1
  Si  Si53  1  0.806758  0.428723  0.357800  1
  Si  Si54  1  0.992855  0.429428  0.401243  1
  Si  Si55  1  0.507225  0.176590  0.401812  1
  Si  Si56  1  0.818819  0.177843  0.285987  1
  Si  Si57  1  0.001250  0.177608  0.383794  1
  Si  Si58  1  0.682128  0.176346  0.358436  1
  Si  Si59  1  0.004758  0.677829  0.312044  1
  Si  Si60  1  0.313371  0.677611  0.286087  1
  Si  Si61  1  0.499131  0.678325  0.330335  1
  Si  Si62  1  0.185743  0.678631  0.356698  1
  Si  Si63  1  0.498171  0.821062  0.312027  1
  Si  Si64  1  0.185096  0.821747  0.286212  1
  Si  Si65  1  0.004183  0.821564  0.330366  1
  Si  Si66  1  0.314352  0.820858  0.356768  1
  Si  Si67  1  0.993722  0.323046  0.402322  1
  Si  Si68  1  0.678722  0.323754  0.428566  1
  Si  Si69  1  0.495040  0.323000  0.383496  1
  Si  Si70  1  0.810823  0.322003  0.357378  1
  Si  Si71  1  0.751510  0.001127  0.321537  1
  Si  Si72  1  0.252161  0.001014  0.392978  1
  Si  Si73  1  0.252648  0.500161  0.392540  1
  Si  Si74  1  0.741920  0.501003  0.320853  1
  Si  Si75  1  0.750137  0.251356  0.320793  1
  Si  Si76  1  0.243794  0.251900  0.392606  1
  Si  Si77  1  0.249370  0.749719  0.391866  1
  Si  Si78  1  0.743725  0.749731  0.321135  1
  O  O79  1  0.327100  0.533523  0.124683  1
  O  O80  1  0.176353  0.966255  0.124975  1
  O  O81  1  0.321478  0.624489  0.136080  1
  O  O82  1  0.176340  0.875067  0.136423  1
  O  O83  1  0.166191  0.785574  0.123183  1
  O  O84  1  0.332799  0.713893  0.123129  1
  O  O85  1  0.832377  0.033774  0.161553  1
  O  O86  1  0.131390  0.033798  0.238863  1
  O  O87  1  0.672397  0.033212  0.196162  1
  O  O88  1  0.373473  0.033149  0.261740  1
  O  O89  1  0.327100  0.533523  0.267540  1
  O  O90  1  0.626301  0.534527  0.189860  1
  O  O91  1  0.177722  0.534600  0.232286  1
  O  O92  1  0.871775  0.534390  0.167784  1
  O  O93  1  0.176353  0.966255  0.267832  1
  O  O94  1  0.875137  0.966110  0.189516  1
  O  O95  1  0.326877  0.965683  0.232464  1
  O  O96  1  0.627540  0.965881  0.168014  1
  O  O97  1  0.663818  0.468644  0.160559  1
  O  O98  1  0.372389  0.467428  0.238421  1
  O  O99  1  0.818152  0.466039  0.195579  1
  O  O100  1  0.127252  0.466773  0.260361  1
  O  O101  1  0.645191  0.064601  0.275691  1
  O  O102  1  0.929274  0.065233  0.265786  1
  O  O103  1  0.861393  0.064415  0.225177  1
  O  O104  1  0.578033  0.062832  0.235151  1
  O  O105  1  0.144580  0.564515  0.153660  1
  O  O106  1  0.427861  0.566032  0.163051  1
  O  O107  1  0.359000  0.567237  0.203325  1
  O  O108  1  0.076613  0.565484  0.193922  1
  O  O109  1  0.358640  0.933824  0.153774  1
  O  O110  1  0.076939  0.934585  0.163557  1
  O  O111  1  0.145109  0.933715  0.203806  1
  O  O112  1  0.426882  0.933065  0.194018  1
  O  O113  1  0.854851  0.436315  0.275176  1
  O  O114  1  0.570820  0.435189  0.265448  1
  O  O115  1  0.639906  0.434723  0.225141  1
  O  O116  1  0.922257  0.435945  0.234619  1
  O  O117  1  0.053244  0.124396  0.239591  1
  O  O118  1  0.674643  0.123224  0.208112  1
  O  O119  1  0.455101  0.123477  0.260469  1
  O  O120  1  0.321478  0.624489  0.278938  1
  O  O121  1  0.552865  0.625543  0.188700  1
  O  O122  1  0.176310  0.625373  0.221069  1
  O  O123  1  0.956356  0.624565  0.167950  1
  O  O124  1  0.176340  0.875067  0.279280  1
  O  O125  1  0.955271  0.874817  0.188958  1
  O  O126  1  0.323658  0.874090  0.221232  1
  O  O127  1  0.549243  0.874341  0.168004  1
  O  O128  1  0.445027  0.376280  0.239330  1
  O  O129  1  0.820925  0.375677  0.207671  1
  O  O130  1  0.043579  0.376478  0.260452  1
  O  O131  1  0.835936  0.286197  0.194733  1
  O  O132  1  0.358402  0.286740  0.237165  1
  O  O133  1  0.657620  0.286057  0.161940  1
  O  O134  1  0.129904  0.286302  0.262825  1
  O  O135  1  0.339359  0.784078  0.233095  1
  O  O136  1  0.862690  0.785494  0.190244  1
  O  O137  1  0.166191  0.785574  0.266040  1
  O  O138  1  0.632053  0.784139  0.165501  1
  O  O139  1  0.160263  0.715443  0.232973  1
  O  O140  1  0.632175  0.715471  0.191098  1
  O  O141  1  0.332799  0.713893  0.265986  1
  O  O142  1  0.863232  0.713920  0.166431  1
  O  O143  1  0.666319  0.213924  0.195341  1
  O  O144  1  0.131785  0.215925  0.237232  1
  O  O145  1  0.839936  0.216048  0.161936  1
  O  O146  1  0.366934  0.214583  0.261894  1
  O  O147  1  0.650146  0.184481  0.275263  1
  O  O148  1  0.933079  0.184316  0.265402  1
  O  O149  1  0.852452  0.183719  0.225541  1
  O  O150  1  0.569950  0.184998  0.235158  1
  O  O151  1  0.145978  0.685495  0.153147  1
  O  O152  1  0.427294  0.685281  0.163401  1
  O  O153  1  0.355425  0.685177  0.203694  1
  O  O154  1  0.074526  0.685416  0.193168  1
  O  O155  1  0.353446  0.814380  0.153277  1
  O  O156  1  0.073111  0.814014  0.163569  1
  O  O157  1  0.145422  0.813726  0.203736  1
  O  O158  1  0.427494  0.814008  0.193353  1
  O  O159  1  0.848580  0.316414  0.275521  1
  O  O160  1  0.565943  0.316452  0.264979  1
  O  O161  1  0.640147  0.315260  0.224583  1
  O  O162  1  0.922662  0.314978  0.235267  1
  O  O163  1  0.832377  0.033774  0.304411  1
  O  O164  1  0.131390  0.033798  0.381720  1
  O  O165  1  0.672397  0.033212  0.339019  1
  O  O166  1  0.373473  0.033149  0.404598  1
  O  O167  1  0.327100  0.533523  0.410397  1
  O  O168  1  0.626301  0.534527  0.332717  1
  O  O169  1  0.177722  0.534600  0.375144  1
  O  O170  1  0.871775  0.534390  0.310641  1
  O  O171  1  0.176353  0.966255  0.410690  1
  O  O172  1  0.875137  0.966110  0.332374  1
  O  O173  1  0.326877  0.965683  0.375321  1
  O  O174  1  0.627540  0.965881  0.310871  1
  O  O175  1  0.663818  0.468644  0.303416  1
  O  O176  1  0.372389  0.467428  0.381278  1
  O  O177  1  0.818152  0.466039  0.338436  1
  O  O178  1  0.127252  0.466773  0.403218  1
  O  O179  1  0.645191  0.064601  0.418548  1
  O  O180  1  0.929274  0.065233  0.408643  1
  O  O181  1  0.861393  0.064415  0.368034  1
  O  O182  1  0.578033  0.062832  0.378008  1
  O  O183  1  0.144580  0.564515  0.296517  1
  O  O184  1  0.427861  0.566032  0.305908  1
  O  O185  1  0.359000  0.567237  0.346182  1
  O  O186  1  0.076613  0.565484  0.336779  1
  O  O187  1  0.358640  0.933824  0.296632  1
  O  O188  1  0.076939  0.934585  0.306414  1
  O  O189  1  0.145109  0.933715  0.346663  1
  O  O190  1  0.426882  0.933065  0.336875  1
  O  O191  1  0.854851  0.436315  0.418033  1
  O  O192  1  0.570820  0.435189  0.408305  1
  O  O193  1  0.639906  0.434723  0.367998  1
  O  O194  1  0.922257  0.435945  0.377476  1
  O  O195  1  0.826440  0.124560  0.293387  1
  O  O196  1  0.053244  0.124396  0.382448  1
  O  O197  1  0.674643  0.123224  0.350969  1
  O  O198  1  0.455101  0.123477  0.403326  1
  O  O199  1  0.321478  0.624489  0.421795  1
  O  O200  1  0.552865  0.625543  0.331557  1
  O  O201  1  0.176310  0.625373  0.363926  1
  O  O202  1  0.956356  0.624565  0.310807  1
  O  O203  1  0.176340  0.875067  0.422137  1
  O  O204  1  0.955271  0.874817  0.331815  1
  O  O205  1  0.323658  0.874090  0.364089  1
  O  O206  1  0.549243  0.874341  0.310861  1
  O  O207  1  0.672375  0.376982  0.293140  1
  O  O208  1  0.445027  0.376280  0.382188  1
  O  O209  1  0.820925  0.375677  0.350529  1
  O  O210  1  0.043579  0.376478  0.403309  1
  O  O211  1  0.835936  0.286197  0.337590  1
  O  O212  1  0.358402  0.286740  0.380022  1
  O  O213  1  0.657620  0.286057  0.304797  1
  O  O214  1  0.129904  0.286302  0.405682  1
  O  O215  1  0.339359  0.784078  0.375952  1
  O  O216  1  0.862690  0.785494  0.333101  1
  O  O217  1  0.166191  0.785574  0.408897  1
  O  O218  1  0.632053  0.784139  0.308358  1
  O  O219  1  0.160263  0.715443  0.375831  1
  O  O220  1  0.632175  0.715471  0.333955  1
  O  O221  1  0.332799  0.713893  0.408843  1
  O  O222  1  0.863232  0.713920  0.309288  1
  O  O223  1  0.666319  0.213924  0.338198  1
  O  O224  1  0.131785  0.215925  0.380089  1
  O  O225  1  0.839936  0.216048  0.304793  1
  O  O226  1  0.366934  0.214583  0.404751  1
  O  O227  1  0.650146  0.184481  0.418120  1
  O  O228  1  0.933079  0.184316  0.408259  1
  O  O229  1  0.852452  0.183719  0.368398  1
  O  O230  1  0.569950  0.184998  0.378015  1
  O  O231  1  0.145978  0.685495  0.296004  1
  O  O232  1  0.427294  0.685281  0.306258  1
  O  O233  1  0.355425  0.685177  0.346551  1
  O  O234  1  0.074526  0.685416  0.336025  1
  O  O235  1  0.353446  0.814380  0.296134  1
  O  O236  1  0.073111  0.814014  0.306427  1
  O  O237  1  0.145422  0.813726  0.346593  1
  O  O238  1  0.427494  0.814008  0.336211  1
  O  O239  1  0.848580  0.316414  0.418378  1
  O  O240  1  0.565943  0.316452  0.407836  1
  O  O241  1  0.640147  0.315260  0.367440  1
  O  O242  1  0.922662  0.314978  0.378125  1
  H  H243  1  0.327100  0.533523  0.109640  1
  H  H244  1  0.176353  0.966255  0.109932  1
  H  H245  1  0.166191  0.785574  0.108140  1
  H  H246  1  0.332799  0.713893  0.108086  1
  H  H247  1  0.832377  0.033774  0.146511  1
  H  H248  1  0.663818  0.468644  0.145516  1
  H  H249  1  0.657620  0.286057  0.146897  1
  H  H250  1  0.839936  0.216048  0.146893  1
  O  O251  1  0.832377  0.033774  0.447268  1
  O  O252  1  0.131390  0.033798  0.524577  1
  O  O253  1  0.672397  0.033212  0.481876  1
  O  O254  1  0.373473  0.033149  0.547455  1
  O  O255  1  0.327100  0.533523  0.553254  1
  O  O256  1  0.626301  0.534527  0.475574  1
  O  O257  1  0.177722  0.534600  0.518001  1
  O  O258  1  0.871775  0.534390  0.453498  1
  O  O259  1  0.176353  0.966255  0.553547  1
  O  O260  1  0.875137  0.966110  0.475231  1
  O  O261  1  0.326877  0.965683  0.518178  1
  O  O262  1  0.627540  0.965881  0.453728  1
  O  O263  1  0.663818  0.468644  0.446273  1
  O  O264  1  0.372389  0.467428  0.524135  1
  O  O265  1  0.818152  0.466039  0.481293  1
  O  O266  1  0.127252  0.466773  0.546075  1
  O  O267  1  0.645191  0.064601  0.561405  1
  O  O268  1  0.929274  0.065233  0.551500  1
  O  O269  1  0.861393  0.064415  0.510891  1
  O  O270  1  0.578033  0.062832  0.520865  1
  O  O271  1  0.144580  0.564515  0.439375  1
  O  O272  1  0.427861  0.566032  0.448765  1
  O  O273  1  0.359000  0.567237  0.489039  1
  O  O274  1  0.076613  0.565484  0.479636  1
  O  O275  1  0.358640  0.933824  0.439489  1
  O  O276  1  0.076939  0.934585  0.449271  1
  O  O277  1  0.145109  0.933715  0.489520  1
  O  O278  1  0.426882  0.933065  0.479732  1
  O  O279  1  0.854851  0.436315  0.560890  1
  O  O280  1  0.570820  0.435189  0.551162  1
  O  O281  1  0.639906  0.434723  0.510855  1
  O  O282  1  0.922257  0.435945  0.520333  1
  O  O283  1  0.826440  0.124560  0.436244  1
  O  O284  1  0.053244  0.124396  0.525305  1
  O  O285  1  0.674643  0.123224  0.493826  1
  O  O286  1  0.455101  0.123477  0.546183  1
  O  O287  1  0.321478  0.624489  0.564652  1
  O  O288  1  0.552865  0.625543  0.474414  1
  O  O289  1  0.176310  0.625373  0.506783  1
  O  O290  1  0.956356  0.624565  0.453664  1
  O  O291  1  0.176340  0.875067  0.564994  1
  O  O292  1  0.955271  0.874817  0.474673  1
  O  O293  1  0.323658  0.874090  0.506946  1
  O  O294  1  0.549243  0.874341  0.453718  1
  O  O295  1  0.672375  0.376982  0.435997  1
  O  O296  1  0.445027  0.376280  0.525045  1
  O  O297  1  0.820925  0.375677  0.493386  1
  O  O298  1  0.043579  0.376478  0.546167  1
  O  O299  1  0.835936  0.286197  0.480448  1
  O  O300  1  0.358402  0.286740  0.522880  1
  O  O301  1  0.657620  0.286057  0.447654  1
  O  O302  1  0.129904  0.286302  0.548539  1
  O  O303  1  0.339359  0.784078  0.518810  1
  O  O304  1  0.862690  0.785494  0.475958  1
  O  O305  1  0.166191  0.785574  0.551755  1
  O  O306  1  0.632053  0.784139  0.451215  1
  O  O307  1  0.160263  0.715443  0.518688  1
  O  O308  1  0.632175  0.715471  0.476812  1
  O  O309  1  0.332799  0.713893  0.551700  1
  O  O310  1  0.863232  0.713920  0.452145  1
  O  O311  1  0.666319  0.213924  0.481055  1
  O  O312  1  0.131785  0.215925  0.522946  1
  O  O313  1  0.839936  0.216048  0.447650  1
  O  O314  1  0.366934  0.214583  0.547608  1
  O  O315  1  0.650146  0.184481  0.560977  1
  O  O316  1  0.933079  0.184316  0.551116  1
  O  O317  1  0.852452  0.183719  0.511255  1
  O  O318  1  0.569950  0.184998  0.520872  1
  O  O319  1  0.145978  0.685495  0.438861  1
  O  O320  1  0.427294  0.685281  0.449115  1
  O  O321  1  0.355425  0.685177  0.489409  1
  O  O322  1  0.074526  0.685416  0.478882  1
  O  O323  1  0.353446  0.814380  0.438991  1
  O  O324  1  0.073111  0.814014  0.449284  1
  O  O325  1  0.145422  0.813726  0.489450  1
  O  O326  1  0.427494  0.814008  0.479068  1
  O  O327  1  0.848580  0.316414  0.561235  1
  O  O328  1  0.565943  0.316452  0.550693  1
  O  O329  1  0.640147  0.315260  0.510297  1
  O  O330  1  0.922662  0.314978  0.520982  1
  Si  Si331  1  0.813430  0.071430  0.428852  1
  Si  Si332  1  0.002054  0.071284  0.527497  1
  Si  Si333  1  0.692638  0.069951  0.500633  1
  Si  Si334  1  0.504523  0.070151  0.544720  1
  Si  Si335  1  0.310062  0.571622  0.429134  1
  Si  Si336  1  0.499948  0.572850  0.472609  1
  Si  Si337  1  0.192016  0.572753  0.499272  1
  Si  Si338  1  0.007100  0.571709  0.455854  1
  Si  Si339  1  0.191798  0.927846  0.429578  1
  Si  Si340  1  0.007496  0.927655  0.472995  1
  Si  Si341  1  0.311487  0.926823  0.499444  1
  Si  Si342  1  0.496356  0.926974  0.455934  1
  Si  Si343  1  0.687139  0.429903  0.571324  1
  Si  Si344  1  0.498570  0.429026  0.527165  1
  Si  Si345  1  0.806758  0.428723  0.500657  1
  Si  Si346  1  0.992855  0.429428  0.544100  1
  Si  Si347  1  0.507225  0.176590  0.544669  1
  Si  Si348  1  0.818819  0.177843  0.428844  1
  Si  Si349  1  0.001250  0.177608  0.526651  1
  Si  Si350  1  0.682128  0.176346  0.501293  1
  Si  Si351  1  0.004758  0.677829  0.454901  1
  Si  Si352  1  0.313371  0.677611  0.428944  1
  Si  Si353  1  0.499131  0.678325  0.473192  1
  Si  Si354  1  0.185743  0.678631  0.499555  1
  Si  Si355  1  0.498171  0.821062  0.454885  1
  Si  Si356  1  0.185096  0.821747  0.429069  1
  Si  Si357  1  0.004183  0.821564  0.473223  1
  Si  Si358  1  0.314352  0.820858  0.499625  1
  Si  Si359  1  0.993722  0.323046  0.545179  1
  Si  Si360  1  0.678722  0.323754  0.571424  1
  Si  Si361  1  0.495040  0.323000  0.526353  1
  Si  Si362  1  0.810823  0.322003  0.500235  1
  Si  Si363  1  0.751510  0.001127  0.464394  1
  Si  Si364  1  0.252161  0.001014  0.535835  1
  Si  Si365  1  0.252648  0.500161  0.535397  1
  Si  Si366  1  0.741920  0.501003  0.463710  1
  Si  Si367  1  0.750137  0.251356  0.463650  1
  Si  Si368  1  0.243794  0.251900  0.535463  1
  Si  Si369  1  0.249370  0.749719  0.534723  1
  Si  Si370  1  0.743725  0.749731  0.463992  1
  Si  Si371  1  0.813430  0.071430  0.571709  1
  Si  Si372  1  0.002054  0.071284  0.670354  1
  Si  Si373  1  0.692638  0.069951  0.643490  1
  Si  Si374  1  0.504523  0.070151  0.687577  1
  Si  Si375  1  0.310062  0.571622  0.571991  1
  Si  Si376  1  0.499948  0.572850  0.615466  1
  Si  Si377  1  0.192016  0.572753  0.642130  1
  Si  Si378  1  0.007100  0.571709  0.598711  1
  Si  Si379  1  0.191798  0.927846  0.572436  1
  Si  Si380  1  0.007496  0.927655  0.615852  1
  Si  Si381  1  0.311487  0.926823  0.642301  1
  Si  Si382  1  0.496356  0.926974  0.598791  1
  Si  Si383  1  0.687139  0.429903  0.714181  1
  Si  Si384  1  0.498570  0.429026  0.670022  1
  Si  Si385  1  0.806758  0.428723  0.643514  1
  Si  Si386  1  0.992855  0.429428  0.686957  1
  Si  Si387  1  0.507225  0.176590  0.687526  1
  Si  Si388  1  0.818819  0.177843  0.571702  1
  Si  Si389  1  0.001250  0.177608  0.669508  1
  Si  Si390  1  0.682128  0.176346  0.644150  1
  Si  Si391  1  0.004758  0.677829  0.597758  1
  Si  Si392  1  0.313371  0.677611  0.571801  1
  Si  Si393  1  0.499131  0.678325  0.616049  1
  Si  Si394  1  0.185743  0.678631  0.642412  1
  Si  Si395  1  0.498171  0.821062  0.597742  1
  Si  Si396  1  0.185096  0.821747  0.571926  1
  Si  Si397  1  0.004183  0.821564  0.616080  1
  Si  Si398  1  0.314352  0.820858  0.642482  1
  Si  Si399  1  0.993722  0.323046  0.688036  1
  Si  Si400  1  0.678722  0.323754  0.714281  1
  Si  Si401  1  0.495040  0.323000  0.669210  1
  Si  Si402  1  0.810823  0.322003  0.643093  1
  Si  Si403  1  0.751510  0.001127  0.607251  1
  Si  Si404  1  0.252161  0.001014  0.678692  1
  Si  Si405  1  0.252648  0.500161  0.678254  1
  Si  Si406  1  0.741920  0.501003  0.606567  1
  Si  Si407  1  0.750137  0.251356  0.606507  1
  Si  Si408  1  0.243794  0.251900  0.678321  1
  Si  Si409  1  0.249370  0.749719  0.677580  1
  Si  Si410  1  0.743725  0.749731  0.606850  1
  Si  Si411  1  0.813430  0.071430  0.714566  1
  Si  Si412  1  0.818819  0.177843  0.714559  1
  O  O413  1  0.832377  0.033774  0.590125  1
  O  O414  1  0.131390  0.033798  0.667435  1
  O  O415  1  0.672397  0.033212  0.624733  1
  O  O416  1  0.373473  0.033149  0.690312  1
  O  O417  1  0.327100  0.533523  0.696111  1
  O  O418  1  0.626301  0.534527  0.618432  1
  O  O419  1  0.177722  0.534600  0.660858  1
  O  O420  1  0.871775  0.534390  0.596355  1
  O  O421  1  0.176353  0.966255  0.696404  1
  O  O422  1  0.875137  0.966110  0.618088  1
  O  O423  1  0.326877  0.965683  0.661035  1
  O  O424  1  0.627540  0.965881  0.596585  1
  O  O425  1  0.663818  0.468644  0.589131  1
  O  O426  1  0.372389  0.467428  0.666992  1
  O  O427  1  0.818152  0.466039  0.624151  1
  O  O428  1  0.127252  0.466773  0.688932  1
  O  O429  1  0.645191  0.064601  0.704262  1
  O  O430  1  0.929274  0.065233  0.694357  1
  O  O431  1  0.861393  0.064415  0.653748  1
  O  O432  1  0.578033  0.062832  0.663722  1
  O  O433  1  0.144580  0.564515  0.582232  1
  O  O434  1  0.427861  0.566032  0.591622  1
  O  O435  1  0.359000  0.567237  0.631896  1
  O  O436  1  0.076613  0.565484  0.622493  1
  O  O437  1  0.358640  0.933824  0.582346  1
  O  O438  1  0.076939  0.934585  0.592128  1
  O  O439  1  0.145109  0.933715  0.632377  1
  O  O440  1  0.426882  0.933065  0.622589  1
  O  O441  1  0.854851  0.436315  0.703747  1
  O  O442  1  0.570820  0.435189  0.694019  1
  O  O443  1  0.639906  0.434723  0.653712  1
  O  O444  1  0.922257  0.435945  0.663190  1
  O  O445  1  0.826440  0.124560  0.579101  1
  O  O446  1  0.053244  0.124396  0.668162  1
  O  O447  1  0.674643  0.123224  0.636683  1
  O  O448  1  0.455101  0.123477  0.689040  1
  O  O449  1  0.552865  0.625543  0.617271  1
  O  O450  1  0.176310  0.625373  0.649641  1
  O  O451  1  0.956356  0.624565  0.596521  1
  O  O452  1  0.955271  0.874817  0.617530  1
  O  O453  1  0.323658  0.874090  0.649804  1
  O  O454  1  0.549243  0.874341  0.596575  1
  O  O455  1  0.672375  0.376982  0.578854  1
  O  O456  1  0.445027  0.376280  0.667902  1
  O  O457  1  0.820925  0.375677  0.636243  1
  O  O458  1  0.043579  0.376478  0.689024  1
  O  O459  1  0.835936  0.286197  0.623305  1
  O  O460  1  0.358402  0.286740  0.665737  1
  O  O461  1  0.657620  0.286057  0.590512  1
  O  O462  1  0.129904  0.286302  0.691396  1
  O  O463  1  0.339359  0.784078  0.661667  1
  O  O464  1  0.862690  0.785494  0.618816  1
  O  O465  1  0.166191  0.785574  0.694612  1
  O  O466  1  0.632053  0.784139  0.594072  1
  O  O467  1  0.160263  0.715443  0.661545  1
  O  O468  1  0.632175  0.715471  0.619669  1
  O  O469  1  0.332799  0.713893  0.694557  1
  O  O470  1  0.863232  0.713920  0.595002  1
  O  O471  1  0.666319  0.213924  0.623912  1
  O  O472  1  0.131785  0.215925  0.665803  1
  O  O473  1  0.839936  0.216048  0.590508  1
  O  O474  1  0.366934  0.214583  0.690465  1
  O  O475  1  0.650146  0.184481  0.703834  1
  O  O476  1  0.933079  0.184316  0.693973  1
  O  O477  1  0.852452  0.183719  0.654112  1
  O  O478  1  0.569950  0.184998  0.663730  1
  O  O479  1  0.145978  0.685495  0.581718  1
  O  O480  1  0.427294  0.685281  0.591973  1
  O  O481  1  0.355425  0.685177  0.632266  1
  O  O482  1  0.074526  0.685416  0.621739  1
  O  O483  1  0.353446  0.814380  0.581848  1
  O  O484  1  0.073111  0.814014  0.592141  1
  O  O485  1  0.145422  0.813726  0.632307  1
  O  O486  1  0.427494  0.814008  0.621925  1
  O  O487  1  0.848580  0.316414  0.704092  1
  O  O488  1  0.565943  0.316452  0.693550  1
  O  O489  1  0.640147  0.315260  0.653154  1
  O  O490  1  0.922662  0.314978  0.663839  1
  O  O491  1  0.832377  0.033774  0.732982  1
  O  O492  1  0.663818  0.468644  0.731988  1
  O  O493  1  0.826440  0.124560  0.721958  1
  O  O494  1  0.672375  0.376982  0.721711  1
  O  O495  1  0.657620  0.286057  0.733369  1
  O  O496  1  0.839936  0.216048  0.733365  1
  H  H497  1  0.327100  0.533523  0.711154  1
  H  H498  1  0.176353  0.966255  0.711447  1
  H  H499  1  0.166191  0.785574  0.709654  1
  H  H500  1  0.332799  0.713893  0.709600  1
  H  H501  1  0.832377  0.033774  0.748025  1
  H  H502  1  0.663818  0.468644  0.747031  1
  H  H503  1  0.657620  0.286057  0.748411  1
  H  H504  1  0.839936  0.216048  0.748408  1
