# generated using pymatgen
data_Si55H2O111
_symmetry_space_group_name_H-M   'P 1'
_cell_length_a   13.87556409
_cell_length_b   12.44431264
_cell_length_c   106.03210324
_cell_angle_alpha   104.91000000
_cell_angle_beta   90.00000000
_cell_angle_gamma   90.00000000
_symmetry_Int_Tables_number   1
_chemical_formula_structural   Si55H2O111
_chemical_formula_sum   'Si220 H8 O444'
_cell_volume   17692.3259969
_cell_formula_units_Z   4
loop_
 _symmetry_equiv_pos_site_id
 _symmetry_equiv_pos_as_xyz
  1  'x, y, z'
loop_
 _atom_site_type_symbol
 _atom_site_label
 _atom_site_symmetry_multiplicity
 _atom_site_fract_x
 _atom_site_fract_y
 _atom_site_fract_z
 _atom_site_occupancy
  O  O1  1  0.172434  0.250759  0.057287  1
  O  O2  1  0.172430  0.895639  0.060999  1
  O  O3  1  0.499915  0.154845  0.107663  1
  O  O4  1  0.403170  0.159159  0.087939  1
  O  O5  1  0.096619  0.840704  0.117716  1
  O  O6  1  0.402113  0.780366  0.090989  1
  O  O7  1  0.097775  0.220136  0.114672  1
  O  O8  1  -0.000000  0.244010  0.095822  1
  O  O9  1  0.499929  0.943665  0.104301  1
  O  O10  1  0.499950  0.548345  0.109683  1
  O  O11  1  0.092621  0.310201  0.078880  1
  O  O12  1  0.403746  0.477253  0.089755  1
  O  O13  1  0.095979  0.522133  0.116061  1
  O  O14  1  0.240039  0.812478  0.080492  1
  O  O15  1  0.259727  0.187457  0.125161  1
  O  O16  1  0.251304  0.813006  0.104597  1
  O  O17  1  0.248465  0.186148  0.101044  1
  O  O18  1  0.277008  0.627856  0.087880  1
  O  O19  1  0.224142  0.371760  0.117568  1
  O  O20  1  0.245387  0.415321  0.078042  1
  O  O21  1  0.249004  0.501989  0.102849  1
  O  O22  1  0.249069  0.212378  0.077970  1
  O  O23  1  0.259360  0.018167  0.081413  1
  O  O24  1  0.240474  0.981537  0.124211  1
  O  O25  1  0.094097  0.938313  0.082849  1
  O  O26  1  0.405630  0.061629  0.122829  1
  O  O27  1  0.499943  0.333850  0.098778  1
  O  O28  1  0.827737  0.250754  0.057292  1
  O  O29  1  0.827725  0.895522  0.060984  1
  O  O30  1  -0.000000  0.844737  0.097998  1
  O  O31  1  0.903152  0.840612  0.117706  1
  O  O32  1  0.596597  0.159064  0.087929  1
  O  O33  1  0.902040  0.220179  0.114654  1
  O  O34  1  0.597701  0.780411  0.090972  1
  O  O35  1  0.000000  0.056217  0.101413  1
  O  O36  1  0.907136  0.310094  0.078908  1
  O  O37  1  0.903846  0.522111  0.116055  1
  O  O38  1  0.596066  0.477226  0.089744  1
  O  O39  1  0.740105  0.187418  0.125133  1
  O  O40  1  0.759795  0.812446  0.080464  1
  O  O41  1  0.751395  0.186034  0.101013  1
  O  O42  1  0.748559  0.812899  0.104567  1
  O  O43  1  0.775604  0.371729  0.117535  1
  O  O44  1  0.722746  0.627831  0.087848  1
  O  O45  1  0.754489  0.415301  0.078032  1
  O  O46  1  0.750711  0.502140  0.102839  1
  O  O47  1  0.750613  0.212348  0.077946  1
  O  O48  1  0.759338  0.981466  0.124172  1
  O  O49  1  0.740453  0.018092  0.081373  1
  O  O50  1  0.594166  0.061668  0.122834  1
  O  O51  1  0.905697  0.938352  0.082854  1
  O  O52  1  -0.000000  0.451504  0.096092  1
  O  O53  1  -0.000000  0.665762  0.106980  1
  O  O54  1  0.500044  0.755525  0.109802  1
  O  O55  1  0.327816  0.250898  0.196620  1
  O  O56  1  0.327662  0.749401  0.148386  1
  O  O57  1  0.365779  0.143583  0.170781  1
  O  O58  1  0.365771  0.856741  0.174207  1
  O  O59  1  0.375857  0.048773  0.189284  1
  O  O60  1  0.375836  0.951545  0.155704  1
  O  O61  1  0.327526  0.895817  0.200319  1
  O  O62  1  0.327440  0.104294  0.144652  1
  O  O63  1  0.407128  0.690313  0.126786  1
  O  O64  1  0.407087  0.309549  0.218251  1
  O  O65  1  0.254967  0.415622  0.217374  1
  O  O66  1  0.254720  0.584455  0.127667  1
  O  O67  1  0.250144  0.212622  0.217257  1
  O  O68  1  0.250450  0.787531  0.127717  1
  O  O69  1  0.672513  0.749398  0.148393  1
  O  O70  1  0.672580  0.250676  0.196615  1
  O  O71  1  0.634555  0.856626  0.174230  1
  O  O72  1  0.634553  0.143470  0.170775  1
  O  O73  1  0.500208  0.189687  0.187502  1
  O  O74  1  0.624440  0.951501  0.155718  1
  O  O75  1  0.624521  0.048612  0.189289  1
  O  O76  1  0.672713  0.104178  0.144637  1
  O  O77  1  0.672536  0.895813  0.200383  1
  O  O78  1  0.500159  0.907339  0.190943  1
  O  O79  1  0.592569  0.310407  0.218182  1
  O  O80  1  0.592625  0.690213  0.126814  1
  O  O81  1  0.745142  0.584426  0.127658  1
  O  O82  1  0.745592  0.415383  0.217342  1
  O  O83  1  0.749239  0.787503  0.127693  1
  O  O84  1  0.748774  0.212345  0.217331  1
  O  O85  1  0.500129  0.092905  0.154049  1
  O  O86  1  0.500148  0.810498  0.157495  1
  O  O87  1  0.172595  0.749543  0.287720  1
  O  O88  1  0.134552  0.143634  0.310132  1
  O  O89  1  0.124529  0.951682  0.295055  1
  O  O90  1  0.172514  0.104476  0.283971  1
  O  O91  1  -0.000000  0.093000  0.293419  1
  O  O92  1  0.402731  0.840773  0.257035  1
  O  O93  1  0.096178  0.159221  0.227259  1
  O  O94  1  0.499692  0.666031  0.246272  1
  O  O95  1  0.401632  0.220277  0.253971  1
  O  O96  1  0.097292  0.780498  0.230288  1
  O  O97  1  0.092574  0.689676  0.266157  1
  O  O98  1  0.404141  0.522103  0.255347  1
  O  O99  1  0.096386  0.477208  0.229045  1
  O  O100  1  0.239661  0.187700  0.264450  1
  O  O101  1  0.259349  0.812721  0.219781  1
  O  O102  1  0.251030  0.186402  0.240329  1
  O  O103  1  0.248192  0.813262  0.243883  1
  O  O104  1  0.275556  0.372007  0.256857  1
  O  O105  1  0.222689  0.628097  0.227170  1
  O  O106  1  0.245623  0.584753  0.267000  1
  O  O107  1  0.250818  0.502657  0.242189  1
  O  O108  1  0.248768  0.787782  0.267005  1
  O  O109  1  0.259022  0.981780  0.263498  1
  O  O110  1  0.240136  0.018404  0.220700  1
  O  O111  1  0.093816  0.061766  0.262162  1
  O  O112  1  0.405344  0.938456  0.222182  1
  O  O113  1  -0.000000  0.810565  0.296826  1
  O  O114  1  0.499630  0.845026  0.237342  1
  O  O115  1  -0.000000  0.755819  0.249162  1
  O  O116  1  0.499979  0.451646  0.235372  1
  O  O117  1  0.499475  0.056357  0.240730  1
  O  O118  1  0.827803  0.749325  0.287715  1
  O  O119  1  0.865768  0.143524  0.310156  1
  O  O120  1  0.875846  0.951515  0.295059  1
  O  O121  1  0.827546  0.104474  0.284036  1
  O  O122  1  0.000000  0.155120  0.247006  1
  O  O123  1  0.902734  0.159395  0.227311  1
  O  O124  1  0.596180  0.840950  0.257088  1
  O  O125  1  0.000000  0.334111  0.238072  1
  O  O126  1  0.901634  0.779858  0.230375  1
  O  O127  1  0.597297  0.219635  0.254058  1
  O  O128  1  0.907078  0.690536  0.266088  1
  O  O129  1  0.904131  0.478009  0.228992  1
  O  O130  1  0.596376  0.522903  0.255293  1
  O  O131  1  0.739675  0.812444  0.219895  1
  O  O132  1  0.759364  0.187427  0.264563  1
  O  O133  1  0.751022  0.813798  0.244015  1
  O  O134  1  0.748187  0.186938  0.240461  1
  O  O135  1  0.775542  0.628127  0.227491  1
  O  O136  1  0.722675  0.372038  0.257177  1
  O  O137  1  0.754935  0.584517  0.266967  1
  O  O138  1  0.750827  0.497436  0.242153  1
  O  O139  1  0.750148  0.787505  0.267079  1
  O  O140  1  0.759035  0.018396  0.220857  1
  O  O141  1  0.740149  0.981769  0.263655  1
  O  O142  1  0.593820  0.938386  0.222189  1
  O  O143  1  0.905353  0.061699  0.262169  1
  O  O144  1  0.500319  0.244319  0.235182  1
  O  O145  1  -0.000000  0.943793  0.243618  1
  O  O146  1  -0.000000  0.548479  0.248966  1
  O  O147  1  0.172434  0.250759  0.335985  1
  O  O148  1  0.134567  0.856693  0.313554  1
  O  O149  1  -0.000000  0.907254  0.330270  1
  O  O150  1  0.124510  0.048654  0.328631  1
  O  O151  1  0.172430  0.895639  0.339697  1
  O  O152  1  0.499915  0.154845  0.386361  1
  O  O153  1  0.403170  0.159159  0.366637  1
  O  O154  1  0.096619  0.840704  0.396414  1
  O  O155  1  0.402113  0.780366  0.369688  1
  O  O156  1  0.097775  0.220136  0.393371  1
  O  O157  1  -0.000000  0.244010  0.374520  1
  O  O158  1  0.499929  0.943665  0.382999  1
  O  O159  1  0.499950  0.548345  0.388382  1
  O  O160  1  0.092621  0.310201  0.357578  1
  O  O161  1  0.403746  0.477253  0.368453  1
  O  O162  1  0.095979  0.522133  0.394759  1
  O  O163  1  0.240039  0.812478  0.359190  1
  O  O164  1  0.259727  0.187457  0.403859  1
  O  O165  1  0.251304  0.813006  0.383295  1
  O  O166  1  0.248465  0.186148  0.379742  1
  O  O167  1  0.277008  0.627856  0.366578  1
  O  O168  1  0.224142  0.371760  0.396266  1
  O  O169  1  0.245387  0.415321  0.356740  1
  O  O170  1  0.249004  0.501989  0.381547  1
  O  O171  1  0.249069  0.212378  0.356668  1
  O  O172  1  0.259360  0.018167  0.360111  1
  O  O173  1  0.240474  0.981537  0.402909  1
  O  O174  1  0.094097  0.938313  0.361547  1
  O  O175  1  0.405630  0.061629  0.401527  1
  O  O176  1  0.499943  0.333850  0.377476  1
  O  O177  1  -0.000000  0.189626  0.326869  1
  O  O178  1  0.827737  0.250754  0.335990  1
  O  O179  1  0.865770  0.856583  0.313547  1
  O  O180  1  0.875767  0.048606  0.328645  1
  O  O181  1  0.827725  0.895522  0.339682  1
  O  O182  1  -0.000000  0.844737  0.376696  1
  O  O183  1  0.903152  0.840612  0.396404  1
  O  O184  1  0.596597  0.159064  0.366627  1
  O  O185  1  0.902040  0.220179  0.393352  1
  O  O186  1  0.597701  0.780411  0.369670  1
  O  O187  1  0.000000  0.056217  0.380111  1
  O  O188  1  0.907136  0.310094  0.357606  1
  O  O189  1  0.903846  0.522111  0.394753  1
  O  O190  1  0.596066  0.477226  0.368442  1
  O  O191  1  0.740105  0.187418  0.403831  1
  O  O192  1  0.759795  0.812446  0.359162  1
  O  O193  1  0.751395  0.186034  0.379712  1
  O  O194  1  0.748559  0.812899  0.383265  1
  O  O195  1  0.775604  0.371729  0.396233  1
  O  O196  1  0.722746  0.627831  0.366546  1
  O  O197  1  0.754489  0.415301  0.356730  1
  O  O198  1  0.750711  0.502140  0.381538  1
  O  O199  1  0.750613  0.212348  0.356644  1
  O  O200  1  0.759338  0.981466  0.402870  1
  O  O201  1  0.740453  0.018092  0.360071  1
  O  O202  1  0.594166  0.061668  0.401532  1
  O  O203  1  0.905697  0.938352  0.361552  1
  O  O204  1  -0.000000  0.451504  0.374791  1
  O  O205  1  -0.000000  0.665762  0.385678  1
  O  O206  1  0.500044  0.755525  0.388501  1
  O  O207  1  0.327816  0.250898  0.475318  1
  O  O208  1  0.327662  0.749401  0.427084  1
  O  O209  1  0.365779  0.143583  0.449479  1
  O  O210  1  0.365771  0.856741  0.452905  1
  O  O211  1  0.375857  0.048773  0.467982  1
  O  O212  1  0.375836  0.951545  0.434402  1
  O  O213  1  0.327526  0.895817  0.479017  1
  O  O214  1  0.327440  0.104294  0.423350  1
  O  O215  1  0.407128  0.690313  0.405484  1
  O  O216  1  0.407087  0.309549  0.496949  1
  O  O217  1  0.254967  0.415622  0.496072  1
  O  O218  1  0.254720  0.584455  0.406365  1
  O  O219  1  0.250144  0.212622  0.495955  1
  O  O220  1  0.250450  0.787531  0.406415  1
  O  O221  1  0.672513  0.749398  0.427091  1
  O  O222  1  0.672580  0.250676  0.475313  1
  O  O223  1  0.634555  0.856626  0.452928  1
  O  O224  1  0.634553  0.143470  0.449473  1
  O  O225  1  0.500208  0.189687  0.466200  1
  O  O226  1  0.624440  0.951501  0.434416  1
  O  O227  1  0.624521  0.048612  0.467987  1
  O  O228  1  0.672713  0.104178  0.423335  1
  O  O229  1  0.672536  0.895813  0.479081  1
  O  O230  1  0.500159  0.907339  0.469641  1
  O  O231  1  0.592569  0.310407  0.496880  1
  O  O232  1  0.592625  0.690213  0.405512  1
  O  O233  1  0.745142  0.584426  0.406356  1
  O  O234  1  0.745592  0.415383  0.496040  1
  O  O235  1  0.749239  0.787503  0.406392  1
  O  O236  1  0.748774  0.212345  0.496029  1
  O  O237  1  0.500129  0.092905  0.432747  1
  O  O238  1  0.500148  0.810498  0.436194  1
  O  O239  1  0.172595  0.749543  0.566418  1
  O  O240  1  0.134552  0.143634  0.588830  1
  O  O241  1  0.124529  0.951682  0.573753  1
  O  O242  1  0.172514  0.104476  0.562669  1
  O  O243  1  -0.000000  0.093000  0.572117  1
  O  O244  1  0.402731  0.840773  0.535733  1
  O  O245  1  0.096178  0.159221  0.505957  1
  O  O246  1  0.499692  0.666031  0.524970  1
  O  O247  1  0.401632  0.220277  0.532669  1
  O  O248  1  0.097292  0.780498  0.508986  1
  O  O249  1  0.092574  0.689676  0.544855  1
  O  O250  1  0.404141  0.522103  0.534045  1
  O  O251  1  0.096386  0.477208  0.507743  1
  O  O252  1  0.239661  0.187700  0.543148  1
  O  O253  1  0.259349  0.812721  0.498480  1
  O  O254  1  0.251030  0.186402  0.519027  1
  O  O255  1  0.248192  0.813262  0.522581  1
  O  O256  1  0.275556  0.372007  0.535555  1
  O  O257  1  0.222689  0.628097  0.505868  1
  O  O258  1  0.245623  0.584753  0.545698  1
  O  O259  1  0.250818  0.502657  0.520887  1
  O  O260  1  0.248768  0.787782  0.545703  1
  O  O261  1  0.259022  0.981780  0.542196  1
  O  O262  1  0.240136  0.018404  0.499398  1
  O  O263  1  0.093816  0.061766  0.540860  1
  O  O264  1  0.405344  0.938456  0.500881  1
  O  O265  1  0.000000  0.810565  0.575524  1
  O  O266  1  0.499630  0.845026  0.516040  1
  O  O267  1  -0.000000  0.755819  0.527860  1
  O  O268  1  0.499979  0.451646  0.514070  1
  O  O269  1  0.499475  0.056357  0.519428  1
  O  O270  1  0.827803  0.749325  0.566413  1
  O  O271  1  0.865768  0.143524  0.588854  1
  O  O272  1  0.875846  0.951515  0.573758  1
  O  O273  1  0.827546  0.104474  0.562734  1
  O  O274  1  -0.000000  0.155120  0.525704  1
  O  O275  1  0.902734  0.159395  0.506009  1
  O  O276  1  0.596180  0.840950  0.535786  1
  O  O277  1  -0.000000  0.334111  0.516770  1
  O  O278  1  0.901634  0.779858  0.509073  1
  O  O279  1  0.597297  0.219635  0.532756  1
  O  O280  1  0.907078  0.690536  0.544786  1
  O  O281  1  0.904131  0.478009  0.507690  1
  O  O282  1  0.596376  0.522903  0.533991  1
  O  O283  1  0.739675  0.812444  0.498593  1
  O  O284  1  0.759364  0.187427  0.543261  1
  O  O285  1  0.751022  0.813798  0.522713  1
  O  O286  1  0.748187  0.186938  0.519159  1
  O  O287  1  0.775542  0.628127  0.506189  1
  O  O288  1  0.722675  0.372038  0.535875  1
  O  O289  1  0.754935  0.584517  0.545665  1
  O  O290  1  0.750827  0.497436  0.520851  1
  O  O291  1  0.750148  0.787505  0.545777  1
  O  O292  1  0.759035  0.018396  0.499555  1
  O  O293  1  0.740149  0.981769  0.542353  1
  O  O294  1  0.593820  0.938386  0.500887  1
  O  O295  1  0.905353  0.061699  0.540867  1
  O  O296  1  0.500319  0.244319  0.513880  1
  O  O297  1  -0.000000  0.943793  0.522316  1
  O  O298  1  -0.000000  0.548479  0.527664  1
  O  O299  1  0.172434  0.250759  0.614683  1
  O  O300  1  0.134567  0.856693  0.592252  1
  O  O301  1  -0.000000  0.907254  0.608969  1
  O  O302  1  0.124510  0.048654  0.607329  1
  O  O303  1  0.172430  0.895639  0.618395  1
  O  O304  1  0.499915  0.154845  0.665059  1
  O  O305  1  0.403170  0.159159  0.645335  1
  O  O306  1  0.096619  0.840704  0.675112  1
  O  O307  1  0.402113  0.780366  0.648386  1
  O  O308  1  0.097775  0.220136  0.672069  1
  O  O309  1  -0.000000  0.244010  0.653218  1
  O  O310  1  0.499929  0.943665  0.661697  1
  O  O311  1  0.499950  0.548345  0.667080  1
  O  O312  1  0.092621  0.310201  0.636276  1
  O  O313  1  0.403746  0.477253  0.647151  1
  O  O314  1  0.095979  0.522133  0.673457  1
  O  O315  1  0.240039  0.812478  0.637888  1
  O  O316  1  0.259727  0.187457  0.682557  1
  O  O317  1  0.251304  0.813006  0.661993  1
  O  O318  1  0.248465  0.186148  0.658440  1
  O  O319  1  0.277008  0.627856  0.645277  1
  O  O320  1  0.224142  0.371760  0.674964  1
  O  O321  1  0.245387  0.415321  0.635438  1
  O  O322  1  0.249004  0.501989  0.660245  1
  O  O323  1  0.249069  0.212378  0.635366  1
  O  O324  1  0.259360  0.018167  0.638809  1
  O  O325  1  0.240474  0.981537  0.681607  1
  O  O326  1  0.094097  0.938313  0.640245  1
  O  O327  1  0.405630  0.061629  0.680225  1
  O  O328  1  0.499943  0.333850  0.656174  1
  O  O329  1  -0.000000  0.189626  0.605567  1
  O  O330  1  0.827737  0.250754  0.614688  1
  O  O331  1  0.865770  0.856583  0.592246  1
  O  O332  1  0.875767  0.048606  0.607343  1
  O  O333  1  0.827725  0.895522  0.618380  1
  O  O334  1  -0.000000  0.844737  0.655394  1
  O  O335  1  0.903152  0.840612  0.675103  1
  O  O336  1  0.596597  0.159064  0.645326  1
  O  O337  1  0.902040  0.220179  0.672051  1
  O  O338  1  0.597701  0.780411  0.648368  1
  O  O339  1  0.000000  0.056217  0.658810  1
  O  O340  1  0.907136  0.310094  0.636304  1
  O  O341  1  0.903846  0.522111  0.673451  1
  O  O342  1  0.596066  0.477226  0.647140  1
  O  O343  1  0.740105  0.187418  0.682530  1
  O  O344  1  0.759795  0.812446  0.637860  1
  O  O345  1  0.751395  0.186034  0.658410  1
  O  O346  1  0.748559  0.812899  0.661964  1
  O  O347  1  0.775604  0.371729  0.674931  1
  O  O348  1  0.722746  0.627831  0.645244  1
  O  O349  1  0.754489  0.415301  0.635428  1
  O  O350  1  0.750711  0.502140  0.660236  1
  O  O351  1  0.750613  0.212348  0.635342  1
  O  O352  1  0.759338  0.981466  0.681569  1
  O  O353  1  0.740453  0.018092  0.638769  1
  O  O354  1  0.594166  0.061668  0.680230  1
  O  O355  1  0.905697  0.938352  0.640250  1
  O  O356  1  -0.000000  0.451504  0.653489  1
  O  O357  1  -0.000000  0.665762  0.664376  1
  O  O358  1  0.500044  0.755525  0.667199  1
  O  O359  1  0.327816  0.250898  0.754016  1
  O  O360  1  0.327662  0.749401  0.705782  1
  O  O361  1  0.365779  0.143583  0.728178  1
  O  O362  1  0.365771  0.856741  0.731603  1
  O  O363  1  0.375857  0.048773  0.746680  1
  O  O364  1  0.375836  0.951545  0.713101  1
  O  O365  1  0.327526  0.895817  0.757715  1
  O  O366  1  0.327440  0.104294  0.702048  1
  O  O367  1  0.407128  0.690313  0.684182  1
  O  O368  1  0.407087  0.309549  0.775647  1
  O  O369  1  0.254967  0.415622  0.774770  1
  O  O370  1  0.254720  0.584455  0.685063  1
  O  O371  1  0.250144  0.212622  0.774653  1
  O  O372  1  0.250450  0.787531  0.685113  1
  O  O373  1  0.672513  0.749398  0.705789  1
  O  O374  1  0.672580  0.250676  0.754011  1
  O  O375  1  0.634555  0.856626  0.731626  1
  O  O376  1  0.634553  0.143470  0.728171  1
  O  O377  1  0.500208  0.189687  0.744898  1
  O  O378  1  0.624440  0.951501  0.713114  1
  O  O379  1  0.624521  0.048612  0.746685  1
  O  O380  1  0.672713  0.104178  0.702033  1
  O  O381  1  0.672536  0.895813  0.757779  1
  O  O382  1  0.500159  0.907339  0.748339  1
  O  O383  1  0.592569  0.310407  0.775578  1
  O  O384  1  0.592625  0.690213  0.684210  1
  O  O385  1  0.745142  0.584426  0.685054  1
  O  O386  1  0.745592  0.415383  0.774738  1
  O  O387  1  0.749239  0.787503  0.685090  1
  O  O388  1  0.748774  0.212345  0.774727  1
  O  O389  1  0.500129  0.092905  0.711445  1
  O  O390  1  0.500148  0.810498  0.714892  1
  O  O391  1  0.172595  0.749543  0.845116  1
  O  O392  1  0.172514  0.104476  0.841367  1
  O  O393  1  0.402731  0.840773  0.814432  1
  O  O394  1  0.096178  0.159221  0.784655  1
  O  O395  1  0.499692  0.666031  0.803668  1
  O  O396  1  0.401632  0.220277  0.811367  1
  O  O397  1  0.097292  0.780498  0.787684  1
  O  O398  1  0.092574  0.689676  0.823553  1
  O  O399  1  0.404141  0.522103  0.812743  1
  O  O400  1  0.096386  0.477208  0.786441  1
  O  O401  1  0.239661  0.187700  0.821847  1
  O  O402  1  0.259349  0.812721  0.777178  1
  O  O403  1  0.251030  0.186402  0.797726  1
  O  O404  1  0.248192  0.813262  0.801279  1
  O  O405  1  0.275556  0.372007  0.814253  1
  O  O406  1  0.222689  0.628097  0.784567  1
  O  O407  1  0.245623  0.584753  0.824396  1
  O  O408  1  0.250818  0.502657  0.799585  1
  O  O409  1  0.248768  0.787782  0.824401  1
  O  O410  1  0.259022  0.981780  0.820895  1
  O  O411  1  0.240136  0.018404  0.778096  1
  O  O412  1  0.093816  0.061766  0.819558  1
  O  O413  1  0.405344  0.938456  0.779579  1
  O  O414  1  0.499630  0.845026  0.794738  1
  O  O415  1  0.000000  0.755819  0.806558  1
  O  O416  1  0.499979  0.451646  0.792768  1
  O  O417  1  0.499475  0.056357  0.798126  1
  O  O418  1  0.827803  0.749325  0.845111  1
  O  O419  1  0.827546  0.104474  0.841432  1
  O  O420  1  0.000000  0.155120  0.804402  1
  O  O421  1  0.902734  0.159395  0.784707  1
  O  O422  1  0.596180  0.840950  0.814484  1
  O  O423  1  -0.000000  0.334111  0.795468  1
  O  O424  1  0.901634  0.779858  0.787771  1
  O  O425  1  0.597297  0.219635  0.811454  1
  O  O426  1  0.907078  0.690536  0.823484  1
  O  O427  1  0.904131  0.478009  0.786388  1
  O  O428  1  0.596376  0.522903  0.812689  1
  O  O429  1  0.739675  0.812444  0.777291  1
  O  O430  1  0.759364  0.187427  0.821959  1
  O  O431  1  0.751022  0.813798  0.801411  1
  O  O432  1  0.748187  0.186938  0.797857  1
  O  O433  1  0.775542  0.628127  0.784887  1
  O  O434  1  0.722675  0.372038  0.814573  1
  O  O435  1  0.754935  0.584517  0.824363  1
  O  O436  1  0.750827  0.497436  0.799550  1
  O  O437  1  0.750148  0.787505  0.824475  1
  O  O438  1  0.759035  0.018396  0.778253  1
  O  O439  1  0.740149  0.981769  0.821051  1
  O  O440  1  0.593820  0.938386  0.779585  1
  O  O441  1  0.905353  0.061699  0.819565  1
  O  O442  1  0.500319  0.244319  0.792579  1
  O  O443  1  -0.000000  0.943793  0.801014  1
  O  O444  1  0.000000  0.548479  0.806362  1
  Si  Si445  1  0.499908  0.058346  0.114747  1
  Si  Si446  1  0.499927  0.454387  0.096552  1
  Si  Si447  1  0.499910  0.202973  0.095297  1
  Si  Si448  1  0.194218  0.300017  0.072432  1
  Si  Si449  1  0.290290  0.756934  0.090580  1
  Si  Si450  1  0.209727  0.242977  0.115046  1
  Si  Si451  1  0.293459  0.506991  0.089423  1
  Si  Si452  1  0.206619  0.493063  0.116245  1
  Si  Si453  1  0.290498  0.142377  0.086977  1
  Si  Si454  1  0.209308  0.857295  0.118663  1
  Si  Si455  1  0.194453  0.912863  0.076059  1
  Si  Si456  1  0.499937  0.814732  0.098420  1
  Si  Si457  1  0.499941  0.670715  0.118403  1
  Si  Si458  1  -0.000000  0.941539  0.090952  1
  Si  Si459  1  0.790078  0.242942  0.115016  1
  Si  Si460  1  0.709518  0.756912  0.090552  1
  Si  Si461  1  0.793192  0.493060  0.116226  1
  Si  Si462  1  0.706342  0.506991  0.089403  1
  Si  Si463  1  0.790459  0.857199  0.118638  1
  Si  Si464  1  0.709267  0.142276  0.086952  1
  Si  Si465  1  0.805441  0.912823  0.076039  1
  Si  Si466  1  0.805653  0.299987  0.072430  1
  Si  Si467  1  -0.000000  0.796607  0.110369  1
  Si  Si468  1  -0.000000  0.329422  0.087299  1
  Si  Si469  1  -0.000000  0.545297  0.109240  1
  Si  Si470  1  -0.000000  0.185287  0.107248  1
  Si  Si471  1  0.305587  0.700030  0.133249  1
  Si  Si472  1  0.305675  0.300051  0.211759  1
  Si  Si473  1  0.388925  0.163725  0.185898  1
  Si  Si474  1  0.388873  0.836593  0.159092  1
  Si  Si475  1  0.388885  0.922614  0.188854  1
  Si  Si476  1  0.388828  0.077686  0.156129  1
  Si  Si477  1  0.305073  0.913099  0.215367  1
  Si  Si478  1  0.305191  0.086973  0.129593  1
  Si  Si479  1  0.611415  0.836579  0.159113  1
  Si  Si480  1  0.611467  0.163532  0.185893  1
  Si  Si481  1  0.611428  0.077607  0.156124  1
  Si  Si482  1  0.611481  0.922509  0.188882  1
  Si  Si483  1  0.694704  0.086933  0.129572  1
  Si  Si484  1  0.694354  0.912967  0.215451  1
  Si  Si485  1  0.694276  0.700015  0.133247  1
  Si  Si486  1  0.694286  0.300047  0.211761  1
  Si  Si487  1  0.499577  0.185361  0.246587  1
  Si  Si488  1  0.194301  0.700079  0.272575  1
  Si  Si489  1  0.499561  0.796893  0.249710  1
  Si  Si490  1  0.194334  0.087209  0.268902  1
  Si  Si491  1  0.111465  0.836714  0.298438  1
  Si  Si492  1  0.111485  0.077819  0.295476  1
  Si  Si493  1  0.289720  0.243182  0.254335  1
  Si  Si494  1  0.209155  0.757137  0.229870  1
  Si  Si495  1  0.293453  0.493304  0.255556  1
  Si  Si496  1  0.206618  0.507237  0.228735  1
  Si  Si497  1  0.290050  0.857483  0.257957  1
  Si  Si498  1  0.208860  0.142559  0.226271  1
  Si  Si499  1  0.499568  0.941675  0.230277  1
  Si  Si500  1  -0.000000  0.454602  0.235826  1
  Si  Si501  1  0.499987  0.329406  0.226617  1
  Si  Si502  1  0.000000  0.058472  0.254072  1
  Si  Si503  1  0.500070  0.545521  0.248512  1
  Si  Si504  1  -0.000000  0.203253  0.234638  1
  Si  Si505  1  -0.000000  0.814794  0.237759  1
  Si  Si506  1  0.888924  0.836524  0.298435  1
  Si  Si507  1  0.888879  0.077701  0.295502  1
  Si  Si508  1  0.789719  0.756954  0.230011  1
  Si  Si509  1  0.709155  0.243003  0.254475  1
  Si  Si510  1  0.793442  0.506817  0.228786  1
  Si  Si511  1  0.706608  0.492888  0.255607  1
  Si  Si512  1  0.790054  0.142707  0.226387  1
  Si  Si513  1  0.708862  0.857629  0.258073  1
  Si  Si514  1  0.805100  0.087075  0.268987  1
  Si  Si515  1  0.805653  0.700068  0.272577  1
  Si  Si516  1  0.000000  0.670703  0.257723  1
  Si  Si517  1  0.499908  0.058346  0.393445  1
  Si  Si518  1  0.499927  0.454387  0.375250  1
  Si  Si519  1  0.499910  0.202973  0.373995  1
  Si  Si520  1  0.194218  0.300017  0.351130  1
  Si  Si521  1  0.111415  0.163621  0.325249  1
  Si  Si522  1  0.111427  0.922507  0.328205  1
  Si  Si523  1  0.290290  0.756934  0.369278  1
  Si  Si524  1  0.209727  0.242977  0.393744  1
  Si  Si525  1  0.293459  0.506991  0.368121  1
  Si  Si526  1  0.206619  0.493063  0.394943  1
  Si  Si527  1  0.290498  0.142377  0.365675  1
  Si  Si528  1  0.209308  0.857295  0.397361  1
  Si  Si529  1  0.194453  0.912863  0.354757  1
  Si  Si530  1  0.499937  0.814732  0.377118  1
  Si  Si531  1  0.499941  0.670715  0.397101  1
  Si  Si532  1  -0.000000  0.941539  0.369650  1
  Si  Si533  1  0.888877  0.163610  0.325272  1
  Si  Si534  1  0.888831  0.922414  0.328198  1
  Si  Si535  1  0.790078  0.242942  0.393714  1
  Si  Si536  1  0.709518  0.756912  0.369250  1
  Si  Si537  1  0.793192  0.493060  0.394924  1
  Si  Si538  1  0.706342  0.506991  0.368102  1
  Si  Si539  1  0.790459  0.857199  0.397336  1
  Si  Si540  1  0.709267  0.142276  0.365650  1
  Si  Si541  1  0.805441  0.912823  0.354737  1
  Si  Si542  1  0.805653  0.299987  0.351128  1
  Si  Si543  1  0.000000  0.796607  0.389067  1
  Si  Si544  1  -0.000000  0.329422  0.365997  1
  Si  Si545  1  -0.000000  0.545297  0.387938  1
  Si  Si546  1  -0.000000  0.185287  0.385946  1
  Si  Si547  1  0.305587  0.700030  0.411947  1
  Si  Si548  1  0.305675  0.300051  0.490457  1
  Si  Si549  1  0.388925  0.163725  0.464597  1
  Si  Si550  1  0.388873  0.836593  0.437790  1
  Si  Si551  1  0.388885  0.922614  0.467552  1
  Si  Si552  1  0.388828  0.077686  0.434827  1
  Si  Si553  1  0.305073  0.913099  0.494065  1
  Si  Si554  1  0.305191  0.086973  0.408291  1
  Si  Si555  1  0.611415  0.836579  0.437811  1
  Si  Si556  1  0.611467  0.163532  0.464591  1
  Si  Si557  1  0.611428  0.077607  0.434822  1
  Si  Si558  1  0.611481  0.922509  0.467580  1
  Si  Si559  1  0.694704  0.086933  0.408271  1
  Si  Si560  1  0.694354  0.912967  0.494149  1
  Si  Si561  1  0.694276  0.700015  0.411945  1
  Si  Si562  1  0.694286  0.300047  0.490459  1
  Si  Si563  1  0.499577  0.185361  0.525285  1
  Si  Si564  1  0.194301  0.700079  0.551273  1
  Si  Si565  1  0.499561  0.796893  0.528408  1
  Si  Si566  1  0.194334  0.087209  0.547600  1
  Si  Si567  1  0.111465  0.836714  0.577136  1
  Si  Si568  1  0.111485  0.077819  0.574175  1
  Si  Si569  1  0.289720  0.243182  0.533033  1
  Si  Si570  1  0.209155  0.757137  0.508568  1
  Si  Si571  1  0.293453  0.493304  0.534254  1
  Si  Si572  1  0.206618  0.507237  0.507433  1
  Si  Si573  1  0.290050  0.857483  0.536655  1
  Si  Si574  1  0.208860  0.142559  0.504969  1
  Si  Si575  1  0.499568  0.941675  0.508975  1
  Si  Si576  1  -0.000000  0.454602  0.514524  1
  Si  Si577  1  0.499987  0.329406  0.505315  1
  Si  Si578  1  -0.000000  0.058472  0.532770  1
  Si  Si579  1  0.500070  0.545521  0.527210  1
  Si  Si580  1  0.000000  0.203253  0.513336  1
  Si  Si581  1  0.000000  0.814794  0.516457  1
  Si  Si582  1  0.888924  0.836524  0.577133  1
  Si  Si583  1  0.888879  0.077701  0.574200  1
  Si  Si584  1  0.789719  0.756954  0.508709  1
  Si  Si585  1  0.709155  0.243003  0.533173  1
  Si  Si586  1  0.793442  0.506817  0.507484  1
  Si  Si587  1  0.706608  0.492888  0.534305  1
  Si  Si588  1  0.790054  0.142707  0.505086  1
  Si  Si589  1  0.708862  0.857629  0.536772  1
  Si  Si590  1  0.805100  0.087075  0.547685  1
  Si  Si591  1  0.805653  0.700068  0.551275  1
  Si  Si592  1  0.000000  0.670703  0.536421  1
  Si  Si593  1  0.499908  0.058346  0.672143  1
  Si  Si594  1  0.499927  0.454387  0.653948  1
  Si  Si595  1  0.499910  0.202973  0.652693  1
  Si  Si596  1  0.194218  0.300017  0.629829  1
  Si  Si597  1  0.111415  0.163621  0.603948  1
  Si  Si598  1  0.111427  0.922507  0.606903  1
  Si  Si599  1  0.290290  0.756934  0.647977  1
  Si  Si600  1  0.209727  0.242977  0.672442  1
  Si  Si601  1  0.293459  0.506991  0.646819  1
  Si  Si602  1  0.206619  0.493063  0.673641  1
  Si  Si603  1  0.290498  0.142377  0.644374  1
  Si  Si604  1  0.209308  0.857295  0.676059  1
  Si  Si605  1  0.194453  0.912863  0.633456  1
  Si  Si606  1  0.499937  0.814732  0.655816  1
  Si  Si607  1  0.499941  0.670715  0.675799  1
  Si  Si608  1  -0.000000  0.941539  0.648348  1
  Si  Si609  1  0.888877  0.163610  0.603970  1
  Si  Si610  1  0.888831  0.922414  0.606896  1
  Si  Si611  1  0.790078  0.242942  0.672413  1
  Si  Si612  1  0.709518  0.756912  0.647948  1
  Si  Si613  1  0.793192  0.493060  0.673622  1
  Si  Si614  1  0.706342  0.506991  0.646800  1
  Si  Si615  1  0.790459  0.857199  0.676034  1
  Si  Si616  1  0.709267  0.142276  0.644348  1
  Si  Si617  1  0.805441  0.912823  0.633435  1
  Si  Si618  1  0.805653  0.299987  0.629826  1
  Si  Si619  1  -0.000000  0.796607  0.667765  1
  Si  Si620  1  -0.000000  0.329422  0.644695  1
  Si  Si621  1  0.000000  0.545297  0.666636  1
  Si  Si622  1  0.000000  0.185287  0.664644  1
  Si  Si623  1  0.305587  0.700030  0.690645  1
  Si  Si624  1  0.305675  0.300051  0.769155  1
  Si  Si625  1  0.388925  0.163725  0.743295  1
  Si  Si626  1  0.388873  0.836593  0.716488  1
  Si  Si627  1  0.388885  0.922614  0.746250  1
  Si  Si628  1  0.388828  0.077686  0.713525  1
  Si  Si629  1  0.305073  0.913099  0.772763  1
  Si  Si630  1  0.305191  0.086973  0.686990  1
  Si  Si631  1  0.611415  0.836579  0.716509  1
  Si  Si632  1  0.611467  0.163532  0.743289  1
  Si  Si633  1  0.611428  0.077607  0.713521  1
  Si  Si634  1  0.611481  0.922509  0.746278  1
  Si  Si635  1  0.694704  0.086933  0.686969  1
  Si  Si636  1  0.694354  0.912967  0.772847  1
  Si  Si637  1  0.694276  0.700015  0.690643  1
  Si  Si638  1  0.694286  0.300047  0.769157  1
  Si  Si639  1  0.499577  0.185361  0.803983  1
  Si  Si640  1  0.194301  0.700079  0.829971  1
  Si  Si641  1  0.499561  0.796893  0.807106  1
  Si  Si642  1  0.194334  0.087209  0.826298  1
  Si  Si643  1  0.289720  0.243182  0.811731  1
  Si  Si644  1  0.209155  0.757137  0.787267  1
  Si  Si645  1  0.293453  0.493304  0.812952  1
  Si  Si646  1  0.206618  0.507237  0.786131  1
  Si  Si647  1  0.290050  0.857483  0.815353  1
  Si  Si648  1  0.208860  0.142559  0.783667  1
  Si  Si649  1  0.499568  0.941675  0.787673  1
  Si  Si650  1  0.000000  0.454602  0.793223  1
  Si  Si651  1  0.499987  0.329406  0.784013  1
  Si  Si652  1  0.000000  0.058472  0.811468  1
  Si  Si653  1  0.500070  0.545521  0.805908  1
  Si  Si654  1  0.000000  0.203253  0.792034  1
  Si  Si655  1  -0.000000  0.814794  0.795155  1
  Si  Si656  1  0.789719  0.756954  0.787407  1
  Si  Si657  1  0.709155  0.243003  0.811871  1
  Si  Si658  1  0.793442  0.506817  0.786182  1
  Si  Si659  1  0.706608  0.492888  0.813003  1
  Si  Si660  1  0.790054  0.142707  0.783784  1
  Si  Si661  1  0.708862  0.857629  0.815470  1
  Si  Si662  1  0.805100  0.087075  0.826383  1
  Si  Si663  1  0.805653  0.700068  0.829973  1
  Si  Si664  1  -0.000000  0.670703  0.815119  1
  H  H665  1  0.172434  0.250759  0.048799  1
  H  H666  1  0.172430  0.895639  0.052511  1
  H  H667  1  0.827737  0.250754  0.048804  1
  H  H668  1  0.827725  0.895522  0.052496  1
  H  H669  1  0.172595  0.749543  0.853604  1
  H  H670  1  0.172514  0.104476  0.849855  1
  H  H671  1  0.827803  0.749325  0.853599  1
  H  H672  1  0.827546  0.104474  0.849920  1
