# generated using pymatgen
data_Si28H2O57
_symmetry_space_group_name_H-M   'P 1'
_cell_length_a   12.70128613
_cell_length_b   11.41729918
_cell_length_c   66.33471006
_cell_angle_alpha   90.00000000
_cell_angle_beta   90.00000000
_cell_angle_gamma   90.00000000
_symmetry_Int_Tables_number   1
_chemical_formula_structural   Si28H2O57
_chemical_formula_sum   'Si112 H8 O228'
_cell_volume   9619.48709889
_cell_formula_units_Z   4
loop_
 _symmetry_equiv_pos_site_id
 _symmetry_equiv_pos_as_xyz
  1  'x, y, z'
loop_
 _atom_site_type_symbol
 _atom_site_label
 _atom_site_symmetry_multiplicity
 _atom_site_fract_x
 _atom_site_fract_y
 _atom_site_fract_z
 _atom_site_occupancy
  O  O1  1  0.175262  0.289560  0.088944  1
  O  O2  1  0.175283  0.710517  0.088946  1
  O  O3  1  0.360303  0.347617  0.155749  1
  O  O4  1  0.360323  0.652553  0.155752  1
  O  O5  1  0.298452  0.290089  0.119965  1
  O  O6  1  0.298470  0.710100  0.119968  1
  O  O7  1  0.360262  0.500094  0.128656  1
  O  O8  1  0.499820  0.658456  0.128511  1
  O  O9  1  0.169332  0.114381  0.114779  1
  O  O10  1  0.169296  0.885745  0.114771  1
  O  O11  1  0.101583  0.312204  0.123977  1
  O  O12  1  0.101605  0.687911  0.123978  1
  O  O13  1  0.137645  0.000000  0.147579  1
  O  O14  1  0.499800  0.341713  0.128507  1
  O  O15  1  -0.000000  0.342789  0.156581  1
  O  O16  1  0.824399  0.710513  0.088946  1
  O  O17  1  0.824392  0.289578  0.088943  1
  O  O18  1  0.639292  0.652544  0.155757  1
  O  O19  1  0.639273  0.347578  0.155753  1
  O  O20  1  0.701172  0.710043  0.119968  1
  O  O21  1  0.701149  0.290103  0.119963  1
  O  O22  1  0.639352  0.500073  0.128663  1
  O  O23  1  0.830258  0.885744  0.114773  1
  O  O24  1  0.830230  0.114387  0.114776  1
  O  O25  1  0.898039  0.687960  0.123983  1
  O  O26  1  0.898016  0.312180  0.123981  1
  O  O27  1  0.000000  0.000000  0.120590  1
  O  O28  1  0.861882  0.000000  0.147582  1
  O  O29  1  -0.000000  0.657344  0.156582  1
  O  O30  1  -0.000000  0.500064  0.129835  1
  O  O31  1  0.298924  0.283179  0.190486  1
  O  O32  1  0.299137  0.716987  0.282842  1
  O  O33  1  0.298949  0.716969  0.190492  1
  O  O34  1  0.299158  0.283202  0.282833  1
  O  O35  1  0.499974  0.657749  0.290367  1
  O  O36  1  0.358559  0.500074  0.182887  1
  O  O37  1  0.358768  0.500090  0.290446  1
  O  O38  1  0.100920  0.308995  0.188937  1
  O  O39  1  0.101161  0.691150  0.284426  1
  O  O40  1  0.100952  0.691130  0.188937  1
  O  O41  1  0.101188  0.309095  0.284413  1
  O  O42  1  0.171655  0.111701  0.180720  1
  O  O43  1  0.171898  0.888495  0.292608  1
  O  O44  1  0.171673  0.888444  0.180728  1
  O  O45  1  0.171885  0.111749  0.292609  1
  O  O46  1  0.172829  0.184543  0.216971  1
  O  O47  1  0.172868  0.815487  0.256364  1
  O  O48  1  0.172823  0.815564  0.216977  1
  O  O49  1  0.172877  0.184669  0.256359  1
  O  O50  1  0.133117  0.000000  0.236685  1
  O  O51  1  0.499793  0.657708  0.182975  1
  O  O52  1  0.499771  0.342415  0.182971  1
  O  O53  1  0.499997  0.342456  0.290359  1
  O  O54  1  -0.000000  0.000000  0.298232  1
  O  O55  1  0.700850  0.283230  0.282844  1
  O  O56  1  0.700635  0.716937  0.190501  1
  O  O57  1  0.700817  0.717018  0.282853  1
  O  O58  1  0.700609  0.283155  0.190497  1
  O  O59  1  0.641209  0.500116  0.290451  1
  O  O60  1  0.641001  0.500050  0.182891  1
  O  O61  1  0.898852  0.309048  0.284395  1
  O  O62  1  0.898612  0.691100  0.188920  1
  O  O63  1  0.898818  0.691179  0.284403  1
  O  O64  1  0.898579  0.309050  0.188917  1
  O  O65  1  0.828114  0.111757  0.292616  1
  O  O66  1  0.827872  0.888436  0.180731  1
  O  O67  1  0.828099  0.888498  0.292610  1
  O  O68  1  0.827885  0.111691  0.180729  1
  O  O69  1  0.826953  0.184571  0.256363  1
  O  O70  1  0.826898  0.815474  0.216977  1
  O  O71  1  0.826929  0.815597  0.256364  1
  O  O72  1  0.826893  0.184667  0.216975  1
  O  O73  1  0.000000  0.000000  0.175105  1
  O  O74  1  -0.000000  0.500069  0.183244  1
  O  O75  1  0.866652  0.000000  0.236651  1
  O  O76  1  -0.000000  0.159748  0.236666  1
  O  O77  1  0.000000  0.840395  0.236671  1
  O  O78  1  -0.000000  0.500116  0.290093  1
  O  O79  1  0.141903  0.500068  0.398151  1
  O  O80  1  0.175345  0.710543  0.384395  1
  O  O81  1  0.175363  0.289614  0.384390  1
  O  O82  1  0.360465  0.652551  0.317585  1
  O  O83  1  0.360488  0.347586  0.317578  1
  O  O84  1  0.298579  0.710014  0.353375  1
  O  O85  1  0.298599  0.290078  0.353368  1
  O  O86  1  0.360398  0.500048  0.344673  1
  O  O87  1  0.169518  0.885746  0.358562  1
  O  O88  1  0.169498  0.114393  0.358565  1
  O  O89  1  0.101708  0.687964  0.349358  1
  O  O90  1  0.101733  0.312184  0.349352  1
  O  O91  1  0.137878  0.000000  0.325757  1
  O  O92  1  0.499929  0.658431  0.344831  1
  O  O93  1  0.499951  0.341687  0.344824  1
  O  O94  1  0.857900  0.500067  0.398149  1
  O  O95  1  0.824481  0.289599  0.384388  1
  O  O96  1  0.824472  0.710559  0.384396  1
  O  O97  1  -0.000000  0.342816  0.316751  1
  O  O98  1  0.639455  0.347627  0.317583  1
  O  O99  1  0.639436  0.652563  0.317591  1
  O  O100  1  0.701301  0.290063  0.353366  1
  O  O101  1  0.701274  0.710075  0.353376  1
  O  O102  1  0.639488  0.500071  0.344682  1
  O  O103  1  0.830447  0.114387  0.358562  1
  O  O104  1  0.830429  0.885753  0.358562  1
  O  O105  1  0.898169  0.312206  0.349354  1
  O  O106  1  0.898139  0.687913  0.349364  1
  O  O107  1  0.862117  0.000000  0.325757  1
  O  O108  1  0.000000  0.657370  0.316759  1
  O  O109  1  -0.000000  0.500070  0.343502  1
  O  O110  1  -0.000000  0.348282  0.399130  1
  O  O111  1  -0.000000  0.651850  0.399134  1
  O  O112  1  0.000000  0.000000  0.352747  1
  O  O113  1  0.141845  0.500038  0.451099  1
  O  O114  1  0.175262  0.289560  0.464855  1
  O  O115  1  0.175283  0.710517  0.464856  1
  O  O116  1  0.360303  0.347617  0.531659  1
  O  O117  1  0.360323  0.652553  0.531663  1
  O  O118  1  0.298452  0.290089  0.495875  1
  O  O119  1  0.298470  0.710100  0.495879  1
  O  O120  1  0.360262  0.500094  0.504566  1
  O  O121  1  0.146641  0.660674  0.424627  1
  O  O122  1  0.499820  0.658456  0.504422  1
  O  O123  1  0.169332  0.114381  0.490690  1
  O  O124  1  0.169296  0.885745  0.490681  1
  O  O125  1  0.101583  0.312204  0.499888  1
  O  O126  1  0.101605  0.687911  0.499889  1
  O  O127  1  0.137645  0.000000  0.523490  1
  O  O128  1  0.499800  0.341713  0.504418  1
  O  O129  1  0.146641  0.339431  0.424623  1
  O  O130  1  -0.000000  0.342789  0.532492  1
  O  O131  1  0.857841  0.500042  0.451098  1
  O  O132  1  0.824399  0.710513  0.464857  1
  O  O133  1  0.824392  0.289578  0.464854  1
  O  O134  1  0.639292  0.652544  0.531668  1
  O  O135  1  0.639273  0.347578  0.531664  1
  O  O136  1  0.701172  0.710043  0.495878  1
  O  O137  1  0.701149  0.290103  0.495874  1
  O  O138  1  0.639352  0.500073  0.504574  1
  O  O139  1  0.830258  0.885744  0.490684  1
  O  O140  1  0.830230  0.114387  0.490687  1
  O  O141  1  0.898039  0.687960  0.499894  1
  O  O142  1  0.898016  0.312180  0.499892  1
  O  O143  1  0.000000  0.000000  0.496501  1
  O  O144  1  0.861882  0.000000  0.523492  1
  O  O145  1  -0.000000  0.657344  0.532493  1
  O  O146  1  0.000000  0.500064  0.505746  1
  O  O147  1  0.853104  0.660675  0.424625  1
  O  O148  1  0.000000  0.348257  0.450114  1
  O  O149  1  -0.000000  0.651823  0.450118  1
  O  O150  1  0.853103  0.339433  0.424620  1
  O  O151  1  0.298924  0.283179  0.566397  1
  O  O152  1  0.299137  0.716987  0.658753  1
  O  O153  1  0.298949  0.716969  0.566403  1
  O  O154  1  0.299158  0.283202  0.658744  1
  O  O155  1  0.499974  0.657749  0.666278  1
  O  O156  1  0.358559  0.500074  0.558798  1
  O  O157  1  0.358768  0.500090  0.666357  1
  O  O158  1  0.100920  0.308995  0.564848  1
  O  O159  1  0.101161  0.691150  0.660337  1
  O  O160  1  0.100952  0.691130  0.564848  1
  O  O161  1  0.101188  0.309095  0.660324  1
  O  O162  1  0.171655  0.111701  0.556631  1
  O  O163  1  0.171898  0.888495  0.668519  1
  O  O164  1  0.171673  0.888444  0.556639  1
  O  O165  1  0.171885  0.111749  0.668520  1
  O  O166  1  0.172829  0.184543  0.592882  1
  O  O167  1  0.172868  0.815487  0.632275  1
  O  O168  1  0.172823  0.815564  0.592888  1
  O  O169  1  0.172877  0.184669  0.632270  1
  O  O170  1  0.133117  0.000000  0.612596  1
  O  O171  1  0.499793  0.657708  0.558886  1
  O  O172  1  0.499771  0.342415  0.558882  1
  O  O173  1  0.499997  0.342456  0.666270  1
  O  O174  1  -0.000000  0.000000  0.674143  1
  O  O175  1  0.700850  0.283230  0.658755  1
  O  O176  1  0.700635  0.716937  0.566412  1
  O  O177  1  0.700817  0.717018  0.658764  1
  O  O178  1  0.700609  0.283155  0.566408  1
  O  O179  1  0.641209  0.500116  0.666361  1
  O  O180  1  0.641001  0.500050  0.558801  1
  O  O181  1  0.898852  0.309048  0.660306  1
  O  O182  1  0.898612  0.691100  0.564831  1
  O  O183  1  0.898818  0.691179  0.660314  1
  O  O184  1  0.898579  0.309050  0.564828  1
  O  O185  1  0.828114  0.111757  0.668526  1
  O  O186  1  0.827872  0.888436  0.556641  1
  O  O187  1  0.828099  0.888498  0.668521  1
  O  O188  1  0.827885  0.111691  0.556640  1
  O  O189  1  0.826953  0.184571  0.632274  1
  O  O190  1  0.826898  0.815474  0.592887  1
  O  O191  1  0.826929  0.815597  0.632275  1
  O  O192  1  0.826893  0.184667  0.592886  1
  O  O193  1  -0.000000  0.000000  0.551016  1
  O  O194  1  -0.000000  0.500069  0.559155  1
  O  O195  1  0.866652  0.000000  0.612562  1
  O  O196  1  -0.000000  0.159748  0.612577  1
  O  O197  1  -0.000000  0.840395  0.612582  1
  O  O198  1  -0.000000  0.500116  0.666004  1
  O  O199  1  0.175345  0.710543  0.760306  1
  O  O200  1  0.175363  0.289614  0.760301  1
  O  O201  1  0.360465  0.652551  0.693495  1
  O  O202  1  0.360488  0.347586  0.693489  1
  O  O203  1  0.298579  0.710014  0.729286  1
  O  O204  1  0.298599  0.290078  0.729279  1
  O  O205  1  0.360398  0.500048  0.720584  1
  O  O206  1  0.169518  0.885746  0.734473  1
  O  O207  1  0.169498  0.114393  0.734476  1
  O  O208  1  0.101708  0.687964  0.725269  1
  O  O209  1  0.101733  0.312184  0.725263  1
  O  O210  1  0.137878  0.000000  0.701667  1
  O  O211  1  0.499929  0.658431  0.720742  1
  O  O212  1  0.499951  0.341687  0.720735  1
  O  O213  1  0.824481  0.289599  0.760299  1
  O  O214  1  0.824472  0.710559  0.760306  1
  O  O215  1  0.000000  0.342816  0.692662  1
  O  O216  1  0.639455  0.347627  0.693494  1
  O  O217  1  0.639436  0.652563  0.693501  1
  O  O218  1  0.701301  0.290063  0.729277  1
  O  O219  1  0.701274  0.710075  0.729287  1
  O  O220  1  0.639488  0.500071  0.720593  1
  O  O221  1  0.830447  0.114387  0.734473  1
  O  O222  1  0.830429  0.885753  0.734473  1
  O  O223  1  0.898169  0.312206  0.725265  1
  O  O224  1  0.898139  0.687913  0.725275  1
  O  O225  1  0.862117  0.000000  0.701668  1
  O  O226  1  -0.000000  0.657370  0.692670  1
  O  O227  1  -0.000000  0.500070  0.719413  1
  O  O228  1  0.000000  0.000000  0.728658  1
  Si  Si229  1  0.121647  0.000000  0.170952  1
  Si  Si230  1  0.189041  0.751452  0.111540  1
  Si  Si231  1  0.121515  -0.000000  0.124183  1
  Si  Si232  1  0.378782  0.365173  0.132497  1
  Si  Si233  1  0.378799  0.635010  0.132500  1
  Si  Si234  1  0.189034  0.248676  0.111542  1
  Si  Si235  1  -0.000000  0.635225  0.133344  1
  Si  Si236  1  -0.000000  0.364901  0.133342  1
  Si  Si237  1  0.877883  0.000000  0.170955  1
  Si  Si238  1  0.620835  0.634992  0.132504  1
  Si  Si239  1  0.620818  0.365154  0.132501  1
  Si  Si240  1  0.810588  0.751436  0.111540  1
  Si  Si241  1  0.810568  0.248691  0.111539  1
  Si  Si242  1  0.878026  0.000000  0.124185  1
  Si  Si243  1  0.121599  0.135830  0.236672  1
  Si  Si244  1  0.121592  0.864306  0.236675  1
  Si  Si245  1  0.378716  0.365140  0.179026  1
  Si  Si246  1  0.378915  0.635024  0.294308  1
  Si  Si247  1  0.378734  0.635008  0.179030  1
  Si  Si248  1  0.378934  0.365154  0.294302  1
  Si  Si249  1  0.190343  0.220990  0.194520  1
  Si  Si250  1  0.190533  0.779157  0.278817  1
  Si  Si251  1  0.190360  0.779143  0.194525  1
  Si  Si252  1  0.190543  0.221048  0.278809  1
  Si  Si253  1  0.000000  0.635181  0.293488  1
  Si  Si254  1  0.000000  0.635137  0.179853  1
  Si  Si255  1  0.878170  0.864315  0.236665  1
  Si  Si256  1  0.878177  0.135839  0.236663  1
  Si  Si257  1  0.621052  0.365178  0.294306  1
  Si  Si258  1  0.620852  0.634988  0.179033  1
  Si  Si259  1  0.621033  0.635045  0.294313  1
  Si  Si260  1  0.620834  0.365118  0.179030  1
  Si  Si261  1  0.809431  0.221036  0.278813  1
  Si  Si262  1  0.809236  0.779113  0.194526  1
  Si  Si263  1  0.809404  0.779188  0.278816  1
  Si  Si264  1  0.809224  0.221011  0.194524  1
  Si  Si265  1  -0.000000  0.365001  0.179852  1
  Si  Si266  1  -0.000000  0.365045  0.293481  1
  Si  Si267  1  0.189178  0.248699  0.361796  1
  Si  Si268  1  0.121885  0.000000  0.302384  1
  Si  Si269  1  0.121729  0.000000  0.349153  1
  Si  Si270  1  0.121822  0.635155  0.401529  1
  Si  Si271  1  0.121826  0.364978  0.401526  1
  Si  Si272  1  0.378915  0.634972  0.340837  1
  Si  Si273  1  0.378933  0.365134  0.340831  1
  Si  Si274  1  0.189167  0.751439  0.361799  1
  Si  Si275  1  0.878121  -0.000000  0.302385  1
  Si  Si276  1  0.878240  0.000000  0.349154  1
  Si  Si277  1  0.877982  0.364978  0.401525  1
  Si  Si278  1  0.877977  0.635154  0.401529  1
  Si  Si279  1  0.620969  0.365154  0.340835  1
  Si  Si280  1  0.620951  0.634991  0.340842  1
  Si  Si281  1  0.810724  0.248684  0.361792  1
  Si  Si282  1  0.810701  0.751463  0.361800  1
  Si  Si283  1  -0.000000  0.635235  0.339997  1
  Si  Si284  1  -0.000000  0.364911  0.339991  1
  Si  Si285  1  0.121647  0.000000  0.546863  1
  Si  Si286  1  0.189041  0.751452  0.487451  1
  Si  Si287  1  0.121515  0.000000  0.500094  1
  Si  Si288  1  0.121763  0.364952  0.447719  1
  Si  Si289  1  0.121769  0.635127  0.447722  1
  Si  Si290  1  0.378782  0.365173  0.508408  1
  Si  Si291  1  0.378799  0.635010  0.508411  1
  Si  Si292  1  0.189034  0.248676  0.487452  1
  Si  Si293  1  0.000000  0.635225  0.509254  1
  Si  Si294  1  -0.000000  0.364901  0.509253  1
  Si  Si295  1  0.877883  -0.000000  0.546865  1
  Si  Si296  1  0.877924  0.635132  0.447723  1
  Si  Si297  1  0.877919  0.364955  0.447719  1
  Si  Si298  1  0.620835  0.634992  0.508415  1
  Si  Si299  1  0.620818  0.365154  0.508412  1
  Si  Si300  1  0.810588  0.751436  0.487451  1
  Si  Si301  1  0.810568  0.248691  0.487450  1
  Si  Si302  1  0.878026  0.000000  0.500096  1
  Si  Si303  1  0.121599  0.135830  0.612583  1
  Si  Si304  1  0.121592  0.864306  0.612586  1
  Si  Si305  1  0.378716  0.365140  0.554937  1
  Si  Si306  1  0.378915  0.635024  0.670219  1
  Si  Si307  1  0.378734  0.635008  0.554940  1
  Si  Si308  1  0.378934  0.365154  0.670213  1
  Si  Si309  1  0.190343  0.220990  0.570431  1
  Si  Si310  1  0.190533  0.779157  0.654727  1
  Si  Si311  1  0.190360  0.779143  0.570436  1
  Si  Si312  1  0.190543  0.221048  0.654720  1
  Si  Si313  1  -0.000000  0.635181  0.669399  1
  Si  Si314  1  -0.000000  0.635137  0.555764  1
  Si  Si315  1  0.878170  0.864315  0.612575  1
  Si  Si316  1  0.878177  0.135839  0.612574  1
  Si  Si317  1  0.621052  0.365178  0.670217  1
  Si  Si318  1  0.620852  0.634988  0.554944  1
  Si  Si319  1  0.621033  0.635045  0.670224  1
  Si  Si320  1  0.620834  0.365118  0.554941  1
  Si  Si321  1  0.809431  0.221036  0.654724  1
  Si  Si322  1  0.809236  0.779113  0.570437  1
  Si  Si323  1  0.809404  0.779188  0.654727  1
  Si  Si324  1  0.809224  0.221011  0.570435  1
  Si  Si325  1  0.000000  0.365001  0.555762  1
  Si  Si326  1  -0.000000  0.365045  0.669392  1
  Si  Si327  1  0.189178  0.248699  0.737707  1
  Si  Si328  1  0.121885  0.000000  0.678294  1
  Si  Si329  1  0.121729  0.000000  0.725064  1
  Si  Si330  1  0.378915  0.634972  0.716748  1
  Si  Si331  1  0.378933  0.365134  0.716742  1
  Si  Si332  1  0.189167  0.751439  0.737710  1
  Si  Si333  1  0.878121  0.000000  0.678296  1
  Si  Si334  1  0.878240  0.000000  0.725065  1
  Si  Si335  1  0.620969  0.365154  0.716746  1
  Si  Si336  1  0.620951  0.634991  0.716753  1
  Si  Si337  1  0.810724  0.248684  0.737703  1
  Si  Si338  1  0.810701  0.751463  0.737710  1
  Si  Si339  1  0.000000  0.635235  0.715908  1
  Si  Si340  1  0.000000  0.364911  0.715902  1
  H  H341  1  0.175262  0.289560  0.075377  1
  H  H342  1  0.175283  0.710517  0.075378  1
  H  H343  1  0.824399  0.710513  0.075379  1
  H  H344  1  0.824392  0.289578  0.075375  1
  H  H345  1  0.175345  0.710543  0.773873  1
  H  H346  1  0.175363  0.289614  0.773869  1
  H  H347  1  0.824481  0.289599  0.773867  1
  H  H348  1  0.824472  0.710559  0.773874  1
