# generated using pymatgen
data_Si29H2O59
_symmetry_space_group_name_H-M   'P 1'
_cell_length_a   12.70128613
_cell_length_b   11.41729918
_cell_length_c   69.05948479
_cell_angle_alpha   90.00000000
_cell_angle_beta   90.00000000
_cell_angle_gamma   90.00000000
_symmetry_Int_Tables_number   1
_chemical_formula_structural   Si29H2O59
_chemical_formula_sum   'Si116 H8 O236'
_cell_volume   10014.6186273
_cell_formula_units_Z   4
loop_
 _symmetry_equiv_pos_site_id
 _symmetry_equiv_pos_as_xyz
  1  'x, y, z'
loop_
 _atom_site_type_symbol
 _atom_site_label
 _atom_site_symmetry_multiplicity
 _atom_site_fract_x
 _atom_site_fract_y
 _atom_site_fract_z
 _atom_site_occupancy
  O  O1  1  0.299137  0.716987  0.110872  1
  O  O2  1  0.299158  0.283202  0.110863  1
  O  O3  1  0.499974  0.657749  0.118100  1
  O  O4  1  0.358768  0.500090  0.118176  1
  O  O5  1  0.101161  0.691150  0.112393  1
  O  O6  1  0.101188  0.309095  0.112381  1
  O  O7  1  0.171898  0.888495  0.120252  1
  O  O8  1  0.171885  0.111749  0.120253  1
  O  O9  1  0.172868  0.815487  0.085439  1
  O  O10  1  0.172877  0.184669  0.085434  1
  O  O11  1  0.499997  0.342456  0.118092  1
  O  O12  1  0.000000  0.000000  0.125655  1
  O  O13  1  0.700850  0.283230  0.110874  1
  O  O14  1  0.700817  0.717018  0.110882  1
  O  O15  1  0.641209  0.500116  0.118180  1
  O  O16  1  0.898852  0.309048  0.112363  1
  O  O17  1  0.898818  0.691179  0.112372  1
  O  O18  1  0.828114  0.111757  0.120260  1
  O  O19  1  0.828099  0.888498  0.120255  1
  O  O20  1  0.826953  0.184571  0.085438  1
  O  O21  1  0.826929  0.815597  0.085438  1
  O  O22  1  -0.000000  0.500116  0.117836  1
  O  O23  1  0.141903  0.500068  0.221631  1
  O  O24  1  0.175345  0.710543  0.208418  1
  O  O25  1  0.175363  0.289614  0.208414  1
  O  O26  1  0.360465  0.652551  0.144244  1
  O  O27  1  0.360488  0.347586  0.144237  1
  O  O28  1  0.298579  0.710014  0.178622  1
  O  O29  1  0.298599  0.290078  0.178615  1
  O  O30  1  0.360398  0.500048  0.170263  1
  O  O31  1  0.169518  0.885746  0.183604  1
  O  O32  1  0.169498  0.114393  0.183607  1
  O  O33  1  0.101708  0.687964  0.174763  1
  O  O34  1  0.101733  0.312184  0.174758  1
  O  O35  1  0.137878  0.000000  0.152093  1
  O  O36  1  0.499929  0.658431  0.170415  1
  O  O37  1  0.499951  0.341687  0.170409  1
  O  O38  1  0.857900  0.500067  0.221629  1
  O  O39  1  0.824481  0.289599  0.208411  1
  O  O40  1  0.824472  0.710559  0.208419  1
  O  O41  1  -0.000000  0.342816  0.143443  1
  O  O42  1  0.639455  0.347627  0.144242  1
  O  O43  1  0.639436  0.652563  0.144249  1
  O  O44  1  0.701301  0.290063  0.178613  1
  O  O45  1  0.701274  0.710075  0.178623  1
  O  O46  1  0.639488  0.500071  0.170272  1
  O  O47  1  0.830447  0.114387  0.183604  1
  O  O48  1  0.830429  0.885753  0.183605  1
  O  O49  1  0.898169  0.312206  0.174760  1
  O  O50  1  0.898139  0.687913  0.174769  1
  O  O51  1  0.862117  0.000000  0.152094  1
  O  O52  1  -0.000000  0.657370  0.143451  1
  O  O53  1  -0.000000  0.500070  0.169138  1
  O  O54  1  -0.000000  0.348282  0.222571  1
  O  O55  1  0.000000  0.651850  0.222576  1
  O  O56  1  -0.000000  0.000000  0.178019  1
  O  O57  1  0.141845  0.500038  0.272490  1
  O  O58  1  0.175262  0.289560  0.285704  1
  O  O59  1  0.175283  0.710517  0.285705  1
  O  O60  1  0.360303  0.347617  0.349872  1
  O  O61  1  0.360323  0.652553  0.349876  1
  O  O62  1  0.298452  0.290089  0.315500  1
  O  O63  1  0.298470  0.710100  0.315503  1
  O  O64  1  0.360262  0.500094  0.323848  1
  O  O65  1  0.146641  0.660674  0.247062  1
  O  O66  1  0.499820  0.658456  0.323709  1
  O  O67  1  0.169332  0.114381  0.310519  1
  O  O68  1  0.169296  0.885745  0.310511  1
  O  O69  1  0.101583  0.312204  0.319354  1
  O  O70  1  0.101605  0.687911  0.319355  1
  O  O71  1  0.137645  0.000000  0.342025  1
  O  O72  1  0.499800  0.341713  0.323706  1
  O  O73  1  0.146641  0.339431  0.247059  1
  O  O74  1  -0.000000  0.342789  0.350672  1
  O  O75  1  0.857841  0.500042  0.272489  1
  O  O76  1  0.824399  0.710513  0.285705  1
  O  O77  1  0.824392  0.289578  0.285702  1
  O  O78  1  0.639292  0.652544  0.349880  1
  O  O79  1  0.639273  0.347578  0.349876  1
  O  O80  1  0.701172  0.710043  0.315503  1
  O  O81  1  0.701149  0.290103  0.315498  1
  O  O82  1  0.639352  0.500073  0.323855  1
  O  O83  1  0.830258  0.885744  0.310513  1
  O  O84  1  0.830230  0.114387  0.310516  1
  O  O85  1  0.898039  0.687960  0.319360  1
  O  O86  1  0.898016  0.312180  0.319358  1
  O  O87  1  -0.000000  0.000000  0.316101  1
  O  O88  1  0.861882  0.000000  0.342027  1
  O  O89  1  -0.000000  0.657344  0.350673  1
  O  O90  1  0.000000  0.500064  0.324981  1
  O  O91  1  0.853104  0.660675  0.247061  1
  O  O92  1  -0.000000  0.348257  0.271544  1
  O  O93  1  -0.000000  0.651823  0.271548  1
  O  O94  1  0.853103  0.339433  0.247056  1
  O  O95  1  0.298924  0.283179  0.383239  1
  O  O96  1  0.299137  0.716987  0.471951  1
  O  O97  1  0.298949  0.716969  0.383244  1
  O  O98  1  0.299158  0.283202  0.471942  1
  O  O99  1  0.499974  0.657749  0.479179  1
  O  O100  1  0.358559  0.500074  0.375939  1
  O  O101  1  0.358768  0.500090  0.479255  1
  O  O102  1  0.100920  0.308995  0.381751  1
  O  O103  1  0.101161  0.691150  0.473472  1
  O  O104  1  0.100952  0.691130  0.381751  1
  O  O105  1  0.101188  0.309095  0.473460  1
  O  O106  1  0.171655  0.111701  0.373858  1
  O  O107  1  0.171898  0.888495  0.481332  1
  O  O108  1  0.171673  0.888444  0.373866  1
  O  O109  1  0.171885  0.111749  0.481332  1
  O  O110  1  0.172829  0.184543  0.408679  1
  O  O111  1  0.172868  0.815487  0.446518  1
  O  O112  1  0.172823  0.815564  0.408685  1
  O  O113  1  0.172877  0.184669  0.446513  1
  O  O114  1  0.133117  0.000000  0.427615  1
  O  O115  1  0.499793  0.657708  0.376025  1
  O  O116  1  0.499771  0.342415  0.376021  1
  O  O117  1  0.499997  0.342456  0.479172  1
  O  O118  1  -0.000000  0.000000  0.486734  1
  O  O119  1  0.700850  0.283230  0.471953  1
  O  O120  1  0.700635  0.716937  0.383253  1
  O  O121  1  0.700817  0.717018  0.471962  1
  O  O122  1  0.700609  0.283155  0.383249  1
  O  O123  1  0.641209  0.500116  0.479259  1
  O  O124  1  0.641001  0.500050  0.375943  1
  O  O125  1  0.898852  0.309048  0.473442  1
  O  O126  1  0.898612  0.691100  0.381734  1
  O  O127  1  0.898818  0.691179  0.473451  1
  O  O128  1  0.898579  0.309050  0.381732  1
  O  O129  1  0.828114  0.111757  0.481339  1
  O  O130  1  0.827872  0.888436  0.373868  1
  O  O131  1  0.828099  0.888498  0.481334  1
  O  O132  1  0.827885  0.111691  0.373867  1
  O  O133  1  0.826953  0.184571  0.446517  1
  O  O134  1  0.826898  0.815474  0.408684  1
  O  O135  1  0.826929  0.815597  0.446517  1
  O  O136  1  0.826893  0.184667  0.408683  1
  O  O137  1  -0.000000  -0.000000  0.368465  1
  O  O138  1  -0.000000  0.500069  0.376283  1
  O  O139  1  0.866652  0.000000  0.427582  1
  O  O140  1  -0.000000  0.159748  0.427597  1
  O  O141  1  -0.000000  0.840395  0.427602  1
  O  O142  1  -0.000000  0.500116  0.478916  1
  O  O143  1  0.141903  0.500068  0.582710  1
  O  O144  1  0.175345  0.710543  0.569497  1
  O  O145  1  0.175363  0.289614  0.569493  1
  O  O146  1  0.360465  0.652551  0.505323  1
  O  O147  1  0.360488  0.347586  0.505316  1
  O  O148  1  0.298579  0.710014  0.539701  1
  O  O149  1  0.298599  0.290078  0.539694  1
  O  O150  1  0.360398  0.500048  0.531342  1
  O  O151  1  0.169518  0.885746  0.544683  1
  O  O152  1  0.169498  0.114393  0.544686  1
  O  O153  1  0.101708  0.687964  0.535843  1
  O  O154  1  0.101733  0.312184  0.535837  1
  O  O155  1  0.137878  0.000000  0.513172  1
  O  O156  1  0.499929  0.658431  0.531494  1
  O  O157  1  0.499951  0.341687  0.531488  1
  O  O158  1  0.857900  0.500067  0.582708  1
  O  O159  1  0.824481  0.289599  0.569490  1
  O  O160  1  0.824472  0.710559  0.569498  1
  O  O161  1  -0.000000  0.342816  0.504522  1
  O  O162  1  0.639455  0.347627  0.505321  1
  O  O163  1  0.639436  0.652563  0.505329  1
  O  O164  1  0.701301  0.290063  0.539692  1
  O  O165  1  0.701274  0.710075  0.539702  1
  O  O166  1  0.639488  0.500071  0.531351  1
  O  O167  1  0.830447  0.114387  0.544683  1
  O  O168  1  0.830429  0.885753  0.544684  1
  O  O169  1  0.898169  0.312206  0.535839  1
  O  O170  1  0.898139  0.687913  0.535848  1
  O  O171  1  0.862117  0.000000  0.513173  1
  O  O172  1  -0.000000  0.657370  0.504530  1
  O  O173  1  -0.000000  0.500070  0.530217  1
  O  O174  1  -0.000000  0.348282  0.583651  1
  O  O175  1  -0.000000  0.651850  0.583655  1
  O  O176  1  -0.000000  -0.000000  0.539098  1
  O  O177  1  0.141845  0.500038  0.633569  1
  O  O178  1  0.175262  0.289560  0.646783  1
  O  O179  1  0.175283  0.710517  0.646784  1
  O  O180  1  0.360303  0.347617  0.710951  1
  O  O181  1  0.360323  0.652553  0.710955  1
  O  O182  1  0.298452  0.290089  0.676579  1
  O  O183  1  0.298470  0.710100  0.676583  1
  O  O184  1  0.360262  0.500094  0.684927  1
  O  O185  1  0.146641  0.660674  0.608141  1
  O  O186  1  0.499820  0.658456  0.684788  1
  O  O187  1  0.169332  0.114381  0.671598  1
  O  O188  1  0.169296  0.885745  0.671590  1
  O  O189  1  0.101583  0.312204  0.680433  1
  O  O190  1  0.101605  0.687911  0.680434  1
  O  O191  1  0.137645  0.000000  0.703104  1
  O  O192  1  0.499800  0.341713  0.684785  1
  O  O193  1  0.146641  0.339431  0.608138  1
  O  O194  1  -0.000000  0.342789  0.711751  1
  O  O195  1  0.857841  0.500042  0.633568  1
  O  O196  1  0.824399  0.710513  0.646784  1
  O  O197  1  0.824392  0.289578  0.646781  1
  O  O198  1  0.639292  0.652544  0.710959  1
  O  O199  1  0.639273  0.347578  0.710955  1
  O  O200  1  0.701172  0.710043  0.676582  1
  O  O201  1  0.701149  0.290103  0.676577  1
  O  O202  1  0.639352  0.500073  0.684934  1
  O  O203  1  0.830258  0.885744  0.671592  1
  O  O204  1  0.830230  0.114387  0.671595  1
  O  O205  1  0.898039  0.687960  0.680439  1
  O  O206  1  0.898016  0.312180  0.680437  1
  O  O207  1  0.000000  0.000000  0.677180  1
  O  O208  1  0.861882  0.000000  0.703106  1
  O  O209  1  0.000000  0.657344  0.711752  1
  O  O210  1  -0.000000  0.500064  0.686060  1
  O  O211  1  0.853104  0.660675  0.608140  1
  O  O212  1  -0.000000  0.348257  0.632623  1
  O  O213  1  -0.000000  0.651823  0.632627  1
  O  O214  1  0.853103  0.339433  0.608135  1
  O  O215  1  0.298924  0.283179  0.744318  1
  O  O216  1  0.298949  0.716969  0.744324  1
  O  O217  1  0.358559  0.500074  0.737019  1
  O  O218  1  0.100920  0.308995  0.742830  1
  O  O219  1  0.100952  0.691130  0.742830  1
  O  O220  1  0.171655  0.111701  0.734937  1
  O  O221  1  0.171673  0.888444  0.734945  1
  O  O222  1  0.172829  0.184543  0.769758  1
  O  O223  1  0.172823  0.815564  0.769764  1
  O  O224  1  0.499793  0.657708  0.737104  1
  O  O225  1  0.499771  0.342415  0.737100  1
  O  O226  1  0.700635  0.716937  0.744333  1
  O  O227  1  0.700609  0.283155  0.744328  1
  O  O228  1  0.641001  0.500050  0.737022  1
  O  O229  1  0.898612  0.691100  0.742813  1
  O  O230  1  0.898579  0.309050  0.742811  1
  O  O231  1  0.827872  0.888436  0.734947  1
  O  O232  1  0.827885  0.111691  0.734946  1
  O  O233  1  0.826898  0.815474  0.769763  1
  O  O234  1  0.826893  0.184667  0.769762  1
  O  O235  1  -0.000000  -0.000000  0.729544  1
  O  O236  1  -0.000000  0.500069  0.737362  1
  Si  Si237  1  0.378915  0.635024  0.121885  1
  Si  Si238  1  0.378934  0.365154  0.121879  1
  Si  Si239  1  0.190533  0.779157  0.107005  1
  Si  Si240  1  0.190543  0.221048  0.106998  1
  Si  Si241  1  0.000000  0.635181  0.121098  1
  Si  Si242  1  0.621052  0.365178  0.121884  1
  Si  Si243  1  0.621033  0.635045  0.121890  1
  Si  Si244  1  0.809431  0.221036  0.107002  1
  Si  Si245  1  0.809404  0.779188  0.107005  1
  Si  Si246  1  -0.000000  0.365045  0.121091  1
  Si  Si247  1  0.189178  0.248699  0.186711  1
  Si  Si248  1  0.121885  -0.000000  0.129642  1
  Si  Si249  1  0.121729  0.000000  0.174566  1
  Si  Si250  1  0.121822  0.635155  0.224875  1
  Si  Si251  1  0.121826  0.364978  0.224873  1
  Si  Si252  1  0.378915  0.634972  0.166579  1
  Si  Si253  1  0.378933  0.365134  0.166573  1
  Si  Si254  1  0.189167  0.751439  0.186714  1
  Si  Si255  1  0.878121  0.000000  0.129644  1
  Si  Si256  1  0.878240  0.000000  0.174567  1
  Si  Si257  1  0.877982  0.364978  0.224872  1
  Si  Si258  1  0.877977  0.635154  0.224876  1
  Si  Si259  1  0.620969  0.365154  0.166577  1
  Si  Si260  1  0.620951  0.634991  0.166583  1
  Si  Si261  1  0.810724  0.248684  0.186707  1
  Si  Si262  1  0.810701  0.751463  0.186714  1
  Si  Si263  1  -0.000000  0.635235  0.165772  1
  Si  Si264  1  -0.000000  0.364911  0.165766  1
  Si  Si265  1  0.121647  -0.000000  0.364476  1
  Si  Si266  1  0.189041  0.751452  0.307408  1
  Si  Si267  1  0.121515  0.000000  0.319552  1
  Si  Si268  1  0.121763  0.364952  0.269244  1
  Si  Si269  1  0.121769  0.635127  0.269247  1
  Si  Si270  1  0.378782  0.365173  0.327538  1
  Si  Si271  1  0.378799  0.635010  0.327541  1
  Si  Si272  1  0.189034  0.248676  0.307409  1
  Si  Si273  1  -0.000000  0.635225  0.328351  1
  Si  Si274  1  -0.000000  0.364901  0.328350  1
  Si  Si275  1  0.877883  0.000000  0.364478  1
  Si  Si276  1  0.877924  0.635132  0.269247  1
  Si  Si277  1  0.877919  0.364955  0.269243  1
  Si  Si278  1  0.620835  0.634992  0.327545  1
  Si  Si279  1  0.620818  0.365154  0.327541  1
  Si  Si280  1  0.810588  0.751436  0.307408  1
  Si  Si281  1  0.810568  0.248691  0.307407  1
  Si  Si282  1  0.878026  -0.000000  0.319554  1
  Si  Si283  1  0.121599  0.135830  0.427602  1
  Si  Si284  1  0.121592  0.864306  0.427606  1
  Si  Si285  1  0.378716  0.365140  0.372231  1
  Si  Si286  1  0.378915  0.635024  0.482964  1
  Si  Si287  1  0.378734  0.635008  0.372234  1
  Si  Si288  1  0.378934  0.365154  0.482959  1
  Si  Si289  1  0.190343  0.220990  0.387114  1
  Si  Si290  1  0.190533  0.779157  0.468084  1
  Si  Si291  1  0.190360  0.779143  0.387119  1
  Si  Si292  1  0.190543  0.221048  0.468077  1
  Si  Si293  1  -0.000000  0.635181  0.482177  1
  Si  Si294  1  -0.000000  0.635137  0.373025  1
  Si  Si295  1  0.878170  0.864315  0.427595  1
  Si  Si296  1  0.878177  0.135839  0.427594  1
  Si  Si297  1  0.621052  0.365178  0.482963  1
  Si  Si298  1  0.620852  0.634988  0.372238  1
  Si  Si299  1  0.621033  0.635045  0.482969  1
  Si  Si300  1  0.620834  0.365118  0.372235  1
  Si  Si301  1  0.809431  0.221036  0.468081  1
  Si  Si302  1  0.809236  0.779113  0.387119  1
  Si  Si303  1  0.809404  0.779188  0.468084  1
  Si  Si304  1  0.809224  0.221011  0.387117  1
  Si  Si305  1  -0.000000  0.365001  0.373024  1
  Si  Si306  1  -0.000000  0.365045  0.482170  1
  Si  Si307  1  0.189178  0.248699  0.547790  1
  Si  Si308  1  0.121885  -0.000000  0.490721  1
  Si  Si309  1  0.121729  0.000000  0.535645  1
  Si  Si310  1  0.121822  0.635155  0.585955  1
  Si  Si311  1  0.121826  0.364978  0.585952  1
  Si  Si312  1  0.378915  0.634972  0.527658  1
  Si  Si313  1  0.378933  0.365134  0.527652  1
  Si  Si314  1  0.189167  0.751439  0.547793  1
  Si  Si315  1  0.878121  0.000000  0.490723  1
  Si  Si316  1  0.878240  -0.000000  0.535647  1
  Si  Si317  1  0.877982  0.364978  0.585951  1
  Si  Si318  1  0.877977  0.635154  0.585955  1
  Si  Si319  1  0.620969  0.365154  0.527656  1
  Si  Si320  1  0.620951  0.634991  0.527662  1
  Si  Si321  1  0.810724  0.248684  0.547786  1
  Si  Si322  1  0.810701  0.751463  0.547793  1
  Si  Si323  1  -0.000000  0.635235  0.526851  1
  Si  Si324  1  -0.000000  0.364911  0.526845  1
  Si  Si325  1  0.121647  0.000000  0.725555  1
  Si  Si326  1  0.189041  0.751452  0.668487  1
  Si  Si327  1  0.121515  0.000000  0.680631  1
  Si  Si328  1  0.121763  0.364952  0.630323  1
  Si  Si329  1  0.121769  0.635127  0.630326  1
  Si  Si330  1  0.378782  0.365173  0.688617  1
  Si  Si331  1  0.378799  0.635010  0.688620  1
  Si  Si332  1  0.189034  0.248676  0.668488  1
  Si  Si333  1  -0.000000  0.635225  0.689430  1
  Si  Si334  1  -0.000000  0.364901  0.689429  1
  Si  Si335  1  0.877883  0.000000  0.725557  1
  Si  Si336  1  0.877924  0.635132  0.630327  1
  Si  Si337  1  0.877919  0.364955  0.630323  1
  Si  Si338  1  0.620835  0.634992  0.688624  1
  Si  Si339  1  0.620818  0.365154  0.688621  1
  Si  Si340  1  0.810588  0.751436  0.668487  1
  Si  Si341  1  0.810568  0.248691  0.668486  1
  Si  Si342  1  0.878026  -0.000000  0.680633  1
  Si  Si343  1  0.378716  0.365140  0.733310  1
  Si  Si344  1  0.378734  0.635008  0.733313  1
  Si  Si345  1  0.190343  0.220990  0.748193  1
  Si  Si346  1  0.190360  0.779143  0.748198  1
  Si  Si347  1  -0.000000  0.635137  0.734104  1
  Si  Si348  1  0.620852  0.634988  0.733317  1
  Si  Si349  1  0.620834  0.365118  0.733314  1
  Si  Si350  1  0.809236  0.779113  0.748198  1
  Si  Si351  1  0.809224  0.221011  0.748196  1
  Si  Si352  1  0.000000  0.365001  0.734103  1
  H  H353  1  0.172868  0.815487  0.072406  1
  H  H354  1  0.172877  0.184669  0.072401  1
  H  H355  1  0.826953  0.184571  0.072405  1
  H  H356  1  0.826929  0.815597  0.072406  1
  H  H357  1  0.172829  0.184543  0.782790  1
  H  H358  1  0.172823  0.815564  0.782796  1
  H  H359  1  0.826898  0.815474  0.782796  1
  H  H360  1  0.826893  0.184667  0.782795  1
