# generated using pymatgen
data_Si17H2O35
_symmetry_space_group_name_H-M   'P 1'
_cell_length_a   13.87556409
_cell_length_b   12.44431264
_cell_length_c   46.93021054
_cell_angle_alpha   104.91000000
_cell_angle_beta   90.00000000
_cell_angle_gamma   90.00000000
_symmetry_Int_Tables_number   1
_chemical_formula_structural   Si17H2O35
_chemical_formula_sum   'Si68 H8 O140'
_cell_volume   7830.6905043
_cell_formula_units_Z   4
loop_
 _symmetry_equiv_pos_site_id
 _symmetry_equiv_pos_as_xyz
  1  'x, y, z'
loop_
 _atom_site_type_symbol
 _atom_site_label
 _atom_site_symmetry_multiplicity
 _atom_site_fract_x
 _atom_site_fract_y
 _atom_site_fract_z
 _atom_site_occupancy
  O  O1  1  0.172434  0.250759  0.129431  1
  O  O2  1  0.172430  0.895639  0.137818  1
  O  O3  1  0.499915  0.154845  0.243249  1
  O  O4  1  0.403170  0.159159  0.198685  1
  O  O5  1  0.096619  0.840704  0.265961  1
  O  O6  1  0.402113  0.780366  0.205578  1
  O  O7  1  0.097775  0.220136  0.259086  1
  O  O8  1  0.000000  0.244010  0.216496  1
  O  O9  1  0.499929  0.943665  0.235654  1
  O  O10  1  0.499950  0.548345  0.247814  1
  O  O11  1  0.092621  0.310201  0.178218  1
  O  O12  1  0.403746  0.477253  0.202788  1
  O  O13  1  0.095979  0.522133  0.262222  1
  O  O14  1  0.240039  0.812478  0.181860  1
  O  O15  1  0.259727  0.187457  0.282783  1
  O  O16  1  0.251304  0.813006  0.236322  1
  O  O17  1  0.248465  0.186148  0.228293  1
  O  O18  1  0.277008  0.627856  0.198553  1
  O  O19  1  0.224142  0.371760  0.265627  1
  O  O20  1  0.245387  0.415321  0.176324  1
  O  O21  1  0.249004  0.501989  0.232372  1
  O  O22  1  0.249069  0.212378  0.176161  1
  O  O23  1  0.259360  0.018167  0.183941  1
  O  O24  1  0.240474  0.981537  0.280637  1
  O  O25  1  0.094097  0.938313  0.187185  1
  O  O26  1  0.405630  0.061629  0.277513  1
  O  O27  1  0.499943  0.333850  0.223174  1
  O  O28  1  0.827737  0.250754  0.129443  1
  O  O29  1  0.827725  0.895522  0.137784  1
  O  O30  1  0.000000  0.844737  0.221413  1
  O  O31  1  0.903152  0.840612  0.265941  1
  O  O32  1  0.596597  0.159064  0.198664  1
  O  O33  1  0.902040  0.220179  0.259045  1
  O  O34  1  0.597701  0.780411  0.205537  1
  O  O35  1  0.000000  0.056217  0.229129  1
  O  O36  1  0.907136  0.310094  0.178281  1
  O  O37  1  0.903846  0.522111  0.262210  1
  O  O38  1  0.596066  0.477226  0.202764  1
  O  O39  1  0.740105  0.187418  0.282721  1
  O  O40  1  0.759795  0.812446  0.181797  1
  O  O41  1  0.751395  0.186034  0.228225  1
  O  O42  1  0.748559  0.812899  0.236255  1
  O  O43  1  0.775604  0.371729  0.265553  1
  O  O44  1  0.722746  0.627831  0.198480  1
  O  O45  1  0.754489  0.415301  0.176301  1
  O  O46  1  0.750711  0.502140  0.232351  1
  O  O47  1  0.750613  0.212348  0.176107  1
  O  O48  1  0.759338  0.981466  0.280550  1
  O  O49  1  0.740453  0.018092  0.183851  1
  O  O50  1  0.594166  0.061668  0.277525  1
  O  O51  1  0.905697  0.938352  0.187197  1
  O  O52  1  0.000000  0.451504  0.217107  1
  O  O53  1  0.000000  0.665762  0.241706  1
  O  O54  1  0.500044  0.755525  0.248083  1
  O  O55  1  0.327816  0.250898  0.444234  1
  O  O56  1  0.327662  0.749401  0.335257  1
  O  O57  1  0.365779  0.143583  0.385856  1
  O  O58  1  0.365771  0.856741  0.393595  1
  O  O59  1  0.375857  0.048773  0.427660  1
  O  O60  1  0.375836  0.951545  0.351792  1
  O  O61  1  0.327526  0.895817  0.452592  1
  O  O62  1  0.327440  0.104294  0.326820  1
  O  O63  1  0.407128  0.690313  0.286455  1
  O  O64  1  0.407087  0.309549  0.493106  1
  O  O65  1  0.254967  0.415622  0.491126  1
  O  O66  1  0.254720  0.584455  0.288445  1
  O  O67  1  0.250144  0.212622  0.490862  1
  O  O68  1  0.250450  0.787531  0.288558  1
  O  O69  1  0.672513  0.749398  0.335273  1
  O  O70  1  0.672580  0.250676  0.444223  1
  O  O71  1  0.634555  0.856626  0.393648  1
  O  O72  1  0.634553  0.143470  0.385841  1
  O  O73  1  0.500208  0.189687  0.423634  1
  O  O74  1  0.624440  0.951501  0.351822  1
  O  O75  1  0.624521  0.048612  0.427670  1
  O  O76  1  0.672713  0.104178  0.326786  1
  O  O77  1  0.672536  0.895813  0.452736  1
  O  O78  1  0.500159  0.907339  0.431408  1
  O  O79  1  0.592569  0.310407  0.492951  1
  O  O80  1  0.592625  0.690213  0.286517  1
  O  O81  1  0.745142  0.584426  0.288424  1
  O  O82  1  0.745592  0.415383  0.491053  1
  O  O83  1  0.749239  0.787503  0.288505  1
  O  O84  1  0.748774  0.212345  0.491028  1
  O  O85  1  0.500129  0.092905  0.348051  1
  O  O86  1  0.500148  0.810498  0.355839  1
  O  O87  1  0.172595  0.749543  0.650063  1
  O  O88  1  0.172514  0.104476  0.641592  1
  O  O89  1  0.402731  0.840773  0.580735  1
  O  O90  1  0.096178  0.159221  0.513458  1
  O  O91  1  0.499692  0.666031  0.556417  1
  O  O92  1  0.401632  0.220277  0.573811  1
  O  O93  1  0.097292  0.780498  0.520302  1
  O  O94  1  0.092574  0.689676  0.601343  1
  O  O95  1  0.404141  0.522103  0.576919  1
  O  O96  1  0.096386  0.477208  0.517495  1
  O  O97  1  0.239661  0.187700  0.597488  1
  O  O98  1  0.259349  0.812721  0.496565  1
  O  O99  1  0.251030  0.186402  0.542990  1
  O  O100  1  0.248192  0.813262  0.551019  1
  O  O101  1  0.275556  0.372007  0.580332  1
  O  O102  1  0.222689  0.628097  0.513259  1
  O  O103  1  0.245623  0.584753  0.603247  1
  O  O104  1  0.250818  0.502657  0.547191  1
  O  O105  1  0.248768  0.787782  0.603260  1
  O  O106  1  0.259022  0.981780  0.595337  1
  O  O107  1  0.240136  0.018404  0.498640  1
  O  O108  1  0.093816  0.061766  0.592317  1
  O  O109  1  0.405344  0.938456  0.501989  1
  O  O110  1  0.499630  0.845026  0.536240  1
  O  O111  1  0.000000  0.755819  0.562945  1
  O  O112  1  0.499979  0.451646  0.531788  1
  O  O113  1  0.499475  0.056357  0.543895  1
  O  O114  1  0.827803  0.749325  0.650051  1
  O  O115  1  0.827546  0.104474  0.641738  1
  O  O116  1  -0.000000  0.155120  0.558075  1
  O  O117  1  0.902734  0.159395  0.513576  1
  O  O118  1  0.596180  0.840950  0.580853  1
  O  O119  1  0.000000  0.334111  0.537889  1
  O  O120  1  0.901634  0.779858  0.520499  1
  O  O121  1  0.597297  0.219635  0.574008  1
  O  O122  1  0.907078  0.690536  0.601188  1
  O  O123  1  0.904131  0.478009  0.517375  1
  O  O124  1  0.596376  0.522903  0.576798  1
  O  O125  1  0.739675  0.812444  0.496820  1
  O  O126  1  0.759364  0.187427  0.597743  1
  O  O127  1  0.751022  0.813798  0.551316  1
  O  O128  1  0.748187  0.186938  0.543287  1
  O  O129  1  0.775542  0.628127  0.513982  1
  O  O130  1  0.722675  0.372038  0.581055  1
  O  O131  1  0.754935  0.584517  0.603174  1
  O  O132  1  0.750827  0.497436  0.547111  1
  O  O133  1  0.750148  0.787505  0.603426  1
  O  O134  1  0.759035  0.018396  0.498994  1
  O  O135  1  0.740149  0.981769  0.595690  1
  O  O136  1  0.593820  0.938386  0.502005  1
  O  O137  1  0.905353  0.061699  0.592333  1
  O  O138  1  0.500319  0.244319  0.531361  1
  O  O139  1  0.000000  0.943793  0.550421  1
  O  O140  1  0.000000  0.548479  0.562502  1
  Si  Si141  1  0.499908  0.058346  0.259255  1
  Si  Si142  1  0.499927  0.454387  0.218145  1
  Si  Si143  1  0.499910  0.202973  0.215309  1
  Si  Si144  1  0.194218  0.300017  0.163651  1
  Si  Si145  1  0.290290  0.756934  0.204653  1
  Si  Si146  1  0.209727  0.242977  0.259929  1
  Si  Si147  1  0.293459  0.506991  0.202038  1
  Si  Si148  1  0.206619  0.493063  0.262639  1
  Si  Si149  1  0.290498  0.142377  0.196513  1
  Si  Si150  1  0.209308  0.857295  0.268102  1
  Si  Si151  1  0.194453  0.912863  0.171845  1
  Si  Si152  1  0.499937  0.814732  0.222365  1
  Si  Si153  1  0.499941  0.670715  0.267514  1
  Si  Si154  1  0.000000  0.941539  0.205493  1
  Si  Si155  1  0.790078  0.242942  0.259863  1
  Si  Si156  1  0.709518  0.756912  0.204588  1
  Si  Si157  1  0.793192  0.493060  0.262595  1
  Si  Si158  1  0.706342  0.506991  0.201994  1
  Si  Si159  1  0.790459  0.857199  0.268046  1
  Si  Si160  1  0.709267  0.142276  0.196456  1
  Si  Si161  1  0.805441  0.912823  0.171799  1
  Si  Si162  1  0.805653  0.299987  0.163644  1
  Si  Si163  1  0.000000  0.796607  0.249363  1
  Si  Si164  1  0.000000  0.329422  0.197240  1
  Si  Si165  1  0.000000  0.545297  0.246812  1
  Si  Si166  1  0.000000  0.185287  0.242311  1
  Si  Si167  1  0.305587  0.700030  0.301057  1
  Si  Si168  1  0.305675  0.300051  0.478438  1
  Si  Si169  1  0.388925  0.163725  0.420011  1
  Si  Si170  1  0.388873  0.836593  0.359446  1
  Si  Si171  1  0.388885  0.922614  0.426689  1
  Si  Si172  1  0.388828  0.077686  0.352751  1
  Si  Si173  1  0.305073  0.913099  0.486591  1
  Si  Si174  1  0.305191  0.086973  0.292798  1
  Si  Si175  1  0.611415  0.836579  0.359493  1
  Si  Si176  1  0.611467  0.163532  0.419999  1
  Si  Si177  1  0.611428  0.077607  0.352741  1
  Si  Si178  1  0.611481  0.922509  0.426752  1
  Si  Si179  1  0.694704  0.086933  0.292750  1
  Si  Si180  1  0.694354  0.912967  0.486781  1
  Si  Si181  1  0.694276  0.700015  0.301053  1
  Si  Si182  1  0.694286  0.300047  0.478444  1
  Si  Si183  1  0.499577  0.185361  0.557129  1
  Si  Si184  1  0.194301  0.700079  0.615845  1
  Si  Si185  1  0.499561  0.796893  0.564183  1
  Si  Si186  1  0.194334  0.087209  0.607546  1
  Si  Si187  1  0.289720  0.243182  0.574634  1
  Si  Si188  1  0.209155  0.757137  0.519359  1
  Si  Si189  1  0.293453  0.493304  0.577393  1
  Si  Si190  1  0.206618  0.507237  0.516794  1
  Si  Si191  1  0.290050  0.857483  0.582817  1
  Si  Si192  1  0.208860  0.142559  0.511227  1
  Si  Si193  1  0.499568  0.941675  0.520278  1
  Si  Si194  1  0.000000  0.454602  0.532816  1
  Si  Si195  1  0.499987  0.329406  0.512009  1
  Si  Si196  1  0.000000  0.058472  0.574039  1
  Si  Si197  1  0.500070  0.545521  0.561476  1
  Si  Si198  1  0.000000  0.203253  0.530131  1
  Si  Si199  1  0.000000  0.814794  0.537182  1
  Si  Si200  1  0.789719  0.756954  0.519676  1
  Si  Si201  1  0.709155  0.243003  0.574950  1
  Si  Si202  1  0.793442  0.506817  0.516908  1
  Si  Si203  1  0.706608  0.492888  0.577508  1
  Si  Si204  1  0.790054  0.142707  0.511490  1
  Si  Si205  1  0.708862  0.857629  0.583080  1
  Si  Si206  1  0.805100  0.087075  0.607738  1
  Si  Si207  1  0.805653  0.700068  0.615849  1
  Si  Si208  1  0.000000  0.670703  0.582287  1
  H  H209  1  0.172434  0.250759  0.110253  1
  H  H210  1  0.172430  0.895639  0.118641  1
  H  H211  1  0.827737  0.250754  0.110266  1
  H  H212  1  0.827725  0.895522  0.118607  1
  H  H213  1  0.172595  0.749543  0.669240  1
  H  H214  1  0.172514  0.104476  0.660770  1
  H  H215  1  0.827803  0.749325  0.669228  1
  H  H216  1  0.827546  0.104474  0.660915  1
