# generated using pymatgen
data_Si16H6O35
_symmetry_space_group_name_H-M   'P 1'
_cell_length_a   21.88992159
_cell_length_b   39.14737771
_cell_length_c   29.35859527
_cell_angle_alpha   90.00000000
_cell_angle_beta   90.00000000
_cell_angle_gamma   90.00000000
_symmetry_Int_Tables_number   1
_chemical_formula_structural   Si16H6O35
_chemical_formula_sum   'Si128 H48 O280'
_cell_volume   25158.3499585
_cell_formula_units_Z   8
loop_
 _symmetry_equiv_pos_site_id
 _symmetry_equiv_pos_as_xyz
  1  'x, y, z'
loop_
 _atom_site_type_symbol
 _atom_site_label
 _atom_site_symmetry_multiplicity
 _atom_site_fract_x
 _atom_site_fract_y
 _atom_site_fract_z
 _atom_site_occupancy
  O  O1  1  0.181872  0.305580  0.257293  1
  O  O2  1  0.317780  -0.000000  0.257084  1
  O  O3  1  0.295660  0.291226  0.257022  1
  O  O4  1  0.222266  0.241314  0.268695  1
  O  O5  1  0.274157  0.063275  0.269304  1
  O  O6  1  0.203097  0.013323  0.255404  1
  O  O7  1  0.398648  0.272506  0.286216  1
  O  O8  1  0.387795  0.280331  0.201486  1
  O  O9  1  0.295055  0.189027  0.256213  1
  O  O10  1  0.179782  0.178018  0.257409  1
  O  O11  1  0.110070  0.017307  0.200963  1
  O  O12  1  0.098013  0.022123  0.286253  1
  O  O13  1  0.200887  0.115078  0.256048  1
  O  O14  1  0.314829  0.126019  0.255968  1
  O  O15  1  0.421930  0.218385  0.329652  1
  O  O16  1  0.382189  0.164797  0.201019  1
  O  O17  1  0.395922  0.165742  0.286229  1
  O  O18  1  0.114764  0.137151  0.201239  1
  O  O19  1  0.100547  0.134133  0.286574  1
  O  O20  1  0.389882  0.331891  0.255056  1
  O  O21  1  0.101627  0.348087  0.286393  1
  O  O22  1  0.115815  0.344763  0.201647  1
  O  O23  1  0.199757  0.370377  0.255986  1
  O  O24  1  0.113249  0.461437  0.201079  1
  O  O25  1  0.098479  0.459543  0.286396  1
  O  O26  1  0.182165  0.500627  0.257084  1
  O  O27  1  0.191910  0.435882  0.255812  1
  O  O28  1  0.295445  0.412199  0.267555  1
  O  O29  1  0.225795  0.563283  0.269324  1
  O  O30  1  0.296851  0.513335  0.255398  1
  O  O31  1  0.406709  0.398363  0.267442  1
  O  O32  1  0.371274  0.463864  0.253322  1
  O  O33  1  0.389908  0.517320  0.200979  1
  O  O34  1  0.401918  0.522151  0.286271  1
  O  O35  1  0.299078  0.615080  0.256060  1
  O  O36  1  0.185128  0.626027  0.256006  1
  O  O37  1  0.117786  0.664791  0.201035  1
  O  O38  1  0.104041  0.665761  0.286248  1
  O  O39  1  0.385223  0.637153  0.201259  1
  O  O40  1  0.399420  0.634130  0.286592  1
  O  O41  1  0.499994  0.357288  0.265236  1
  O  O42  1  0.318106  0.805570  0.257308  1
  O  O43  1  0.398340  0.848073  0.286423  1
  O  O44  1  0.384210  0.844744  0.201674  1
  O  O45  1  0.300230  0.870364  0.255980  1
  O  O46  1  0.386724  0.961422  0.201114  1
  O  O47  1  0.401451  0.959540  0.286437  1
  O  O48  1  0.308044  0.935868  0.255830  1
  O  O49  1  0.204518  0.912172  0.267553  1
  O  O50  1  0.204310  0.791221  0.257054  1
  O  O51  1  0.277710  0.741310  0.268720  1
  O  O52  1  0.093251  0.898344  0.267451  1
  O  O53  1  0.128696  0.963842  0.253303  1
  O  O54  1  0.110069  0.831871  0.255090  1
  O  O55  1  0.101336  0.772486  0.286259  1
  O  O56  1  0.112178  0.780311  0.201525  1
  O  O57  1  0.204917  0.689029  0.256234  1
  O  O58  1  0.320194  0.678016  0.257429  1
  O  O59  1  0.818136  0.305566  0.257304  1
  O  O60  1  0.682193  0.000000  0.257080  1
  O  O61  1  0.704345  0.291218  0.257031  1
  O  O62  1  0.777742  0.241303  0.268708  1
  O  O63  1  0.725828  0.063274  0.269318  1
  O  O64  1  0.796887  0.013331  0.255397  1
  O  O65  1  0.601372  0.272490  0.286235  1
  O  O66  1  0.612205  0.280321  0.201503  1
  O  O67  1  0.704952  0.189021  0.256225  1
  O  O68  1  0.820228  0.178009  0.257424  1
  O  O69  1  0.889951  0.017312  0.200980  1
  O  O70  1  0.901957  0.022142  0.286271  1
  O  O71  1  0.799115  0.115071  0.256053  1
  O  O72  1  0.685169  0.126019  0.255985  1
  O  O73  1  0.617810  0.164793  0.201032  1
  O  O74  1  0.604086  0.165746  0.286249  1
  O  O75  1  0.885258  0.137147  0.201254  1
  O  O76  1  0.899453  0.134123  0.286588  1
  O  O77  1  0.610110  0.331878  0.255074  1
  O  O78  1  0.898359  0.348079  0.286416  1
  O  O79  1  0.884219  0.344744  0.201667  1
  O  O80  1  0.800240  0.370361  0.255981  1
  O  O81  1  0.886726  0.461423  0.201107  1
  O  O82  1  0.901461  0.459544  0.286429  1
  O  O83  1  0.817769  0.500612  0.257083  1
  O  O84  1  0.808062  0.435865  0.255829  1
  O  O85  1  0.704537  0.412180  0.267556  1
  O  O86  1  0.774162  0.563272  0.269325  1
  O  O87  1  0.703083  0.513336  0.255407  1
  O  O88  1  0.593279  0.398350  0.267451  1
  O  O89  1  0.628704  0.463849  0.253315  1
  O  O90  1  0.610037  0.517308  0.200976  1
  O  O91  1  0.597999  0.522126  0.286267  1
  O  O92  1  0.700874  0.615068  0.256062  1
  O  O93  1  0.814815  0.626020  0.255995  1
  O  O94  1  0.882156  0.664791  0.201033  1
  O  O95  1  0.895893  0.665756  0.286248  1
  O  O96  1  0.614741  0.637142  0.201255  1
  O  O97  1  0.600528  0.634116  0.286586  1
  O  O98  1  0.681841  0.805577  0.257307  1
  O  O99  1  0.601607  0.848092  0.286393  1
  O  O100  1  0.615806  0.844766  0.201648  1
  O  O101  1  0.699749  0.870373  0.255996  1
  O  O102  1  0.613248  0.961442  0.201082  1
  O  O103  1  0.598482  0.959550  0.286400  1
  O  O104  1  0.691897  0.935876  0.255812  1
  O  O105  1  0.795432  0.912202  0.267560  1
  O  O106  1  0.795624  0.791213  0.257041  1
  O  O107  1  0.722218  0.741307  0.268714  1
  O  O108  1  0.906684  0.898352  0.267461  1
  O  O109  1  0.871292  0.963857  0.253328  1
  O  O110  1  0.889845  0.831878  0.255089  1
  O  O111  1  0.898601  0.772493  0.286257  1
  O  O112  1  0.887770  0.780316  0.201522  1
  O  O113  1  0.795019  0.689025  0.256227  1
  O  O114  1  0.679748  0.678008  0.257429  1
  O  O115  1  -0.000000  0.857279  0.265257  1
  O  O116  1  0.181869  0.305577  0.402069  1
  O  O117  1  0.317787  -0.000000  0.402296  1
  O  O118  1  0.295659  0.291212  0.402342  1
  O  O119  1  0.222248  0.241311  0.390662  1
  O  O120  1  0.235196  0.286276  0.329681  1
  O  O121  1  0.274183  0.063280  0.390062  1
  O  O122  1  0.261172  0.017703  0.329690  1
  O  O123  1  0.203106  0.013337  0.403980  1
  O  O124  1  0.398636  0.272487  0.373131  1
  O  O125  1  0.387806  0.280316  0.457866  1
  O  O126  1  0.295051  0.189031  0.403150  1
  O  O127  1  0.179778  0.178014  0.401953  1
  O  O128  1  0.235679  0.196331  0.329680  1
  O  O129  1  0.110056  0.017312  0.458402  1
  O  O130  1  0.098034  0.022138  0.373111  1
  O  O131  1  0.200908  0.115077  0.403327  1
  O  O132  1  0.260614  0.108623  0.329682  1
  O  O133  1  0.314852  0.126029  0.403380  1
  O  O134  1  0.082847  0.078270  0.329670  1
  O  O135  1  0.382193  0.164797  0.458345  1
  O  O136  1  0.395929  0.165767  0.373134  1
  O  O137  1  0.114763  0.137148  0.458129  1
  O  O138  1  0.100564  0.134119  0.372798  1
  O  O139  1  0.389876  0.331874  0.404294  1
  O  O140  1  -0.000000  0.123162  0.329700  1
  O  O141  1  0.499999  0.171202  0.329679  1
  O  O142  1  0.101632  0.348082  0.372956  1
  O  O143  1  0.115789  0.344759  0.457705  1
  O  O144  1  0.199748  0.370373  0.403379  1
  O  O145  1  0.113210  0.461437  0.458265  1
  O  O146  1  0.098496  0.459552  0.372939  1
  O  O147  1  0.182174  0.500623  0.402298  1
  O  O148  1  0.191895  0.435877  0.403558  1
  O  O149  1  0.499975  0.623162  0.329701  1
  O  O150  1  0.295435  0.412196  0.391824  1
  O  O151  1  0.218602  0.403918  0.329684  1
  O  O152  1  0.417124  0.578279  0.329713  1
  O  O153  1  0.077596  0.402863  0.329679  1
  O  O154  1  0.225815  0.563277  0.390077  1
  O  O155  1  0.238792  0.517703  0.329693  1
  O  O156  1  0.296864  0.513325  0.403986  1
  O  O157  1  0.406693  0.398349  0.391935  1
  O  O158  1  0.361985  0.435136  0.329694  1
  O  O159  1  0.371279  0.463853  0.406076  1
  O  O160  1  0.499962  0.533281  0.329689  1
  O  O161  1  0.389905  0.517315  0.458421  1
  O  O162  1  0.401941  0.522137  0.373130  1
  O  O163  1  0.299089  0.615078  0.403346  1
  O  O164  1  0.239373  0.608626  0.329705  1
  O  O165  1  0.185141  0.626020  0.403413  1
  O  O166  1  0.424344  0.355976  0.329680  1
  O  O167  1  0.499981  0.357283  0.394134  1
  O  O168  1  0.117777  0.664795  0.458363  1
  O  O169  1  0.104047  0.665738  0.373149  1
  O  O170  1  0.385222  0.637155  0.458150  1
  O  O171  1  0.399425  0.634139  0.372817  1
  O  O172  1  0.318101  0.805572  0.402094  1
  O  O173  1  0.398348  0.848076  0.372986  1
  O  O174  1  0.384174  0.844750  0.457734  1
  O  O175  1  0.300220  0.870367  0.403402  1
  O  O176  1  0.386679  0.961421  0.458299  1
  O  O177  1  0.401474  0.959533  0.372982  1
  O  O178  1  0.308034  0.935872  0.403547  1
  O  O179  1  0.204513  0.912178  0.391821  1
  O  O180  1  0.281352  0.903886  0.329689  1
  O  O181  1  0.204306  0.791228  0.402360  1
  O  O182  1  0.277697  0.741311  0.390690  1
  O  O183  1  0.264783  0.786275  0.329705  1
  O  O184  1  0.093247  0.898358  0.391936  1
  O  O185  1  0.137985  0.935127  0.329684  1
  O  O186  1  0.128704  0.963855  0.406060  1
  O  O187  1  0.110074  0.831887  0.404328  1
  O  O188  1  0.101322  0.772499  0.373174  1
  O  O189  1  0.112176  0.780330  0.457903  1
  O  O190  1  0.204911  0.689025  0.403166  1
  O  O191  1  0.320188  0.678019  0.401981  1
  O  O192  1  0.264295  0.696329  0.329703  1
  O  O193  1  0.075601  0.855969  0.329705  1
  O  O194  1  0.078036  0.718381  0.329729  1
  O  O195  1  0.422366  0.902854  0.329700  1
  O  O196  1  0.499979  0.855591  0.329689  1
  O  O197  1  0.499974  0.949643  0.329685  1
  O  O198  1  0.818131  0.305566  0.402079  1
  O  O199  1  0.682189  -0.000000  0.402298  1
  O  O200  1  0.704336  0.291224  0.402343  1
  O  O201  1  0.777729  0.241305  0.390680  1
  O  O202  1  0.764807  0.286267  0.329690  1
  O  O203  1  0.725824  0.063274  0.390065  1
  O  O204  1  0.738817  0.017694  0.329691  1
  O  O205  1  0.796883  0.013333  0.403987  1
  O  O206  1  0.601356  0.272492  0.373151  1
  O  O207  1  0.612213  0.280319  0.457882  1
  O  O208  1  0.704941  0.189021  0.403160  1
  O  O209  1  0.820216  0.178012  0.401974  1
  O  O210  1  0.764327  0.196323  0.329695  1
  O  O211  1  0.889930  0.017315  0.458421  1
  O  O212  1  0.901968  0.022130  0.373130  1
  O  O213  1  0.799108  0.115072  0.403338  1
  O  O214  1  0.739399  0.108621  0.329693  1
  O  O215  1  0.685157  0.126019  0.403395  1
  O  O216  1  0.617816  0.164788  0.458361  1
  O  O217  1  0.604068  0.165746  0.373149  1
  O  O218  1  0.885242  0.137148  0.458145  1
  O  O219  1  0.899450  0.134131  0.372813  1
  O  O220  1  0.917156  0.078273  0.329711  1
  O  O221  1  0.578073  0.218380  0.329693  1
  O  O222  1  0.610096  0.331878  0.404312  1
  O  O223  1  0.000000  0.033282  0.329694  1
  O  O224  1  0.500003  0.265707  0.329681  1
  O  O225  1  0.898367  0.348077  0.372979  1
  O  O226  1  0.884196  0.344743  0.457727  1
  O  O227  1  0.800237  0.370359  0.403399  1
  O  O228  1  0.886693  0.461418  0.458293  1
  O  O229  1  0.901466  0.459542  0.372972  1
  O  O230  1  0.817759  0.500610  0.402308  1
  O  O231  1  0.808051  0.435864  0.403552  1
  O  O232  1  0.704530  0.412174  0.391828  1
  O  O233  1  0.781366  0.403884  0.329691  1
  O  O234  1  0.774153  0.563270  0.390074  1
  O  O235  1  0.761158  0.517693  0.329696  1
  O  O236  1  0.703072  0.513334  0.403982  1
  O  O237  1  0.593267  0.398349  0.391933  1
  O  O238  1  0.638005  0.435129  0.329694  1
  O  O239  1  0.628700  0.463845  0.406077  1
  O  O240  1  0.610028  0.517306  0.458415  1
  O  O241  1  0.597985  0.522119  0.373124  1
  O  O242  1  0.700869  0.615068  0.403339  1
  O  O243  1  0.760590  0.608619  0.329702  1
  O  O244  1  0.814809  0.626019  0.403412  1
  O  O245  1  0.575630  0.355966  0.329690  1
  O  O246  1  -0.000000  0.355592  0.329685  1
  O  O247  1  0.882159  0.664798  0.458364  1
  O  O248  1  0.895889  0.665747  0.373150  1
  O  O249  1  0.614734  0.637144  0.458143  1
  O  O250  1  0.600527  0.634118  0.372811  1
  O  O251  1  0.922374  0.402859  0.329699  1
  O  O252  1  0.000000  0.449643  0.329689  1
  O  O253  1  0.582814  0.578263  0.329702  1
  O  O254  1  0.681837  0.805574  0.402081  1
  O  O255  1  0.601614  0.848083  0.372956  1
  O  O256  1  0.615765  0.844764  0.457707  1
  O  O257  1  0.699730  0.870372  0.403383  1
  O  O258  1  0.613198  0.961446  0.458267  1
  O  O259  1  0.598491  0.959559  0.372941  1
  O  O260  1  0.691875  0.935875  0.403566  1
  O  O261  1  0.795415  0.912199  0.391835  1
  O  O262  1  0.718589  0.903920  0.329690  1
  O  O263  1  0.795623  0.791215  0.402363  1
  O  O264  1  0.722221  0.741306  0.390682  1
  O  O265  1  0.735162  0.786270  0.329699  1
  O  O266  1  0.921891  0.718382  0.329711  1
  O  O267  1  -0.000000  0.765710  0.329711  1
  O  O268  1  0.906672  0.898351  0.391951  1
  O  O269  1  0.861968  0.935135  0.329704  1
  O  O270  1  0.871271  0.963854  0.406083  1
  O  O271  1  0.889846  0.831880  0.404326  1
  O  O272  1  0.898608  0.772493  0.373172  1
  O  O273  1  0.887762  0.780327  0.457903  1
  O  O274  1  0.795019  0.689024  0.403166  1
  O  O275  1  0.679748  0.678008  0.401968  1
  O  O276  1  0.735647  0.696326  0.329697  1
  O  O277  1  0.924315  0.855971  0.329707  1
  O  O278  1  0.577587  0.902867  0.329684  1
  O  O279  1  -0.000000  0.857288  0.394155  1
  O  O280  1  0.000000  0.671202  0.329702  1
  Si  Si281  1  0.232017  0.280734  0.276963  1
  Si  Si282  1  0.265533  0.023907  0.276925  1
  Si  Si283  1  0.365995  0.294345  0.248895  1
  Si  Si284  1  0.232186  0.201845  0.276777  1
  Si  Si285  1  0.134649  0.003745  0.247840  1
  Si  Si286  1  0.263462  0.102521  0.276747  1
  Si  Si287  1  0.346916  0.161522  0.247810  1
  Si  Si288  1  0.148479  0.142197  0.248446  1
  Si  Si289  1  0.150590  0.341291  0.248627  1
  Si  Si290  1  0.146787  0.466291  0.248141  1
  Si  Si291  1  0.226231  0.404534  0.276483  1
  Si  Si292  1  0.234417  0.523914  0.276930  1
  Si  Si293  1  0.360167  0.428252  0.276923  1
  Si  Si294  1  0.365308  0.503766  0.247853  1
  Si  Si295  1  0.236504  0.602528  0.276771  1
  Si  Si296  1  0.430209  0.360853  0.276617  1
  Si  Si297  1  0.153048  0.661529  0.247835  1
  Si  Si298  1  0.351494  0.642195  0.248462  1
  Si  Si299  1  0.349403  0.841277  0.248641  1
  Si  Si300  1  0.353165  0.966278  0.248165  1
  Si  Si301  1  0.273733  0.904511  0.276487  1
  Si  Si302  1  0.267958  0.780730  0.276988  1
  Si  Si303  1  0.139799  0.928233  0.276915  1
  Si  Si304  1  0.133971  0.794328  0.248932  1
  Si  Si305  1  0.267788  0.701842  0.276800  1
  Si  Si306  1  0.069744  0.860838  0.276640  1
  Si  Si307  1  0.767988  0.280723  0.276973  1
  Si  Si308  1  0.734450  0.023906  0.276927  1
  Si  Si309  1  0.634007  0.294335  0.248910  1
  Si  Si310  1  0.767822  0.201835  0.276792  1
  Si  Si311  1  0.865343  0.003759  0.247853  1
  Si  Si312  1  0.736539  0.102520  0.276758  1
  Si  Si313  1  0.653083  0.161521  0.247825  1
  Si  Si314  1  0.851529  0.142188  0.248457  1
  Si  Si315  1  0.849419  0.341278  0.248638  1
  Si  Si316  1  0.853170  0.466280  0.248160  1
  Si  Si317  1  0.773749  0.404510  0.276489  1
  Si  Si318  1  0.765526  0.523904  0.276933  1
  Si  Si319  1  0.639820  0.428240  0.276924  1
  Si  Si320  1  0.634636  0.503753  0.247851  1
  Si  Si321  1  0.763451  0.602518  0.276768  1
  Si  Si322  1  0.569778  0.360842  0.276626  1
  Si  Si323  1  0.846890  0.661526  0.247830  1
  Si  Si324  1  0.648459  0.642183  0.248461  1
  Si  Si325  1  0.650573  0.841291  0.248632  1
  Si  Si326  1  0.646790  0.966293  0.248142  1
  Si  Si327  1  0.726220  0.904531  0.276489  1
  Si  Si328  1  0.731976  0.780727  0.276982  1
  Si  Si329  1  0.860157  0.928249  0.276933  1
  Si  Si330  1  0.865962  0.794331  0.248927  1
  Si  Si331  1  0.732148  0.701839  0.276794  1
  Si  Si332  1  0.930175  0.860842  0.276642  1
  Si  Si333  1  0.232011  0.280731  0.382397  1
  Si  Si334  1  0.265544  0.023912  0.382453  1
  Si  Si335  1  0.365997  0.294327  0.410459  1
  Si  Si336  1  0.232179  0.201843  0.382583  1
  Si  Si337  1  0.134655  0.003757  0.411528  1
  Si  Si338  1  0.263481  0.102526  0.382616  1
  Si  Si339  1  0.346925  0.161534  0.411548  1
  Si  Si340  1  0.148489  0.142190  0.410925  1
  Si  Si341  1  0.429706  0.257818  0.329671  1
  Si  Si342  1  0.070463  0.038852  0.329681  1
  Si  Si343  1  0.429499  0.178809  0.329673  1
  Si  Si344  1  0.070667  0.117819  0.329685  1
  Si  Si345  1  0.150579  0.341287  0.410731  1
  Si  Si346  1  0.146776  0.466290  0.411216  1
  Si  Si347  1  0.226223  0.404531  0.382886  1
  Si  Si348  1  0.234431  0.523909  0.382458  1
  Si  Si349  1  0.360162  0.428245  0.382464  1
  Si  Si350  1  0.365317  0.503755  0.411546  1
  Si  Si351  1  0.236516  0.602524  0.382640  1
  Si  Si352  1  0.430198  0.360843  0.382746  1
  Si  Si353  1  0.153048  0.661521  0.411570  1
  Si  Si354  1  0.351496  0.642199  0.410947  1
  Si  Si355  1  0.070170  0.362976  0.329677  1
  Si  Si356  1  0.069704  0.442817  0.329674  1
  Si  Si357  1  0.429497  0.538861  0.329702  1
  Si  Si358  1  0.429310  0.617827  0.329706  1
  Si  Si359  1  0.349391  0.841282  0.410756  1
  Si  Si360  1  0.353158  0.966278  0.411232  1
  Si  Si361  1  0.273728  0.904514  0.382891  1
  Si  Si362  1  0.267950  0.780731  0.382422  1
  Si  Si363  1  0.139799  0.928242  0.382456  1
  Si  Si364  1  0.133971  0.794343  0.410493  1
  Si  Si365  1  0.267782  0.701842  0.382607  1
  Si  Si366  1  0.069744  0.860848  0.382768  1
  Si  Si367  1  0.429800  0.862968  0.329701  1
  Si  Si368  1  0.430250  0.942809  0.329702  1
  Si  Si369  1  0.070263  0.757815  0.329718  1
  Si  Si370  1  0.070467  0.678805  0.329705  1
  Si  Si371  1  0.767980  0.280725  0.382407  1
  Si  Si372  1  0.734447  0.023906  0.382454  1
  Si  Si373  1  0.634000  0.294336  0.410472  1
  Si  Si374  1  0.767813  0.201837  0.382598  1
  Si  Si375  1  0.865333  0.003757  0.411547  1
  Si  Si376  1  0.736535  0.102520  0.382627  1
  Si  Si377  1  0.653075  0.161519  0.411561  1
  Si  Si378  1  0.851518  0.142191  0.410941  1
  Si  Si379  1  0.570300  0.257814  0.329690  1
  Si  Si380  1  0.929530  0.038855  0.329702  1
  Si  Si381  1  0.570500  0.178804  0.329693  1
  Si  Si382  1  0.929341  0.117821  0.329704  1
  Si  Si383  1  0.849413  0.341276  0.410749  1
  Si  Si384  1  0.853158  0.466278  0.411232  1
  Si  Si385  1  0.773743  0.404508  0.382893  1
  Si  Si386  1  0.765516  0.523903  0.382460  1
  Si  Si387  1  0.639814  0.428238  0.382465  1
  Si  Si388  1  0.634626  0.503750  0.411541  1
  Si  Si389  1  0.763446  0.602516  0.382636  1
  Si  Si390  1  0.569767  0.360841  0.382754  1
  Si  Si391  1  0.846888  0.661524  0.411570  1
  Si  Si392  1  0.648456  0.642185  0.410938  1
  Si  Si393  1  0.929817  0.362972  0.329696  1
  Si  Si394  1  0.930251  0.442814  0.329699  1
  Si  Si395  1  0.570430  0.538845  0.329696  1
  Si  Si396  1  0.570636  0.617812  0.329699  1
  Si  Si397  1  0.650556  0.841288  0.410736  1
  Si  Si398  1  0.646771  0.966295  0.411219  1
  Si  Si399  1  0.726205  0.904530  0.382894  1
  Si  Si400  1  0.731980  0.780726  0.382416  1
  Si  Si401  1  0.860143  0.928246  0.382474  1
  Si  Si402  1  0.865958  0.794335  0.410492  1
  Si  Si403  1  0.732149  0.701838  0.382600  1
  Si  Si404  1  0.930174  0.860844  0.382771  1
  Si  Si405  1  0.570154  0.862980  0.329679  1
  Si  Si406  1  0.569703  0.942822  0.329676  1
  Si  Si407  1  0.929669  0.757816  0.329713  1
  Si  Si408  1  0.929465  0.678807  0.329702  1
  H  H409  1  0.387795  0.280331  0.170831  1
  H  H410  1  0.110070  0.017307  0.170308  1
  H  H411  1  0.382189  0.164797  0.170364  1
  H  H412  1  0.114764  0.137151  0.170584  1
  H  H413  1  0.115815  0.344763  0.170991  1
  H  H414  1  0.113249  0.461437  0.170424  1
  H  H415  1  0.389908  0.517320  0.170323  1
  H  H416  1  0.117786  0.664791  0.170380  1
  H  H417  1  0.385223  0.637153  0.170604  1
  H  H418  1  0.384210  0.844744  0.171018  1
  H  H419  1  0.386724  0.961422  0.170459  1
  H  H420  1  0.112178  0.780311  0.170869  1
  H  H421  1  0.612205  0.280321  0.170847  1
  H  H422  1  0.889951  0.017312  0.170324  1
  H  H423  1  0.617810  0.164793  0.170376  1
  H  H424  1  0.885258  0.137147  0.170599  1
  H  H425  1  0.884219  0.344744  0.171012  1
  H  H426  1  0.886726  0.461423  0.170451  1
  H  H427  1  0.610037  0.517308  0.170321  1
  H  H428  1  0.882156  0.664791  0.170378  1
  H  H429  1  0.614741  0.637142  0.170599  1
  H  H430  1  0.615806  0.844766  0.170993  1
  H  H431  1  0.613248  0.961442  0.170427  1
  H  H432  1  0.887770  0.780316  0.170867  1
  H  H433  1  0.387806  0.280316  0.488521  1
  H  H434  1  0.110056  0.017312  0.489058  1
  H  H435  1  0.382193  0.164797  0.489001  1
  H  H436  1  0.114763  0.137148  0.488784  1
  H  H437  1  0.115789  0.344759  0.488360  1
  H  H438  1  0.113210  0.461437  0.488920  1
  H  H439  1  0.389905  0.517315  0.489076  1
  H  H440  1  0.117777  0.664795  0.489019  1
  H  H441  1  0.385222  0.637155  0.488806  1
  H  H442  1  0.384174  0.844750  0.488389  1
  H  H443  1  0.386679  0.961421  0.488955  1
  H  H444  1  0.112176  0.780330  0.488559  1
  H  H445  1  0.612213  0.280319  0.488538  1
  H  H446  1  0.889930  0.017315  0.489076  1
  H  H447  1  0.617816  0.164788  0.489017  1
  H  H448  1  0.885242  0.137148  0.488801  1
  H  H449  1  0.884196  0.344743  0.488382  1
  H  H450  1  0.886693  0.461418  0.488948  1
  H  H451  1  0.610028  0.517306  0.489070  1
  H  H452  1  0.882159  0.664798  0.489020  1
  H  H453  1  0.614734  0.637144  0.488799  1
  H  H454  1  0.615765  0.844764  0.488363  1
  H  H455  1  0.613198  0.961446  0.488922  1
  H  H456  1  0.887762  0.780327  0.488558  1
