# generated using pymatgen
data_Si30H2O61
_symmetry_space_group_name_H-M   'P 1'
_cell_length_a   12.16011045
_cell_length_b   12.16651561
_cell_length_c   72.67181485
_cell_angle_alpha   90.00000000
_cell_angle_beta   90.00000000
_cell_angle_gamma   90.00000000
_symmetry_Int_Tables_number   1
_chemical_formula_structural   Si30H2O61
_chemical_formula_sum   'Si120 H8 O244'
_cell_volume   10751.5169369
_cell_formula_units_Z   4
loop_
 _symmetry_equiv_pos_site_id
 _symmetry_equiv_pos_as_xyz
  1  'x, y, z'
loop_
 _atom_site_type_symbol
 _atom_site_label
 _atom_site_symmetry_multiplicity
 _atom_site_fract_x
 _atom_site_fract_y
 _atom_site_fract_z
 _atom_site_occupancy
  O  O1  1  0.000000  0.289063  0.081187  1
  O  O2  1  0.352596  0.147354  0.144371  1
  O  O3  1  0.852555  0.352327  0.144351  1
  O  O4  1  0.647560  0.147307  0.144362  1
  O  O5  1  0.147526  0.352314  0.144346  1
  O  O6  1  0.352209  0.102716  0.110076  1
  O  O7  1  0.897137  0.352094  0.110050  1
  O  O8  1  0.647912  0.102709  0.110066  1
  O  O9  1  0.103046  0.352100  0.110042  1
  O  O10  1  0.500078  0.223855  0.123737  1
  O  O11  1  0.775926  0.499803  0.123735  1
  O  O12  1  0.224197  0.499815  0.123741  1
  O  O13  1  -0.000000  0.275793  0.164977  1
  O  O14  1  0.297124  0.296849  0.121698  1
  O  O15  1  0.703038  0.296825  0.121693  1
  O  O16  1  0.202996  0.202816  0.167018  1
  O  O17  1  0.797100  0.202784  0.167017  1
  O  O18  1  0.000000  0.499877  0.092554  1
  O  O19  1  0.789207  0.499911  0.272425  1
  O  O20  1  0.210841  0.499902  0.272426  1
  O  O21  1  0.500009  0.210727  0.272422  1
  O  O22  1  0.210847  0.499818  0.207516  1
  O  O23  1  0.500067  0.210673  0.207525  1
  O  O24  1  0.703700  0.499879  0.239971  1
  O  O25  1  0.500032  0.296214  0.239973  1
  O  O26  1  0.396238  0.396120  0.264951  1
  O  O27  1  0.603812  0.396120  0.264952  1
  O  O28  1  0.396245  0.396067  0.214993  1
  O  O29  1  0.603821  0.396081  0.214993  1
  O  O30  1  0.147867  0.396944  0.301289  1
  O  O31  1  0.602951  0.147643  0.301279  1
  O  O32  1  0.852172  0.397008  0.301294  1
  O  O33  1  0.397041  0.147629  0.301278  1
  O  O34  1  0.147891  0.396939  0.178643  1
  O  O35  1  0.602993  0.147586  0.178663  1
  O  O36  1  0.852178  0.396900  0.178650  1
  O  O37  1  0.397076  0.147581  0.178672  1
  O  O38  1  0.789212  0.499843  0.207516  1
  O  O39  1  0.296351  0.499865  0.239970  1
  O  O40  1  0.000000  0.499912  0.283808  1
  O  O41  1  -0.000000  0.499814  0.196134  1
  O  O42  1  -0.000000  0.289047  0.398746  1
  O  O43  1  0.103862  0.103652  0.406219  1
  O  O44  1  0.896284  0.103653  0.406215  1
  O  O45  1  0.147520  0.352411  0.335588  1
  O  O46  1  0.647515  0.147410  0.335579  1
  O  O47  1  0.852527  0.352416  0.335590  1
  O  O48  1  0.352535  0.147374  0.335581  1
  O  O49  1  0.352192  0.102819  0.369880  1
  O  O50  1  0.897079  0.352150  0.369891  1
  O  O51  1  0.647899  0.102827  0.369876  1
  O  O52  1  0.102990  0.352157  0.369889  1
  O  O53  1  0.000000  0.275858  0.314966  1
  O  O54  1  0.500028  0.223941  0.356205  1
  O  O55  1  0.775916  0.499909  0.356203  1
  O  O56  1  0.202950  0.202835  0.312930  1
  O  O57  1  0.797049  0.202894  0.312923  1
  O  O58  1  0.297079  0.296926  0.358243  1
  O  O59  1  0.702975  0.296949  0.358245  1
  O  O60  1  0.000000  0.499887  0.387389  1
  O  O61  1  0.224173  0.499895  0.356201  1
  O  O62  1  0.289223  -0.000000  0.081201  1
  O  O63  1  0.710855  0.000000  0.081191  1
  O  O64  1  0.000000  0.710724  0.081198  1
  O  O65  1  0.647569  0.852359  0.144355  1
  O  O66  1  0.147556  0.647291  0.144356  1
  O  O67  1  0.352548  0.852360  0.144360  1
  O  O68  1  0.852535  0.647285  0.144352  1
  O  O69  1  0.647896  0.896859  0.110053  1
  O  O70  1  0.103018  0.647588  0.110055  1
  O  O71  1  0.352207  0.896868  0.110060  1
  O  O72  1  0.897104  0.647587  0.110053  1
  O  O73  1  0.500055  0.775775  0.123740  1
  O  O74  1  0.000000  0.723870  0.164971  1
  O  O75  1  0.275905  0.000000  0.164973  1
  O  O76  1  0.702992  0.702765  0.121696  1
  O  O77  1  0.297115  0.702773  0.121703  1
  O  O78  1  0.797082  0.796849  0.167013  1
  O  O79  1  0.202977  0.796885  0.167013  1
  O  O80  1  0.724173  -0.000000  0.164976  1
  O  O81  1  0.500042  -0.000000  0.092579  1
  O  O82  1  0.500019  0.789061  0.272418  1
  O  O83  1  0.500031  0.789008  0.207516  1
  O  O84  1  0.500018  0.703539  0.239968  1
  O  O85  1  0.603809  0.603672  0.264948  1
  O  O86  1  0.396231  0.603670  0.264948  1
  O  O87  1  0.603811  0.603629  0.214991  1
  O  O88  1  0.396237  0.603620  0.214990  1
  O  O89  1  0.852180  0.602857  0.301290  1
  O  O90  1  0.397090  0.852141  0.301280  1
  O  O91  1  0.147885  0.602794  0.301298  1
  O  O92  1  0.603001  0.852159  0.301274  1
  O  O93  1  0.852195  0.602749  0.178650  1
  O  O94  1  0.397069  0.852110  0.178661  1
  O  O95  1  0.147874  0.602787  0.178655  1
  O  O96  1  0.602975  0.852076  0.178655  1
  O  O97  1  0.500064  0.000000  0.196159  1
  O  O98  1  0.500011  0.000000  0.283781  1
  O  O99  1  -0.000000  0.710710  0.398753  1
  O  O100  1  0.289258  0.000000  0.398748  1
  O  O101  1  0.896283  0.896103  0.406220  1
  O  O102  1  0.103860  0.896097  0.406223  1
  O  O103  1  0.852553  0.647397  0.335589  1
  O  O104  1  0.352549  0.852396  0.335581  1
  O  O105  1  0.147518  0.647399  0.335594  1
  O  O106  1  0.647518  0.852411  0.335577  1
  O  O107  1  0.647901  0.896977  0.369874  1
  O  O108  1  0.103008  0.647630  0.369896  1
  O  O109  1  0.352207  0.896969  0.369879  1
  O  O110  1  0.897097  0.647648  0.369892  1
  O  O111  1  0.000000  0.723949  0.314966  1
  O  O112  1  0.275896  0.000000  0.314970  1
  O  O113  1  0.724150  0.000000  0.314967  1
  O  O114  1  0.500047  0.775848  0.356204  1
  O  O115  1  0.797097  0.796964  0.312927  1
  O  O116  1  0.202999  0.796911  0.312926  1
  O  O117  1  0.703002  0.702869  0.358242  1
  O  O118  1  0.297095  0.702857  0.358246  1
  O  O119  1  0.710887  0.000000  0.398741  1
  O  O120  1  0.500065  0.000000  0.387362  1
  O  O121  1  -0.000000  0.289063  0.463642  1
  O  O122  1  0.103831  0.103666  0.456177  1
  O  O123  1  0.896256  0.103665  0.456174  1
  O  O124  1  0.352596  0.147354  0.526826  1
  O  O125  1  0.852555  0.352327  0.526806  1
  O  O126  1  0.647560  0.147307  0.526817  1
  O  O127  1  0.147526  0.352314  0.526802  1
  O  O128  1  0.352209  0.102716  0.492531  1
  O  O129  1  0.897137  0.352094  0.492506  1
  O  O130  1  0.647912  0.102709  0.492521  1
  O  O131  1  0.103046  0.352100  0.492498  1
  O  O132  1  0.500078  0.223855  0.506193  1
  O  O133  1  0.775926  0.499803  0.506191  1
  O  O134  1  0.224197  0.499815  0.506196  1
  O  O135  1  -0.000000  0.275793  0.547432  1
  O  O136  1  0.297124  0.296849  0.504154  1
  O  O137  1  0.703038  0.296825  0.504148  1
  O  O138  1  0.202996  0.202816  0.549473  1
  O  O139  1  0.797100  0.202784  0.549472  1
  O  O140  1  0.000000  0.499877  0.475009  1
  O  O141  1  -0.000000  0.203540  0.431195  1
  O  O142  1  0.789207  0.499911  0.654881  1
  O  O143  1  0.210841  0.499902  0.654881  1
  O  O144  1  0.500009  0.210727  0.654877  1
  O  O145  1  0.210847  0.499818  0.589972  1
  O  O146  1  0.500067  0.210673  0.589980  1
  O  O147  1  0.703700  0.499879  0.622427  1
  O  O148  1  0.500032  0.296214  0.622428  1
  O  O149  1  0.396238  0.396120  0.647406  1
  O  O150  1  0.603812  0.396120  0.647407  1
  O  O151  1  0.396245  0.396067  0.597448  1
  O  O152  1  0.603821  0.396081  0.597449  1
  O  O153  1  0.147867  0.396944  0.683744  1
  O  O154  1  0.602951  0.147643  0.683734  1
  O  O155  1  0.852172  0.397008  0.683749  1
  O  O156  1  0.397041  0.147629  0.683734  1
  O  O157  1  0.147891  0.396939  0.561098  1
  O  O158  1  0.602993  0.147586  0.561118  1
  O  O159  1  0.852178  0.396900  0.561105  1
  O  O160  1  0.397076  0.147581  0.561128  1
  O  O161  1  0.789212  0.499843  0.589972  1
  O  O162  1  0.296351  0.499865  0.622426  1
  O  O163  1  0.000000  0.499912  0.666264  1
  O  O164  1  -0.000000  0.499814  0.578589  1
  O  O165  1  -0.000000  0.289047  0.781201  1
  O  O166  1  0.147520  0.352411  0.718043  1
  O  O167  1  0.647515  0.147410  0.718034  1
  O  O168  1  0.852527  0.352416  0.718046  1
  O  O169  1  0.352535  0.147374  0.718036  1
  O  O170  1  0.352192  0.102819  0.752335  1
  O  O171  1  0.897079  0.352150  0.752347  1
  O  O172  1  0.647899  0.102827  0.752331  1
  O  O173  1  0.102990  0.352157  0.752344  1
  O  O174  1  -0.000000  0.275858  0.697421  1
  O  O175  1  0.500028  0.223941  0.738660  1
  O  O176  1  0.775916  0.499909  0.738658  1
  O  O177  1  0.202950  0.202835  0.695385  1
  O  O178  1  0.797049  0.202894  0.695378  1
  O  O179  1  0.297079  0.296926  0.740698  1
  O  O180  1  0.702975  0.296949  0.740700  1
  O  O181  1  -0.000000  0.499887  0.769844  1
  O  O182  1  0.224173  0.499895  0.738656  1
  O  O183  1  0.289223  -0.000000  0.463657  1
  O  O184  1  0.710855  -0.000000  0.463647  1
  O  O185  1  0.000000  0.710724  0.463654  1
  O  O186  1  0.203734  0.000000  0.431202  1
  O  O187  1  0.000000  0.796221  0.431202  1
  O  O188  1  0.896260  0.896111  0.456178  1
  O  O189  1  0.103835  0.896116  0.456181  1
  O  O190  1  0.647569  0.852359  0.526810  1
  O  O191  1  0.147556  0.647291  0.526811  1
  O  O192  1  0.352548  0.852360  0.526815  1
  O  O193  1  0.852535  0.647285  0.526807  1
  O  O194  1  0.647896  0.896859  0.492508  1
  O  O195  1  0.103018  0.647588  0.492510  1
  O  O196  1  0.352207  0.896868  0.492515  1
  O  O197  1  0.897104  0.647587  0.492508  1
  O  O198  1  0.500055  0.775775  0.506195  1
  O  O199  1  -0.000000  0.723870  0.547427  1
  O  O200  1  0.275905  0.000000  0.547428  1
  O  O201  1  0.702992  0.702765  0.504151  1
  O  O202  1  0.297115  0.702773  0.504158  1
  O  O203  1  0.797082  0.796849  0.549469  1
  O  O204  1  0.202977  0.796885  0.549468  1
  O  O205  1  0.724173  -0.000000  0.547431  1
  O  O206  1  0.500042  -0.000000  0.475034  1
  O  O207  1  0.796389  0.000000  0.431195  1
  O  O208  1  0.500019  0.789061  0.654874  1
  O  O209  1  0.500031  0.789008  0.589971  1
  O  O210  1  0.500018  0.703539  0.622423  1
  O  O211  1  0.603809  0.603672  0.647404  1
  O  O212  1  0.396231  0.603670  0.647403  1
  O  O213  1  0.603811  0.603629  0.597446  1
  O  O214  1  0.396237  0.603620  0.597446  1
  O  O215  1  0.852180  0.602857  0.683746  1
  O  O216  1  0.397090  0.852141  0.683735  1
  O  O217  1  0.147885  0.602794  0.683753  1
  O  O218  1  0.603001  0.852159  0.683729  1
  O  O219  1  0.852195  0.602749  0.561105  1
  O  O220  1  0.397069  0.852110  0.561117  1
  O  O221  1  0.147874  0.602787  0.561111  1
  O  O222  1  0.602975  0.852076  0.561111  1
  O  O223  1  0.500064  -0.000000  0.578614  1
  O  O224  1  0.500011  0.000000  0.666237  1
  O  O225  1  0.000000  0.710710  0.781208  1
  O  O226  1  0.289258  0.000000  0.781204  1
  O  O227  1  0.852553  0.647397  0.718045  1
  O  O228  1  0.352549  0.852396  0.718036  1
  O  O229  1  0.147518  0.647399  0.718049  1
  O  O230  1  0.647518  0.852411  0.718032  1
  O  O231  1  0.647901  0.896977  0.752329  1
  O  O232  1  0.103008  0.647630  0.752351  1
  O  O233  1  0.352207  0.896969  0.752334  1
  O  O234  1  0.897097  0.647648  0.752347  1
  O  O235  1  -0.000000  0.723949  0.697421  1
  O  O236  1  0.275896  0.000000  0.697426  1
  O  O237  1  0.724150  0.000000  0.697423  1
  O  O238  1  0.500047  0.775848  0.738660  1
  O  O239  1  0.797097  0.796964  0.695382  1
  O  O240  1  0.202999  0.796911  0.695382  1
  O  O241  1  0.703002  0.702869  0.740697  1
  O  O242  1  0.297095  0.702857  0.740702  1
  O  O243  1  0.710887  -0.000000  0.781196  1
  O  O244  1  0.500065  -0.000000  0.769817  1
  Si  Si245  1  0.000000  0.373150  0.097536  1
  Si  Si246  1  0.304745  0.125721  0.164071  1
  Si  Si247  1  0.874110  0.304563  0.164058  1
  Si  Si248  1  0.695351  0.125694  0.164067  1
  Si  Si249  1  0.374145  0.195083  0.124661  1
  Si  Si250  1  0.804767  0.373936  0.124645  1
  Si  Si251  1  0.626008  0.195064  0.124654  1
  Si  Si252  1  0.195373  0.373943  0.124645  1
  Si  Si253  1  0.125973  0.304579  0.164056  1
  Si  Si254  1  0.873250  0.499823  0.191157  1
  Si  Si255  1  0.321229  0.499890  0.261176  1
  Si  Si256  1  0.500025  0.321089  0.261178  1
  Si  Si257  1  0.321238  0.499843  0.218766  1
  Si  Si258  1  0.500038  0.321046  0.218767  1
  Si  Si259  1  0.873244  0.499923  0.288785  1
  Si  Si260  1  0.126808  0.499889  0.288787  1
  Si  Si261  1  0.500000  0.126613  0.288767  1
  Si  Si262  1  0.126813  0.499835  0.191156  1
  Si  Si263  1  0.500056  0.126563  0.191179  1
  Si  Si264  1  0.678821  0.499860  0.218766  1
  Si  Si265  1  0.678815  0.499896  0.261176  1
  Si  Si266  1  0.000000  0.373167  0.382402  1
  Si  Si267  1  0.304706  0.125751  0.315879  1
  Si  Si268  1  0.374098  0.195153  0.355287  1
  Si  Si269  1  0.195339  0.374026  0.355291  1
  Si  Si270  1  0.625962  0.195172  0.355286  1
  Si  Si271  1  0.804727  0.374035  0.355295  1
  Si  Si272  1  0.000000  0.178682  0.409989  1
  Si  Si273  1  0.125943  0.304620  0.315883  1
  Si  Si274  1  0.695314  0.125788  0.315875  1
  Si  Si275  1  0.874079  0.304655  0.315882  1
  Si  Si276  1  -0.000000  0.626596  0.097541  1
  Si  Si277  1  0.625988  0.804552  0.124651  1
  Si  Si278  1  0.195366  0.625684  0.124652  1
  Si  Si279  1  0.374124  0.804556  0.124656  1
  Si  Si280  1  0.804742  0.625677  0.124647  1
  Si  Si281  1  0.874103  0.695078  0.164057  1
  Si  Si282  1  0.304724  0.873979  0.164063  1
  Si  Si283  1  0.125968  0.695101  0.164059  1
  Si  Si284  1  0.695345  0.873952  0.164061  1
  Si  Si285  1  0.373266  -0.000000  0.097561  1
  Si  Si286  1  0.626827  0.000000  0.097553  1
  Si  Si287  1  0.500038  0.873116  0.191171  1
  Si  Si288  1  0.500031  0.873167  0.288765  1
  Si  Si289  1  0.500021  0.678657  0.218763  1
  Si  Si290  1  0.500019  0.678697  0.261175  1
  Si  Si291  1  0.821276  -0.000000  0.409990  1
  Si  Si292  1  0.000000  0.821075  0.409996  1
  Si  Si293  1  0.874107  0.695184  0.315883  1
  Si  Si294  1  0.304740  0.874010  0.315878  1
  Si  Si295  1  0.125970  0.695149  0.315886  1
  Si  Si296  1  0.695337  0.874045  0.315874  1
  Si  Si297  1  0.625977  0.804636  0.355284  1
  Si  Si298  1  0.195347  0.625767  0.355296  1
  Si  Si299  1  0.374115  0.804628  0.355288  1
  Si  Si300  1  0.804750  0.625778  0.355293  1
  Si  Si301  1  -0.000000  0.626612  0.382406  1
  Si  Si302  1  0.373281  0.000000  0.382386  1
  Si  Si303  1  0.626843  0.000000  0.382382  1
  Si  Si304  1  0.178863  0.000000  0.409996  1
  Si  Si305  1  0.000000  0.373150  0.479991  1
  Si  Si306  1  0.304745  0.125721  0.546526  1
  Si  Si307  1  0.874110  0.304563  0.546514  1
  Si  Si308  1  -0.000000  0.178692  0.452401  1
  Si  Si309  1  0.695351  0.125694  0.546522  1
  Si  Si310  1  0.374145  0.195083  0.507116  1
  Si  Si311  1  0.804767  0.373936  0.507101  1
  Si  Si312  1  0.626008  0.195064  0.507109  1
  Si  Si313  1  0.195373  0.373943  0.507101  1
  Si  Si314  1  0.125973  0.304579  0.546511  1
  Si  Si315  1  0.873250  0.499823  0.573612  1
  Si  Si316  1  0.321229  0.499890  0.643631  1
  Si  Si317  1  0.500025  0.321089  0.643634  1
  Si  Si318  1  0.321238  0.499843  0.601221  1
  Si  Si319  1  0.500038  0.321046  0.601222  1
  Si  Si320  1  0.873244  0.499923  0.671240  1
  Si  Si321  1  0.126808  0.499889  0.671242  1
  Si  Si322  1  0.500000  0.126613  0.671222  1
  Si  Si323  1  0.126813  0.499835  0.573611  1
  Si  Si324  1  0.500056  0.126563  0.573634  1
  Si  Si325  1  0.678821  0.499860  0.601221  1
  Si  Si326  1  0.678815  0.499896  0.643631  1
  Si  Si327  1  0.000000  0.373167  0.764857  1
  Si  Si328  1  0.304706  0.125751  0.698334  1
  Si  Si329  1  0.374098  0.195153  0.737743  1
  Si  Si330  1  0.195339  0.374026  0.737746  1
  Si  Si331  1  0.625962  0.195172  0.737742  1
  Si  Si332  1  0.804727  0.374035  0.737750  1
  Si  Si333  1  0.125943  0.304620  0.698338  1
  Si  Si334  1  0.695314  0.125788  0.698330  1
  Si  Si335  1  0.874079  0.304655  0.698338  1
  Si  Si336  1  0.000000  0.626596  0.479996  1
  Si  Si337  1  -0.000000  0.821082  0.452408  1
  Si  Si338  1  0.625988  0.804552  0.507106  1
  Si  Si339  1  0.195366  0.625684  0.507107  1
  Si  Si340  1  0.374124  0.804556  0.507111  1
  Si  Si341  1  0.804742  0.625677  0.507102  1
  Si  Si342  1  0.874103  0.695078  0.546512  1
  Si  Si343  1  0.304724  0.873979  0.546518  1
  Si  Si344  1  0.125968  0.695101  0.546514  1
  Si  Si345  1  0.695345  0.873952  0.546516  1
  Si  Si346  1  0.373266  -0.000000  0.480016  1
  Si  Si347  1  0.626827  0.000000  0.480009  1
  Si  Si348  1  0.178840  0.000000  0.452406  1
  Si  Si349  1  0.821257  -0.000000  0.452400  1
  Si  Si350  1  0.500038  0.873116  0.573626  1
  Si  Si351  1  0.500031  0.873167  0.671220  1
  Si  Si352  1  0.500021  0.678657  0.601218  1
  Si  Si353  1  0.500019  0.678697  0.643630  1
  Si  Si354  1  0.874107  0.695184  0.698339  1
  Si  Si355  1  0.304740  0.874010  0.698333  1
  Si  Si356  1  0.125970  0.695149  0.698341  1
  Si  Si357  1  0.695337  0.874045  0.698329  1
  Si  Si358  1  0.625977  0.804636  0.737739  1
  Si  Si359  1  0.195347  0.625767  0.737751  1
  Si  Si360  1  0.374115  0.804628  0.737744  1
  Si  Si361  1  0.804750  0.625778  0.737749  1
  Si  Si362  1  0.000000  0.626612  0.764861  1
  Si  Si363  1  0.373281  0.000000  0.764841  1
  Si  Si364  1  0.626843  -0.000000  0.764837  1
  H  H365  1  0.000000  0.289063  0.068802  1
  H  H366  1  0.289223  0.000000  0.068817  1
  H  H367  1  0.710855  -0.000000  0.068807  1
  H  H368  1  0.000000  0.710724  0.068814  1
  H  H369  1  0.000000  0.289047  0.793586  1
  H  H370  1  0.000000  0.710710  0.793593  1
  H  H371  1  0.289258  -0.000000  0.793588  1
  H  H372  1  0.710887  -0.000000  0.793580  1
