# generated using pymatgen
data_Si65H18O139
_symmetry_space_group_name_H-M   'P 1'
_cell_length_a   14.20306309
_cell_length_b   35.25439057
_cell_length_c   60.20427534
_cell_angle_alpha   90.00000000
_cell_angle_beta   45.05152913
_cell_angle_gamma   78.35781339
_symmetry_Int_Tables_number   1
_chemical_formula_structural   Si65H18O139
_chemical_formula_sum   'Si130 H36 O278'
_cell_volume   20449.5974579
_cell_formula_units_Z   2
loop_
 _symmetry_equiv_pos_site_id
 _symmetry_equiv_pos_as_xyz
  1  'x, y, z'
loop_
 _atom_site_type_symbol
 _atom_site_label
 _atom_site_symmetry_multiplicity
 _atom_site_fract_x
 _atom_site_fract_y
 _atom_site_fract_z
 _atom_site_occupancy
  Si  Si1  1  0.922647  0.434906  0.322473  1
  Si  Si2  1  0.707789  0.434977  0.322501  1
  Si  Si3  1  0.263299  0.487077  0.331161  1
  Si  Si4  1  0.671685  0.727599  0.321483  1
  Si  Si5  1  0.147462  0.744561  0.326753  1
  Si  Si6  1  0.237086  0.012947  0.418794  1
  Si  Si7  1  0.008579  0.093906  0.381721  1
  Si  Si8  1  0.303686  0.093851  0.482859  1
  Si  Si9  1  0.605970  0.094507  0.381862  1
  Si  Si10  1  0.705075  0.094563  0.482905  1
  Si  Si11  1  0.413659  0.041959  0.423457  1
  Si  Si12  1  0.002450  0.041995  0.423809  1
  Si  Si13  1  0.378379  0.159323  0.443429  1
  Si  Si14  1  0.802980  0.159401  0.442964  1
  Si  Si15  1  0.792013  0.065080  0.391686  1
  Si  Si16  1  0.577953  0.065085  0.463267  1
  Si  Si17  1  0.626738  0.272428  0.412318  1
  Si  Si18  1  0.328293  0.272445  0.345133  1
  Si  Si19  1  0.171496  0.227567  0.454634  1
  Si  Si20  1  0.873323  0.227644  0.454528  1
  Si  Si21  1  0.363022  0.244468  0.457591  1
  Si  Si22  1  0.647930  0.244552  0.457224  1
  Si  Si23  1  0.852464  0.255515  0.339885  1
  Si  Si24  1  0.136529  0.255564  0.411938  1
  Si  Si25  1  0.794295  0.405920  0.384673  1
  Si  Si26  1  0.893232  0.405767  0.417330  1
  Si  Si27  1  0.196462  0.405970  0.417303  1
  Si  Si28  1  0.491471  0.405729  0.384553  1
  Si  Si29  1  0.496555  0.458070  0.424631  1
  Si  Si30  1  0.086309  0.458105  0.394688  1
  Si  Si31  1  0.697474  0.340667  0.377310  1
  Si  Si32  1  0.120851  0.340707  0.402872  1
  Si  Si33  1  0.922647  0.434906  0.489140  1
  Si  Si34  1  0.707789  0.434977  0.489167  1
  Si  Si35  1  0.263299  0.487077  0.497827  1
  Si  Si36  1  0.204592  0.594317  0.448791  1
  Si  Si37  1  0.106284  0.594138  0.416015  1
  Si  Si38  1  0.802881  0.594389  0.415997  1
  Si  Si39  1  0.508322  0.594133  0.448673  1
  Si  Si40  1  0.502446  0.542034  0.408662  1
  Si  Si41  1  0.912562  0.542066  0.438650  1
  Si  Si42  1  0.301927  0.659374  0.456060  1
  Si  Si43  1  0.879172  0.659406  0.430354  1
  Si  Si44  1  0.077754  0.565024  0.344194  1
  Si  Si45  1  0.292591  0.565068  0.344156  1
  Si  Si46  1  0.737441  0.512911  0.335470  1
  Si  Si47  1  0.828359  0.772435  0.378734  1
  Si  Si48  1  0.127016  0.772502  0.378681  1
  Si  Si49  1  0.373356  0.727554  0.420980  1
  Si  Si50  1  0.671685  0.727599  0.488150  1
  Si  Si51  1  0.147462  0.744561  0.493420  1
  Si  Si52  1  0.863760  0.744584  0.421372  1
  Si  Si53  1  0.636061  0.755445  0.376057  1
  Si  Si54  1  0.353195  0.755529  0.375725  1
  Si  Si55  1  0.991791  0.905500  0.451442  1
  Si  Si56  1  0.697312  0.905441  0.350347  1
  Si  Si57  1  0.392995  0.906127  0.451545  1
  Si  Si58  1  0.294827  0.906182  0.350442  1
  Si  Si59  1  0.587428  0.958002  0.409494  1
  Si  Si60  1  0.996594  0.958035  0.409795  1
  Si  Si61  1  0.620168  0.840627  0.390329  1
  Si  Si62  1  0.198693  0.840702  0.389845  1
  Si  Si63  1  0.207288  0.934979  0.441590  1
  Si  Si64  1  0.422896  0.934979  0.370010  1
  Si  Si65  1  0.762941  0.987112  0.414485  1
  O  O66  1  0.306884  0.261658  0.323767  1
  O  O67  1  0.489287  0.261530  0.323464  1
  O  O68  1  0.010796  0.238412  0.319993  1
  O  O69  1  0.830787  0.238450  0.319932  1
  O  O70  1  0.770652  0.421141  0.288268  1
  O  O71  1  0.078903  0.421005  0.288274  1
  O  O72  1  0.382285  0.462918  0.295530  1
  O  O73  1  0.853896  0.481529  0.330257  1
  O  O74  1  0.683543  0.481574  0.330246  1
  O  O75  1  0.830088  0.420022  0.319999  1
  O  O76  1  0.112990  0.578833  0.314559  1
  O  O77  1  0.420982  0.579000  0.314594  1
  O  O78  1  0.808195  0.537038  0.307880  1
  O  O79  1  0.251685  0.751599  0.290826  1
  O  O80  1  0.745396  0.751636  0.292980  1
  O  O81  1  0.756955  0.683218  0.300496  1
  O  O82  1  0.194650  0.696799  0.319018  1
  O  O83  1  0.849964  0.900067  0.316657  1
  O  O84  1  0.348831  0.901186  0.316839  1
  O  O85  1  0.920619  0.078934  0.378381  1
  O  O86  1  0.421610  0.078908  0.481204  1
  O  O87  1  0.728896  0.078968  0.378470  1
  O  O88  1  0.613305  0.079002  0.481102  1
  O  O89  1  0.910462  0.133390  0.408000  1
  O  O90  1  0.322863  0.133322  0.469726  1
  O  O91  1  0.507593  0.133824  0.408313  1
  O  O92  1  0.724787  0.133894  0.469576  1
  O  O93  1  0.034010  0.063530  0.397205  1
  O  O94  1  0.339069  0.063464  0.457244  1
  O  O95  1  0.516280  0.064614  0.397311  1
  O  O96  1  0.854578  0.064687  0.457503  1
  O  O97  1  0.151204  0.098814  0.349777  1
  O  O98  1  0.650085  0.099927  0.349956  1
  O  O99  1  0.307160  0.037134  0.422999  1
  O  O100  1  0.118642  0.037113  0.422646  1
  O  O101  1  0.996489  0.000018  0.417809  1
  O  O102  1  0.816435  0.018470  0.391314  1
  O  O103  1  0.646763  0.018475  0.448107  1
  O  O104  1  0.670038  0.079999  0.429962  1
  O  O105  1  0.748163  0.248425  0.375796  1
  O  O106  1  0.254954  0.248461  0.373665  1
  O  O107  1  0.244993  0.251562  0.458660  1
  O  O108  1  0.751776  0.251642  0.458520  1
  O  O109  1  0.669657  0.261738  0.430111  1
  O  O110  1  0.306884  0.261658  0.490434  1
  O  O111  1  0.487679  0.261451  0.430341  1
  O  O112  1  0.489287  0.261530  0.490130  1
  O  O113  1  0.010796  0.238412  0.486660  1
  O  O114  1  0.012272  0.238526  0.426136  1
  O  O115  1  0.192357  0.238420  0.426182  1
  O  O116  1  0.830787  0.238450  0.486599  1
  O  O117  1  0.622697  0.316822  0.406158  1
  O  O118  1  0.243290  0.316847  0.366079  1
  O  O119  1  0.256353  0.183169  0.447304  1
  O  O120  1  0.877333  0.183247  0.447029  1
  O  O121  1  0.410881  0.196712  0.449784  1
  O  O122  1  0.695643  0.196793  0.449093  1
  O  O123  1  0.805410  0.303276  0.347658  1
  O  O124  1  0.088299  0.303324  0.420074  1
  O  O125  1  0.887552  0.420965  0.352061  1
  O  O126  1  0.770652  0.421141  0.454935  1
  O  O127  1  0.078903  0.421005  0.454941  1
  O  O128  1  0.579149  0.421176  0.352098  1
  O  O129  1  0.774054  0.366551  0.378152  1
  O  O130  1  0.991841  0.366319  0.410784  1
  O  O131  1  0.176373  0.366625  0.410703  1
  O  O132  1  0.590442  0.366292  0.377899  1
  O  O133  1  0.645864  0.436382  0.408612  1
  O  O134  1  0.982925  0.435658  0.402928  1
  O  O135  1  0.161109  0.436455  0.403525  1
  O  O136  1  0.464847  0.435552  0.408972  1
  O  O137  1  0.848204  0.400695  0.400297  1
  O  O138  1  0.349333  0.400689  0.399908  1
  O  O139  1  0.382285  0.462918  0.462197  1
  O  O140  1  0.192796  0.462849  0.358704  1
  O  O141  1  0.853896  0.481529  0.496924  1
  O  O142  1  0.683543  0.481574  0.496913  1
  O  O143  1  0.830088  0.420022  0.486665  1
  O  O144  1  0.112990  0.578833  0.481226  1
  O  O145  1  0.229645  0.578967  0.378396  1
  O  O146  1  0.921516  0.578853  0.378397  1
  O  O147  1  0.420982  0.579000  0.481261  1
  O  O148  1  0.223966  0.633770  0.455498  1
  O  O149  1  0.007668  0.633512  0.422504  1
  O  O150  1  0.823172  0.633823  0.422436  1
  O  O151  1  0.409342  0.633481  0.455249  1
  O  O152  1  0.354331  0.564569  0.424330  1
  O  O153  1  0.018221  0.563817  0.429943  1
  O  O154  1  0.835626  0.564637  0.430556  1
  O  O155  1  0.534079  0.563716  0.424674  1
  O  O156  1  0.149513  0.599437  0.433425  1
  O  O157  1  0.650628  0.599439  0.433038  1
  O  O158  1  0.618526  0.537110  0.371090  1
  O  O159  1  0.808195  0.537038  0.474546  1
  O  O160  1  0.496807  0.500073  0.416685  1
  O  O161  1  0.997564  0.500216  0.416462  1
  O  O162  1  0.146660  0.518426  0.336405  1
  O  O163  1  0.317093  0.518449  0.336391  1
  O  O164  1  0.170214  0.579959  0.346661  1
  O  O165  1  0.754830  0.748397  0.374742  1
  O  O166  1  0.248586  0.748472  0.374675  1
  O  O167  1  0.251685  0.751599  0.457492  1
  O  O168  1  0.745396  0.751636  0.459647  1
  O  O169  1  0.989041  0.761651  0.346687  1
  O  O170  1  0.987884  0.761730  0.407139  1
  O  O171  1  0.807704  0.761599  0.407158  1
  O  O172  1  0.169361  0.761652  0.346644  1
  O  O173  1  0.331372  0.738534  0.402969  1
  O  O174  1  0.691836  0.738491  0.343145  1
  O  O175  1  0.512397  0.738217  0.403156  1
  O  O176  1  0.511299  0.738332  0.342873  1
  O  O177  1  0.742851  0.816816  0.386244  1
  O  O178  1  0.123715  0.816884  0.385970  1
  O  O179  1  0.376551  0.683176  0.427182  1
  O  O180  1  0.756955  0.683218  0.467162  1
  O  O181  1  0.194650  0.696799  0.485685  1
  O  O182  1  0.912269  0.696823  0.413197  1
  O  O183  1  0.587085  0.803207  0.384203  1
  O  O184  1  0.306585  0.803289  0.383516  1
  O  O185  1  0.078853  0.921104  0.454807  1
  O  O186  1  0.579052  0.921070  0.352183  1
  O  O187  1  0.269989  0.921126  0.454908  1
  O  O188  1  0.387914  0.921159  0.352063  1
  O  O189  1  0.091640  0.866204  0.424968  1
  O  O190  1  0.676114  0.866133  0.363710  1
  O  O191  1  0.491872  0.866623  0.425289  1
  O  O192  1  0.274983  0.866691  0.363546  1
  O  O193  1  0.964857  0.935363  0.435964  1
  O  O194  1  0.664566  0.935295  0.375773  1
  O  O195  1  0.481056  0.936447  0.436070  1
  O  O196  1  0.146140  0.936511  0.376036  1
  O  O197  1  0.849964  0.900067  0.483324  1
  O  O198  1  0.348831  0.901186  0.483506  1
  O  O199  1  0.691774  0.962948  0.410635  1
  O  O200  1  0.882419  0.962926  0.410282  1
  O  O201  1  0.182929  0.981587  0.441966  1
  O  O202  1  0.354027  0.981587  0.385169  1
  O  O203  1  0.329979  0.920063  0.403315  1
  O  O204  1  0.503360  0.999937  0.415467  1
  H  H205  1  0.306884  0.261658  0.308818  1
  H  H206  1  0.489287  0.261530  0.308515  1
  H  H207  1  0.010796  0.238412  0.305044  1
  H  H208  1  0.830787  0.238450  0.304983  1
  H  H209  1  0.770652  0.421141  0.273319  1
  H  H210  1  0.078903  0.421005  0.273325  1
  H  H211  1  0.382285  0.462918  0.280581  1
  H  H212  1  0.112990  0.578833  0.299610  1
  H  H213  1  0.420982  0.579000  0.299645  1
  H  H214  1  0.808195  0.537038  0.292931  1
  H  H215  1  0.251685  0.751599  0.275877  1
  H  H216  1  0.745396  0.751636  0.278031  1
  H  H217  1  0.756955  0.683218  0.285547  1
  H  H218  1  0.194650  0.696799  0.304069  1
  H  H219  1  0.849964  0.900067  0.301708  1
  H  H220  1  0.348831  0.901186  0.301891  1
  H  H221  1  0.151204  0.098814  0.334828  1
  H  H222  1  0.650085  0.099927  0.335006  1
  Si  Si223  1  0.237086  0.012947  0.585460  1
  Si  Si224  1  0.008579  0.093906  0.548388  1
  Si  Si225  1  0.303686  0.093851  0.649526  1
  Si  Si226  1  0.605970  0.094507  0.548529  1
  Si  Si227  1  0.705075  0.094563  0.649572  1
  Si  Si228  1  0.413659  0.041959  0.590124  1
  Si  Si229  1  0.002450  0.041995  0.590476  1
  Si  Si230  1  0.378379  0.159323  0.610095  1
  Si  Si231  1  0.802980  0.159401  0.609630  1
  Si  Si232  1  0.792013  0.065080  0.558353  1
  Si  Si233  1  0.577953  0.065085  0.629934  1
  Si  Si234  1  0.626738  0.272428  0.578985  1
  Si  Si235  1  0.328293  0.272445  0.511799  1
  Si  Si236  1  0.171496  0.227567  0.621301  1
  Si  Si237  1  0.873323  0.227644  0.621194  1
  Si  Si238  1  0.363022  0.244468  0.624258  1
  Si  Si239  1  0.647930  0.244552  0.623890  1
  Si  Si240  1  0.852464  0.255515  0.506552  1
  Si  Si241  1  0.136529  0.255564  0.578605  1
  Si  Si242  1  0.794295  0.405920  0.551341  1
  Si  Si243  1  0.893232  0.405767  0.583997  1
  Si  Si244  1  0.196462  0.405970  0.583970  1
  Si  Si245  1  0.491471  0.405729  0.551220  1
  Si  Si246  1  0.496555  0.458070  0.591297  1
  Si  Si247  1  0.086309  0.458105  0.561355  1
  Si  Si248  1  0.697474  0.340667  0.543977  1
  Si  Si249  1  0.120851  0.340707  0.569538  1
  Si  Si250  1  0.922647  0.434906  0.655806  1
  Si  Si251  1  0.707789  0.434977  0.655834  1
  Si  Si252  1  0.263299  0.487077  0.664494  1
  Si  Si253  1  0.204592  0.594317  0.615458  1
  Si  Si254  1  0.106284  0.594138  0.582681  1
  Si  Si255  1  0.802881  0.594389  0.582664  1
  Si  Si256  1  0.508322  0.594133  0.615340  1
  Si  Si257  1  0.502446  0.542034  0.575330  1
  Si  Si258  1  0.912562  0.542066  0.605317  1
  Si  Si259  1  0.301927  0.659374  0.622727  1
  Si  Si260  1  0.879172  0.659406  0.597021  1
  Si  Si261  1  0.077754  0.565024  0.510861  1
  Si  Si262  1  0.292591  0.565068  0.510822  1
  Si  Si263  1  0.737441  0.512911  0.502136  1
  Si  Si264  1  0.828359  0.772435  0.545401  1
  Si  Si265  1  0.127016  0.772502  0.545347  1
  Si  Si266  1  0.373356  0.727554  0.587646  1
  Si  Si267  1  0.671685  0.727599  0.654816  1
  Si  Si268  1  0.147462  0.744561  0.660087  1
  Si  Si269  1  0.863760  0.744584  0.588039  1
  Si  Si270  1  0.636061  0.755445  0.542724  1
  Si  Si271  1  0.353195  0.755529  0.542392  1
  Si  Si272  1  0.991791  0.905500  0.618109  1
  Si  Si273  1  0.697312  0.905441  0.517014  1
  Si  Si274  1  0.392995  0.906127  0.618213  1
  Si  Si275  1  0.294827  0.906182  0.517109  1
  Si  Si276  1  0.587428  0.958002  0.576161  1
  Si  Si277  1  0.996594  0.958035  0.576461  1
  Si  Si278  1  0.620168  0.840627  0.556996  1
  Si  Si279  1  0.198693  0.840702  0.556512  1
  Si  Si280  1  0.207288  0.934979  0.608257  1
  Si  Si281  1  0.422896  0.934979  0.536677  1
  Si  Si282  1  0.762941  0.987112  0.581152  1
  Si  Si283  1  0.328293  0.272445  0.678466  1
  Si  Si284  1  0.852464  0.255515  0.673218  1
  Si  Si285  1  0.077754  0.565024  0.677528  1
  Si  Si286  1  0.292591  0.565068  0.677489  1
  Si  Si287  1  0.737441  0.512911  0.668803  1
  O  O288  1  0.920619  0.078934  0.545048  1
  O  O289  1  0.421610  0.078908  0.647871  1
  O  O290  1  0.728896  0.078968  0.545137  1
  O  O291  1  0.613305  0.079002  0.647768  1
  O  O292  1  0.910462  0.133390  0.574667  1
  O  O293  1  0.322863  0.133322  0.636393  1
  O  O294  1  0.507593  0.133824  0.574980  1
  O  O295  1  0.724787  0.133894  0.636243  1
  O  O296  1  0.034010  0.063530  0.563871  1
  O  O297  1  0.339069  0.063464  0.623911  1
  O  O298  1  0.516280  0.064614  0.563978  1
  O  O299  1  0.854578  0.064687  0.624170  1
  O  O300  1  0.151204  0.098814  0.516444  1
  O  O301  1  0.650085  0.099927  0.516622  1
  O  O302  1  0.307160  0.037134  0.589666  1
  O  O303  1  0.118642  0.037113  0.589313  1
  O  O304  1  0.996489  0.000018  0.584476  1
  O  O305  1  0.816435  0.018470  0.557980  1
  O  O306  1  0.646763  0.018475  0.614773  1
  O  O307  1  0.670038  0.079999  0.596629  1
  O  O308  1  0.748163  0.248425  0.542462  1
  O  O309  1  0.254954  0.248461  0.540331  1
  O  O310  1  0.244993  0.251562  0.625327  1
  O  O311  1  0.751776  0.251642  0.625186  1
  O  O312  1  0.669657  0.261738  0.596778  1
  O  O313  1  0.306884  0.261658  0.657101  1
  O  O314  1  0.487679  0.261451  0.597008  1
  O  O315  1  0.489287  0.261530  0.656797  1
  O  O316  1  0.010796  0.238412  0.653326  1
  O  O317  1  0.012272  0.238526  0.592802  1
  O  O318  1  0.192357  0.238420  0.592849  1
  O  O319  1  0.830787  0.238450  0.653266  1
  O  O320  1  0.622697  0.316822  0.572824  1
  O  O321  1  0.243290  0.316847  0.532746  1
  O  O322  1  0.256353  0.183169  0.613971  1
  O  O323  1  0.877333  0.183247  0.613696  1
  O  O324  1  0.410881  0.196712  0.616451  1
  O  O325  1  0.695643  0.196793  0.615760  1
  O  O326  1  0.805410  0.303276  0.514324  1
  O  O327  1  0.088299  0.303324  0.586740  1
  O  O328  1  0.887552  0.420965  0.518728  1
  O  O329  1  0.770652  0.421141  0.621602  1
  O  O330  1  0.078903  0.421005  0.621607  1
  O  O331  1  0.579149  0.421176  0.518764  1
  O  O332  1  0.774054  0.366551  0.544818  1
  O  O333  1  0.991841  0.366319  0.577451  1
  O  O334  1  0.176373  0.366625  0.577371  1
  O  O335  1  0.590442  0.366292  0.544566  1
  O  O336  1  0.645864  0.436382  0.575278  1
  O  O337  1  0.982925  0.435658  0.569595  1
  O  O338  1  0.161109  0.436455  0.570191  1
  O  O339  1  0.464847  0.435552  0.575639  1
  O  O340  1  0.848204  0.400695  0.566963  1
  O  O341  1  0.349333  0.400689  0.566575  1
  O  O342  1  0.382285  0.462918  0.628863  1
  O  O343  1  0.192796  0.462849  0.525371  1
  O  O344  1  0.853896  0.481529  0.663591  1
  O  O345  1  0.683543  0.481574  0.663580  1
  O  O346  1  0.830088  0.420022  0.653332  1
  O  O347  1  0.112990  0.578833  0.647892  1
  O  O348  1  0.229645  0.578967  0.545063  1
  O  O349  1  0.921516  0.578853  0.545064  1
  O  O350  1  0.420982  0.579000  0.647927  1
  O  O351  1  0.223966  0.633770  0.622165  1
  O  O352  1  0.007668  0.633512  0.589171  1
  O  O353  1  0.823172  0.633823  0.589102  1
  O  O354  1  0.409342  0.633481  0.621916  1
  O  O355  1  0.354331  0.564569  0.590997  1
  O  O356  1  0.018221  0.563817  0.596610  1
  O  O357  1  0.835626  0.564637  0.597222  1
  O  O358  1  0.534079  0.563716  0.591341  1
  O  O359  1  0.149513  0.599437  0.600091  1
  O  O360  1  0.650628  0.599439  0.599704  1
  O  O361  1  0.618526  0.537110  0.537757  1
  O  O362  1  0.808195  0.537038  0.641213  1
  O  O363  1  0.496807  0.500073  0.583352  1
  O  O364  1  0.997564  0.500216  0.583128  1
  O  O365  1  0.146660  0.518426  0.503072  1
  O  O366  1  0.317093  0.518449  0.503058  1
  O  O367  1  0.170214  0.579959  0.513328  1
  O  O368  1  0.754830  0.748397  0.541408  1
  O  O369  1  0.248586  0.748472  0.541342  1
  O  O370  1  0.251685  0.751599  0.624159  1
  O  O371  1  0.745396  0.751636  0.626314  1
  O  O372  1  0.989041  0.761651  0.513355  1
  O  O373  1  0.987884  0.761730  0.573806  1
  O  O374  1  0.807704  0.761599  0.573825  1
  O  O375  1  0.169361  0.761652  0.513311  1
  O  O376  1  0.331372  0.738534  0.569635  1
  O  O377  1  0.691836  0.738491  0.509811  1
  O  O378  1  0.512397  0.738217  0.569823  1
  O  O379  1  0.511299  0.738332  0.509540  1
  O  O380  1  0.742851  0.816816  0.552911  1
  O  O381  1  0.123715  0.816884  0.552637  1
  O  O382  1  0.376551  0.683176  0.593849  1
  O  O383  1  0.756955  0.683218  0.633830  1
  O  O384  1  0.194650  0.696799  0.652351  1
  O  O385  1  0.912269  0.696823  0.579863  1
  O  O386  1  0.587085  0.803207  0.550870  1
  O  O387  1  0.306585  0.803289  0.550183  1
  O  O388  1  0.078853  0.921104  0.621474  1
  O  O389  1  0.579052  0.921070  0.518849  1
  O  O390  1  0.269989  0.921126  0.621574  1
  O  O391  1  0.387914  0.921159  0.518730  1
  O  O392  1  0.091640  0.866204  0.591635  1
  O  O393  1  0.676114  0.866133  0.530377  1
  O  O394  1  0.491872  0.866623  0.591956  1
  O  O395  1  0.274983  0.866691  0.530212  1
  O  O396  1  0.964857  0.935363  0.602631  1
  O  O397  1  0.664566  0.935295  0.542440  1
  O  O398  1  0.481056  0.936447  0.602737  1
  O  O399  1  0.146140  0.936511  0.542702  1
  O  O400  1  0.849964  0.900067  0.649991  1
  O  O401  1  0.348831  0.901186  0.650173  1
  O  O402  1  0.691774  0.962948  0.577302  1
  O  O403  1  0.882419  0.962926  0.576950  1
  O  O404  1  0.182929  0.981587  0.608633  1
  O  O405  1  0.354027  0.981587  0.551836  1
  O  O406  1  0.329979  0.920063  0.569981  1
  O  O407  1  0.503360  0.999937  0.582134  1
  O  O408  1  0.151204  0.098814  0.683110  1
  O  O409  1  0.650085  0.099927  0.683289  1
  O  O410  1  0.748163  0.248425  0.709129  1
  O  O411  1  0.254954  0.248461  0.706998  1
  O  O412  1  0.243290  0.316847  0.699412  1
  O  O413  1  0.805410  0.303276  0.680991  1
  O  O414  1  0.887552  0.420965  0.685395  1
  O  O415  1  0.579149  0.421176  0.685431  1
  O  O416  1  0.192796  0.462849  0.692037  1
  O  O417  1  0.229645  0.578967  0.711729  1
  O  O418  1  0.921516  0.578853  0.711731  1
  O  O419  1  0.618526  0.537110  0.704423  1
  O  O420  1  0.146660  0.518426  0.669738  1
  O  O421  1  0.317093  0.518449  0.669725  1
  O  O422  1  0.170214  0.579959  0.679995  1
  O  O423  1  0.989041  0.761651  0.680021  1
  O  O424  1  0.169361  0.761652  0.679978  1
  O  O425  1  0.691836  0.738491  0.676478  1
  O  O426  1  0.511299  0.738332  0.676206  1
  H  H427  1  0.849964  0.900067  0.664940  1
  H  H428  1  0.348831  0.901186  0.665122  1
  H  H429  1  0.151204  0.098814  0.698060  1
  H  H430  1  0.650085  0.099927  0.698238  1
  H  H431  1  0.748163  0.248425  0.724078  1
  H  H432  1  0.254954  0.248461  0.721947  1
  H  H433  1  0.243290  0.316847  0.714361  1
  H  H434  1  0.805410  0.303276  0.695940  1
  H  H435  1  0.887552  0.420965  0.700344  1
  H  H436  1  0.579149  0.421176  0.700380  1
  H  H437  1  0.192796  0.462849  0.706986  1
  H  H438  1  0.229645  0.578967  0.726679  1
  H  H439  1  0.921516  0.578853  0.726680  1
  H  H440  1  0.618526  0.537110  0.719373  1
  H  H441  1  0.989041  0.761651  0.694970  1
  H  H442  1  0.169361  0.761652  0.694927  1
  H  H443  1  0.691836  0.738491  0.691427  1
  H  H444  1  0.511299  0.738332  0.691156  1
