# generated using pymatgen
data_Si33(H4O35)2
_symmetry_space_group_name_H-M   'P 1'
_cell_length_a   10.10746610
_cell_length_b   18.51418868
_cell_length_c   57.21528306
_cell_angle_alpha   134.98382664
_cell_angle_beta   90.00000000
_cell_angle_gamma   90.00000000
_symmetry_Int_Tables_number   1
_chemical_formula_structural   Si33(H4O35)2
_chemical_formula_sum   'Si66 H16 O140'
_cell_volume   7572.97615006
_cell_formula_units_Z   2
loop_
 _symmetry_equiv_pos_site_id
 _symmetry_equiv_pos_as_xyz
  1  'x, y, z'
loop_
 _atom_site_type_symbol
 _atom_site_label
 _atom_site_symmetry_multiplicity
 _atom_site_fract_x
 _atom_site_fract_y
 _atom_site_fract_z
 _atom_site_occupancy
  O  O1  1  0.612944  0.238317  0.139282  1
  O  O2  1  0.112944  0.238317  0.139282  1
  O  O3  1  0.664970  0.977772  0.348785  1
  O  O4  1  0.835204  0.901458  0.358993  1
  O  O5  1  0.664970  0.022385  0.175364  1
  O  O6  1  0.835204  0.098699  0.165156  1
  O  O7  1  0.751847  0.883988  0.291939  1
  O  O8  1  0.748341  0.746708  0.345047  1
  O  O9  1  0.751847  0.116169  0.232210  1
  O  O10  1  0.748341  0.253448  0.179102  1
  O  O11  1  0.002370  0.898876  0.299393  1
  O  O12  1  0.497821  0.764440  0.345698  1
  O  O13  1  0.002370  0.101281  0.224756  1
  O  O14  1  0.497821  0.235717  0.178450  1
  O  O15  1  0.643139  0.050676  0.323337  1
  O  O16  1  0.857064  0.717313  0.300193  1
  O  O17  1  0.643139  0.949480  0.200812  1
  O  O18  1  0.857063  0.282844  0.223956  1
  O  O19  1  0.612944  0.761840  0.156120  1
  O  O20  1  0.887257  0.275127  0.265106  1
  O  O21  1  0.612944  0.238317  0.368029  1
  O  O22  1  0.887257  0.725030  0.259043  1
  O  O23  1  0.606272  0.594991  0.320948  1
  O  O24  1  0.893922  0.162546  0.277524  1
  O  O25  1  0.606272  0.405166  0.203201  1
  O  O26  1  0.893922  0.837611  0.246625  1
  O  O27  1  0.746899  0.846013  0.210085  1
  O  O28  1  0.753341  0.426880  0.280576  1
  O  O29  1  0.746898  0.154143  0.314063  1
  O  O30  1  0.753341  0.573277  0.243573  1
  O  O31  1  0.996782  0.864898  0.211791  1
  O  O32  1  0.503459  0.415433  0.273635  1
  O  O33  1  0.996782  0.135258  0.312358  1
  O  O34  1  0.503459  0.584724  0.250514  1
  O  O35  1  0.859389  0.000000  0.262074  1
  O  O36  1  0.640830  0.500078  0.262074  1
  O  O37  1  0.164970  0.977772  0.348785  1
  O  O38  1  0.335204  0.901458  0.358993  1
  O  O39  1  0.164970  0.022385  0.175364  1
  O  O40  1  0.335204  0.098699  0.165156  1
  O  O41  1  0.251847  0.883988  0.291939  1
  O  O42  1  0.248341  0.746708  0.345047  1
  O  O43  1  0.251847  0.116169  0.232210  1
  O  O44  1  0.248341  0.253448  0.179102  1
  O  O45  1  0.502370  0.898876  0.299393  1
  O  O46  1  0.997821  0.764440  0.345698  1
  O  O47  1  0.502370  0.101281  0.224756  1
  O  O48  1  0.997821  0.235717  0.178450  1
  O  O49  1  0.143139  0.050676  0.323337  1
  O  O50  1  0.357064  0.717312  0.300193  1
  O  O51  1  0.143139  0.949480  0.200812  1
  O  O52  1  0.357064  0.282844  0.223956  1
  O  O53  1  0.112944  0.761840  0.156120  1
  O  O54  1  0.387257  0.275127  0.265106  1
  O  O55  1  0.112944  0.238317  0.368029  1
  O  O56  1  0.387257  0.725030  0.259043  1
  O  O57  1  0.106272  0.594991  0.320948  1
  O  O58  1  0.393922  0.162546  0.277524  1
  O  O59  1  0.106272  0.405166  0.203201  1
  O  O60  1  0.393922  0.837611  0.246625  1
  O  O61  1  0.246898  0.846013  0.210085  1
  O  O62  1  0.253341  0.426880  0.280576  1
  O  O63  1  0.246898  0.154143  0.314063  1
  O  O64  1  0.253341  0.573277  0.243573  1
  O  O65  1  0.496782  0.864898  0.211791  1
  O  O66  1  0.003459  0.415433  0.273635  1
  O  O67  1  0.496782  0.135258  0.312358  1
  O  O68  1  0.003459  0.584724  0.250514  1
  O  O69  1  0.359389  0.000000  0.262074  1
  O  O70  1  0.140830  0.500079  0.262074  1
  O  O71  1  0.664970  0.977772  0.577532  1
  O  O72  1  0.835204  0.901458  0.587740  1
  O  O73  1  0.664970  0.022385  0.404111  1
  O  O74  1  0.835204  0.098699  0.393902  1
  O  O75  1  0.751847  0.883988  0.520685  1
  O  O76  1  0.748341  0.746708  0.573793  1
  O  O77  1  0.751847  0.116169  0.460957  1
  O  O78  1  0.748341  0.253448  0.407849  1
  O  O79  1  0.002370  0.898876  0.528140  1
  O  O80  1  0.497821  0.764440  0.574445  1
  O  O81  1  0.002370  0.101281  0.453502  1
  O  O82  1  0.497821  0.235717  0.407197  1
  O  O83  1  0.643139  0.050676  0.552084  1
  O  O84  1  0.857064  0.717313  0.528940  1
  O  O85  1  0.643139  0.949480  0.429558  1
  O  O86  1  0.857063  0.282844  0.452703  1
  O  O87  1  0.612944  0.761840  0.384867  1
  O  O88  1  0.887257  0.275127  0.493853  1
  O  O89  1  0.612944  0.238317  0.596776  1
  O  O90  1  0.887257  0.725030  0.487789  1
  O  O91  1  0.606272  0.594991  0.549695  1
  O  O92  1  0.893922  0.162546  0.506271  1
  O  O93  1  0.606272  0.405166  0.431948  1
  O  O94  1  0.893922  0.837611  0.475372  1
  O  O95  1  0.746899  0.846013  0.438832  1
  O  O96  1  0.753341  0.426880  0.509322  1
  O  O97  1  0.746898  0.154143  0.542810  1
  O  O98  1  0.753341  0.573277  0.472320  1
  O  O99  1  0.996782  0.864898  0.440537  1
  O  O100  1  0.503459  0.415433  0.502382  1
  O  O101  1  0.996782  0.135258  0.541105  1
  O  O102  1  0.503459  0.584724  0.479260  1
  O  O103  1  0.859389  -0.000000  0.490821  1
  O  O104  1  0.640830  0.500078  0.490821  1
  O  O105  1  0.164970  0.977772  0.577532  1
  O  O106  1  0.335204  0.901458  0.587740  1
  O  O107  1  0.164970  0.022385  0.404111  1
  O  O108  1  0.335204  0.098699  0.393902  1
  O  O109  1  0.251847  0.883988  0.520685  1
  O  O110  1  0.248341  0.746708  0.573793  1
  O  O111  1  0.251847  0.116169  0.460957  1
  O  O112  1  0.248341  0.253448  0.407849  1
  O  O113  1  0.502370  0.898876  0.528140  1
  O  O114  1  0.997821  0.764440  0.574445  1
  O  O115  1  0.502370  0.101281  0.453502  1
  O  O116  1  0.997821  0.235717  0.407197  1
  O  O117  1  0.143139  0.050676  0.552084  1
  O  O118  1  0.357064  0.717312  0.528940  1
  O  O119  1  0.143139  0.949480  0.429558  1
  O  O120  1  0.357064  0.282844  0.452703  1
  O  O121  1  0.112944  0.761840  0.384867  1
  O  O122  1  0.387257  0.275127  0.493853  1
  O  O123  1  0.112944  0.238317  0.596776  1
  O  O124  1  0.387257  0.725030  0.487789  1
  O  O125  1  0.106272  0.594991  0.549695  1
  O  O126  1  0.393922  0.162546  0.506271  1
  O  O127  1  0.106272  0.405166  0.431948  1
  O  O128  1  0.393922  0.837611  0.475372  1
  O  O129  1  0.246898  0.846013  0.438832  1
  O  O130  1  0.253341  0.426880  0.509322  1
  O  O131  1  0.246898  0.154143  0.542810  1
  O  O132  1  0.253341  0.573277  0.472320  1
  O  O133  1  0.496782  0.864898  0.440537  1
  O  O134  1  0.003459  0.415433  0.502382  1
  O  O135  1  0.496782  0.135258  0.541105  1
  O  O136  1  0.003459  0.584724  0.479260  1
  O  O137  1  0.359389  -0.000000  0.490821  1
  O  O138  1  0.140830  0.500079  0.490821  1
  O  O139  1  0.612944  0.761840  0.613613  1
  O  O140  1  0.112944  0.761840  0.613613  1
  Si  Si141  1  0.637536  0.953305  0.316626  1
  Si  Si142  1  0.862636  0.785398  0.338040  1
  Si  Si143  1  0.637536  0.046851  0.207523  1
  Si  Si144  1  0.862636  0.214758  0.186108  1
  Si  Si145  1  0.613469  0.714898  0.348761  1
  Si  Si146  1  0.886708  0.164259  0.250471  1
  Si  Si147  1  0.613469  0.285258  0.175387  1
  Si  Si148  1  0.886708  0.835898  0.273677  1
  Si  Si149  1  0.625786  0.853638  0.194744  1
  Si  Si150  1  0.874433  0.352216  0.261743  1
  Si  Si151  1  0.625786  0.146519  0.329404  1
  Si  Si152  1  0.874434  0.647941  0.262405  1
  Si  Si153  1  0.874266  0.882870  0.231768  1
  Si  Si154  1  0.625952  0.484804  0.285406  1
  Si  Si155  1  0.874266  0.117286  0.292381  1
  Si  Si156  1  0.625952  0.515352  0.238742  1
  Si  Si157  1  0.137536  0.953306  0.316626  1
  Si  Si158  1  0.362636  0.785398  0.338040  1
  Si  Si159  1  0.137536  0.046851  0.207523  1
  Si  Si160  1  0.362636  0.214759  0.186109  1
  Si  Si161  1  0.113468  0.714898  0.348761  1
  Si  Si162  1  0.386708  0.164259  0.250471  1
  Si  Si163  1  0.113469  0.285258  0.175387  1
  Si  Si164  1  0.386708  0.835898  0.273677  1
  Si  Si165  1  0.125786  0.853638  0.194744  1
  Si  Si166  1  0.374433  0.352216  0.261743  1
  Si  Si167  1  0.125786  0.146519  0.329404  1
  Si  Si168  1  0.374434  0.647941  0.262405  1
  Si  Si169  1  0.374266  0.882870  0.231768  1
  Si  Si170  1  0.125952  0.484804  0.285406  1
  Si  Si171  1  0.374266  0.117286  0.292381  1
  Si  Si172  1  0.125952  0.515352  0.238742  1
  Si  Si173  1  0.637536  0.953305  0.545372  1
  Si  Si174  1  0.862636  0.785398  0.566787  1
  Si  Si175  1  0.637536  0.046851  0.436270  1
  Si  Si176  1  0.862636  0.214758  0.414855  1
  Si  Si177  1  0.613469  0.714898  0.577508  1
  Si  Si178  1  0.886708  0.164259  0.479218  1
  Si  Si179  1  0.613469  0.285258  0.404134  1
  Si  Si180  1  0.886708  0.835898  0.502424  1
  Si  Si181  1  0.625786  0.853638  0.423491  1
  Si  Si182  1  0.874433  0.352216  0.490490  1
  Si  Si183  1  0.625786  0.146519  0.558151  1
  Si  Si184  1  0.874434  0.647941  0.491152  1
  Si  Si185  1  0.874266  0.882870  0.460515  1
  Si  Si186  1  0.625952  0.484804  0.514153  1
  Si  Si187  1  0.874266  0.117286  0.521127  1
  Si  Si188  1  0.625952  0.515352  0.467489  1
  Si  Si189  1  0.750145  -0.000000  0.376448  1
  Si  Si190  1  0.137536  0.953306  0.545373  1
  Si  Si191  1  0.362636  0.785398  0.566787  1
  Si  Si192  1  0.137536  0.046851  0.436270  1
  Si  Si193  1  0.362636  0.214759  0.414855  1
  Si  Si194  1  0.113468  0.714898  0.577508  1
  Si  Si195  1  0.386708  0.164259  0.479218  1
  Si  Si196  1  0.113469  0.285258  0.404134  1
  Si  Si197  1  0.386708  0.835898  0.502424  1
  Si  Si198  1  0.125786  0.853638  0.423491  1
  Si  Si199  1  0.374433  0.352216  0.490490  1
  Si  Si200  1  0.125786  0.146519  0.558151  1
  Si  Si201  1  0.374434  0.647941  0.491152  1
  Si  Si202  1  0.374266  0.882870  0.460515  1
  Si  Si203  1  0.125952  0.484804  0.514153  1
  Si  Si204  1  0.374266  0.117286  0.521127  1
  Si  Si205  1  0.125952  0.515352  0.467489  1
  Si  Si206  1  0.250145  -0.000000  0.376448  1
  H  H207  1  0.612944  0.238317  0.123552  1
  H  H208  1  0.112944  0.238317  0.123552  1
  H  H209  1  0.664970  0.022385  0.159634  1
  H  H210  1  0.835204  0.098699  0.149425  1
  H  H211  1  0.612944  0.761840  0.140390  1
  H  H212  1  0.164970  0.022385  0.159634  1
  H  H213  1  0.335204  0.098699  0.149425  1
  H  H214  1  0.112944  0.761840  0.140390  1
  H  H215  1  0.664970  0.977772  0.593262  1
  H  H216  1  0.835204  0.901458  0.603470  1
  H  H217  1  0.612944  0.238317  0.612506  1
  H  H218  1  0.164970  0.977772  0.593262  1
  H  H219  1  0.335204  0.901458  0.603470  1
  H  H220  1  0.112944  0.238317  0.612506  1
  H  H221  1  0.612944  0.761840  0.629343  1
  H  H222  1  0.112944  0.761840  0.629343  1
