# generated using pymatgen
data_Si25(HO13)4
_symmetry_space_group_name_H-M   'P 1'
_cell_length_a   10.10746610
_cell_length_b   18.51418868
_cell_length_c   70.30309545
_cell_angle_alpha   134.98382664
_cell_angle_beta   90.00000000
_cell_angle_gamma   90.00000000
_symmetry_Int_Tables_number   1
_chemical_formula_structural   Si25(HO13)4
_chemical_formula_sum   'Si100 H16 O208'
_cell_volume   9305.27014182
_cell_formula_units_Z   4
loop_
 _symmetry_equiv_pos_site_id
 _symmetry_equiv_pos_as_xyz
  1  'x, y, z'
loop_
 _atom_site_type_symbol
 _atom_site_label
 _atom_site_symmetry_multiplicity
 _atom_site_fract_x
 _atom_site_fract_y
 _atom_site_fract_z
 _atom_site_occupancy
  O  O1  1  0.612944  0.238317  0.113353  1
  O  O2  1  0.112944  0.238317  0.113353  1
  O  O3  1  0.664970  0.977772  0.283854  1
  O  O4  1  0.835204  0.901458  0.292162  1
  O  O5  1  0.664970  0.022385  0.142718  1
  O  O6  1  0.835204  0.098699  0.134410  1
  O  O7  1  0.751847  0.883988  0.237591  1
  O  O8  1  0.748341  0.746708  0.280812  1
  O  O9  1  0.751847  0.116169  0.188981  1
  O  O10  1  0.748341  0.253448  0.145760  1
  O  O11  1  0.002370  0.898876  0.243657  1
  O  O12  1  0.497821  0.764440  0.281342  1
  O  O13  1  0.002370  0.101281  0.182914  1
  O  O14  1  0.497821  0.235717  0.145230  1
  O  O15  1  0.643139  0.050676  0.263143  1
  O  O16  1  0.857064  0.717313  0.244308  1
  O  O17  1  0.643139  0.949480  0.163428  1
  O  O18  1  0.857063  0.282844  0.182264  1
  O  O19  1  0.612944  0.761840  0.127056  1
  O  O20  1  0.887257  0.275127  0.215753  1
  O  O21  1  0.612944  0.238317  0.299516  1
  O  O22  1  0.887257  0.725030  0.210819  1
  O  O23  1  0.606272  0.594991  0.261200  1
  O  O24  1  0.893922  0.162546  0.225859  1
  O  O25  1  0.606272  0.405166  0.165372  1
  O  O26  1  0.893922  0.837611  0.200713  1
  O  O27  1  0.746899  0.846013  0.170975  1
  O  O28  1  0.753341  0.426880  0.228343  1
  O  O29  1  0.746898  0.154143  0.255596  1
  O  O30  1  0.753341  0.573277  0.198229  1
  O  O31  1  0.996782  0.864898  0.172363  1
  O  O32  1  0.503459  0.415433  0.222694  1
  O  O33  1  0.996782  0.135258  0.254208  1
  O  O34  1  0.503459  0.584724  0.203877  1
  O  O35  1  0.859389  0.000000  0.213286  1
  O  O36  1  0.640830  0.500078  0.213286  1
  O  O37  1  0.164970  0.977772  0.283854  1
  O  O38  1  0.335204  0.901458  0.292162  1
  O  O39  1  0.164970  0.022385  0.142718  1
  O  O40  1  0.335204  0.098699  0.134410  1
  O  O41  1  0.251847  0.883988  0.237591  1
  O  O42  1  0.248341  0.746708  0.280812  1
  O  O43  1  0.251847  0.116169  0.188981  1
  O  O44  1  0.248341  0.253448  0.145760  1
  O  O45  1  0.502370  0.898876  0.243657  1
  O  O46  1  0.997821  0.764440  0.281342  1
  O  O47  1  0.502370  0.101281  0.182914  1
  O  O48  1  0.997821  0.235717  0.145230  1
  O  O49  1  0.143139  0.050676  0.263143  1
  O  O50  1  0.357064  0.717312  0.244308  1
  O  O51  1  0.143139  0.949480  0.163428  1
  O  O52  1  0.357064  0.282844  0.182264  1
  O  O53  1  0.112944  0.761840  0.127056  1
  O  O54  1  0.387257  0.275127  0.215753  1
  O  O55  1  0.112944  0.238317  0.299516  1
  O  O56  1  0.387257  0.725030  0.210819  1
  O  O57  1  0.106272  0.594991  0.261199  1
  O  O58  1  0.393922  0.162546  0.225859  1
  O  O59  1  0.106272  0.405166  0.165372  1
  O  O60  1  0.393922  0.837611  0.200713  1
  O  O61  1  0.246898  0.846013  0.170975  1
  O  O62  1  0.253341  0.426880  0.228343  1
  O  O63  1  0.246898  0.154143  0.255596  1
  O  O64  1  0.253341  0.573277  0.198229  1
  O  O65  1  0.496782  0.864898  0.172363  1
  O  O66  1  0.003459  0.415433  0.222694  1
  O  O67  1  0.496782  0.135258  0.254208  1
  O  O68  1  0.003459  0.584724  0.203877  1
  O  O69  1  0.359389  0.000000  0.213286  1
  O  O70  1  0.140830  0.500079  0.213286  1
  O  O71  1  0.664970  0.977772  0.470017  1
  O  O72  1  0.835204  0.901458  0.478325  1
  O  O73  1  0.664970  0.022385  0.328880  1
  O  O74  1  0.835204  0.098699  0.320572  1
  O  O75  1  0.751847  0.883988  0.423753  1
  O  O76  1  0.748341  0.746708  0.466974  1
  O  O77  1  0.751847  0.116169  0.375144  1
  O  O78  1  0.748341  0.253448  0.331922  1
  O  O79  1  0.002370  0.898876  0.429820  1
  O  O80  1  0.497821  0.764440  0.467505  1
  O  O81  1  0.002370  0.101281  0.369077  1
  O  O82  1  0.497821  0.235717  0.331392  1
  O  O83  1  0.643139  0.050676  0.449306  1
  O  O84  1  0.857064  0.717313  0.430471  1
  O  O85  1  0.643139  0.949480  0.349591  1
  O  O86  1  0.857063  0.282844  0.368426  1
  O  O87  1  0.612944  0.761840  0.313219  1
  O  O88  1  0.887257  0.275127  0.401916  1
  O  O89  1  0.612944  0.238317  0.485678  1
  O  O90  1  0.887257  0.725030  0.396981  1
  O  O91  1  0.606272  0.594991  0.447362  1
  O  O92  1  0.893922  0.162546  0.412022  1
  O  O93  1  0.606272  0.405166  0.351535  1
  O  O94  1  0.893922  0.837611  0.386875  1
  O  O95  1  0.746899  0.846013  0.357138  1
  O  O96  1  0.753341  0.426880  0.414506  1
  O  O97  1  0.746898  0.154143  0.441759  1
  O  O98  1  0.753341  0.573277  0.384392  1
  O  O99  1  0.996782  0.864898  0.358526  1
  O  O100  1  0.503459  0.415433  0.408857  1
  O  O101  1  0.996782  0.135258  0.440371  1
  O  O102  1  0.503459  0.584724  0.390040  1
  O  O103  1  0.859389  0.000000  0.399448  1
  O  O104  1  0.640830  0.500078  0.399448  1
  O  O105  1  0.164970  0.977772  0.470017  1
  O  O106  1  0.335204  0.901458  0.478325  1
  O  O107  1  0.164970  0.022385  0.328880  1
  O  O108  1  0.335204  0.098699  0.320572  1
  O  O109  1  0.251847  0.883988  0.423753  1
  O  O110  1  0.248341  0.746708  0.466974  1
  O  O111  1  0.251847  0.116169  0.375144  1
  O  O112  1  0.248341  0.253448  0.331922  1
  O  O113  1  0.502370  0.898876  0.429820  1
  O  O114  1  0.997821  0.764440  0.467505  1
  O  O115  1  0.502370  0.101281  0.369077  1
  O  O116  1  0.997821  0.235717  0.331392  1
  O  O117  1  0.143139  0.050676  0.449306  1
  O  O118  1  0.357064  0.717312  0.430471  1
  O  O119  1  0.143139  0.949480  0.349591  1
  O  O120  1  0.357064  0.282844  0.368426  1
  O  O121  1  0.112944  0.761840  0.313219  1
  O  O122  1  0.387257  0.275127  0.401916  1
  O  O123  1  0.112944  0.238317  0.485678  1
  O  O124  1  0.387257  0.725030  0.396981  1
  O  O125  1  0.106272  0.594991  0.447362  1
  O  O126  1  0.393922  0.162546  0.412022  1
  O  O127  1  0.106272  0.405166  0.351535  1
  O  O128  1  0.393922  0.837611  0.386875  1
  O  O129  1  0.246898  0.846013  0.357138  1
  O  O130  1  0.253341  0.426880  0.414506  1
  O  O131  1  0.246898  0.154143  0.441759  1
  O  O132  1  0.253341  0.573277  0.384392  1
  O  O133  1  0.496782  0.864898  0.358526  1
  O  O134  1  0.003459  0.415433  0.408857  1
  O  O135  1  0.496782  0.135258  0.440371  1
  O  O136  1  0.003459  0.584724  0.390040  1
  O  O137  1  0.359389  0.000000  0.399448  1
  O  O138  1  0.140830  0.500079  0.399449  1
  O  O139  1  0.664970  0.977772  0.656179  1
  O  O140  1  0.835204  0.901458  0.664487  1
  O  O141  1  0.664970  0.022385  0.515043  1
  O  O142  1  0.835204  0.098699  0.506735  1
  O  O143  1  0.751847  0.883988  0.609916  1
  O  O144  1  0.748341  0.746708  0.653137  1
  O  O145  1  0.751847  0.116169  0.561306  1
  O  O146  1  0.748341  0.253448  0.518085  1
  O  O147  1  0.002370  0.898876  0.615983  1
  O  O148  1  0.497821  0.764440  0.653668  1
  O  O149  1  0.002370  0.101281  0.555240  1
  O  O150  1  0.497821  0.235717  0.517555  1
  O  O151  1  0.643139  0.050676  0.635469  1
  O  O152  1  0.857064  0.717313  0.616633  1
  O  O153  1  0.643139  0.949480  0.535753  1
  O  O154  1  0.857063  0.282844  0.554589  1
  O  O155  1  0.612944  0.761840  0.499381  1
  O  O156  1  0.887257  0.275127  0.588079  1
  O  O157  1  0.612944  0.238317  0.671841  1
  O  O158  1  0.887257  0.725030  0.583144  1
  O  O159  1  0.606272  0.594991  0.633525  1
  O  O160  1  0.893922  0.162546  0.598185  1
  O  O161  1  0.606272  0.405166  0.537698  1
  O  O162  1  0.893922  0.837611  0.573038  1
  O  O163  1  0.746899  0.846013  0.543301  1
  O  O164  1  0.753341  0.426880  0.600668  1
  O  O165  1  0.746898  0.154143  0.627922  1
  O  O166  1  0.753341  0.573277  0.570554  1
  O  O167  1  0.996782  0.864898  0.544688  1
  O  O168  1  0.503459  0.415433  0.595020  1
  O  O169  1  0.996782  0.135258  0.626534  1
  O  O170  1  0.503459  0.584724  0.576203  1
  O  O171  1  0.859389  0.000000  0.585611  1
  O  O172  1  0.640830  0.500078  0.585611  1
  O  O173  1  0.164970  0.977772  0.656179  1
  O  O174  1  0.335204  0.901458  0.664487  1
  O  O175  1  0.164970  0.022385  0.515043  1
  O  O176  1  0.335204  0.098699  0.506735  1
  O  O177  1  0.251847  0.883988  0.609916  1
  O  O178  1  0.248341  0.746708  0.653137  1
  O  O179  1  0.251847  0.116169  0.561306  1
  O  O180  1  0.248341  0.253448  0.518085  1
  O  O181  1  0.502370  0.898876  0.615983  1
  O  O182  1  0.997821  0.764440  0.653668  1
  O  O183  1  0.502370  0.101281  0.555240  1
  O  O184  1  0.997821  0.235717  0.517555  1
  O  O185  1  0.143139  0.050676  0.635469  1
  O  O186  1  0.357064  0.717312  0.616633  1
  O  O187  1  0.143139  0.949480  0.535753  1
  O  O188  1  0.357064  0.282844  0.554589  1
  O  O189  1  0.112944  0.761840  0.499381  1
  O  O190  1  0.387257  0.275127  0.588079  1
  O  O191  1  0.112944  0.238317  0.671841  1
  O  O192  1  0.387257  0.725030  0.583144  1
  O  O193  1  0.106272  0.594991  0.633525  1
  O  O194  1  0.393922  0.162546  0.598185  1
  O  O195  1  0.106272  0.405166  0.537698  1
  O  O196  1  0.393922  0.837611  0.573038  1
  O  O197  1  0.246898  0.846013  0.543301  1
  O  O198  1  0.253341  0.426880  0.600668  1
  O  O199  1  0.246898  0.154143  0.627922  1
  O  O200  1  0.253341  0.573277  0.570554  1
  O  O201  1  0.496782  0.864898  0.544688  1
  O  O202  1  0.003459  0.415433  0.595020  1
  O  O203  1  0.496782  0.135258  0.626534  1
  O  O204  1  0.003459  0.584724  0.576203  1
  O  O205  1  0.359389  0.000000  0.585611  1
  O  O206  1  0.140830  0.500079  0.585611  1
  O  O207  1  0.612944  0.761840  0.685544  1
  O  O208  1  0.112944  0.761840  0.685544  1
  Si  Si209  1  0.637536  0.953305  0.257682  1
  Si  Si210  1  0.862636  0.785398  0.275110  1
  Si  Si211  1  0.637536  0.046851  0.168890  1
  Si  Si212  1  0.862636  0.214758  0.151462  1
  Si  Si213  1  0.613469  0.714898  0.283835  1
  Si  Si214  1  0.886708  0.164259  0.203843  1
  Si  Si215  1  0.613469  0.285258  0.142737  1
  Si  Si216  1  0.886708  0.835898  0.222729  1
  Si  Si217  1  0.625786  0.853638  0.158490  1
  Si  Si218  1  0.874433  0.352216  0.213017  1
  Si  Si219  1  0.625786  0.146519  0.268081  1
  Si  Si220  1  0.874434  0.647941  0.213555  1
  Si  Si221  1  0.874266  0.882870  0.188621  1
  Si  Si222  1  0.625952  0.484804  0.232274  1
  Si  Si223  1  0.874266  0.117286  0.237950  1
  Si  Si224  1  0.625952  0.515352  0.194297  1
  Si  Si225  1  0.137536  0.953306  0.257682  1
  Si  Si226  1  0.362636  0.785398  0.275110  1
  Si  Si227  1  0.137536  0.046851  0.168890  1
  Si  Si228  1  0.362636  0.214759  0.151462  1
  Si  Si229  1  0.113468  0.714898  0.283835  1
  Si  Si230  1  0.386708  0.164259  0.203843  1
  Si  Si231  1  0.113469  0.285258  0.142737  1
  Si  Si232  1  0.386708  0.835898  0.222729  1
  Si  Si233  1  0.125786  0.853638  0.158490  1
  Si  Si234  1  0.374433  0.352216  0.213017  1
  Si  Si235  1  0.125786  0.146519  0.268082  1
  Si  Si236  1  0.374434  0.647941  0.213555  1
  Si  Si237  1  0.374266  0.882870  0.188621  1
  Si  Si238  1  0.125952  0.484804  0.232274  1
  Si  Si239  1  0.374266  0.117286  0.237950  1
  Si  Si240  1  0.125952  0.515352  0.194297  1
  Si  Si241  1  0.637536  0.953305  0.443844  1
  Si  Si242  1  0.862636  0.785398  0.461272  1
  Si  Si243  1  0.637536  0.046851  0.355053  1
  Si  Si244  1  0.862636  0.214758  0.337625  1
  Si  Si245  1  0.613469  0.714898  0.469998  1
  Si  Si246  1  0.886708  0.164259  0.390006  1
  Si  Si247  1  0.613469  0.285258  0.328899  1
  Si  Si248  1  0.886708  0.835898  0.408892  1
  Si  Si249  1  0.625786  0.853638  0.344653  1
  Si  Si250  1  0.874433  0.352216  0.399179  1
  Si  Si251  1  0.625786  0.146519  0.454244  1
  Si  Si252  1  0.874434  0.647941  0.399718  1
  Si  Si253  1  0.874266  0.882870  0.374784  1
  Si  Si254  1  0.625952  0.484804  0.418437  1
  Si  Si255  1  0.874266  0.117286  0.424113  1
  Si  Si256  1  0.625952  0.515352  0.380460  1
  Si  Si257  1  0.750145  0.000000  0.306367  1
  Si  Si258  1  0.137536  0.953306  0.443845  1
  Si  Si259  1  0.362636  0.785398  0.461272  1
  Si  Si260  1  0.137536  0.046851  0.355053  1
  Si  Si261  1  0.362636  0.214759  0.337625  1
  Si  Si262  1  0.113468  0.714898  0.469998  1
  Si  Si263  1  0.386708  0.164259  0.390006  1
  Si  Si264  1  0.113469  0.285258  0.328899  1
  Si  Si265  1  0.386708  0.835898  0.408892  1
  Si  Si266  1  0.125786  0.853638  0.344653  1
  Si  Si267  1  0.374433  0.352216  0.399179  1
  Si  Si268  1  0.125786  0.146519  0.454244  1
  Si  Si269  1  0.374434  0.647941  0.399718  1
  Si  Si270  1  0.374266  0.882870  0.374784  1
  Si  Si271  1  0.125952  0.484804  0.418437  1
  Si  Si272  1  0.374266  0.117286  0.424113  1
  Si  Si273  1  0.125952  0.515352  0.380460  1
  Si  Si274  1  0.250145  0.000000  0.306367  1
  Si  Si275  1  0.637536  0.953305  0.630007  1
  Si  Si276  1  0.862636  0.785398  0.647435  1
  Si  Si277  1  0.637536  0.046851  0.541215  1
  Si  Si278  1  0.862636  0.214758  0.523787  1
  Si  Si279  1  0.613469  0.714898  0.656160  1
  Si  Si280  1  0.886708  0.164259  0.576168  1
  Si  Si281  1  0.613469  0.285258  0.515062  1
  Si  Si282  1  0.886708  0.835898  0.595054  1
  Si  Si283  1  0.625786  0.853638  0.530816  1
  Si  Si284  1  0.874433  0.352216  0.585342  1
  Si  Si285  1  0.625786  0.146519  0.640407  1
  Si  Si286  1  0.874434  0.647941  0.585880  1
  Si  Si287  1  0.874266  0.882870  0.560947  1
  Si  Si288  1  0.625952  0.484804  0.604600  1
  Si  Si289  1  0.874266  0.117286  0.610276  1
  Si  Si290  1  0.625952  0.515352  0.566623  1
  Si  Si291  1  0.750145  0.000000  0.492530  1
  Si  Si292  1  0.137536  0.953306  0.630007  1
  Si  Si293  1  0.362636  0.785398  0.647435  1
  Si  Si294  1  0.137536  0.046851  0.541215  1
  Si  Si295  1  0.362636  0.214759  0.523787  1
  Si  Si296  1  0.113468  0.714898  0.656160  1
  Si  Si297  1  0.386708  0.164259  0.576168  1
  Si  Si298  1  0.113469  0.285258  0.515062  1
  Si  Si299  1  0.386708  0.835898  0.595054  1
  Si  Si300  1  0.125786  0.853638  0.530816  1
  Si  Si301  1  0.374433  0.352216  0.585342  1
  Si  Si302  1  0.125786  0.146519  0.640407  1
  Si  Si303  1  0.374434  0.647941  0.585880  1
  Si  Si304  1  0.374266  0.882870  0.560947  1
  Si  Si305  1  0.125952  0.484804  0.604600  1
  Si  Si306  1  0.374266  0.117286  0.610276  1
  Si  Si307  1  0.125952  0.515352  0.566623  1
  Si  Si308  1  0.250145  0.000000  0.492530  1
  H  H309  1  0.612944  0.238317  0.100551  1
  H  H310  1  0.112944  0.238317  0.100551  1
  H  H311  1  0.664970  0.022385  0.129916  1
  H  H312  1  0.835204  0.098699  0.121608  1
  H  H313  1  0.612944  0.761840  0.114254  1
  H  H314  1  0.164970  0.022385  0.129916  1
  H  H315  1  0.335204  0.098699  0.121608  1
  H  H316  1  0.112944  0.761840  0.114254  1
  H  H317  1  0.664970  0.977772  0.668981  1
  H  H318  1  0.835204  0.901458  0.677289  1
  H  H319  1  0.612944  0.238317  0.684643  1
  H  H320  1  0.164970  0.977772  0.668981  1
  H  H321  1  0.335204  0.901458  0.677289  1
  H  H322  1  0.112944  0.238317  0.684643  1
  H  H323  1  0.612944  0.761840  0.698346  1
  H  H324  1  0.112944  0.761840  0.698346  1
