# generated using pymatgen
data_Si24H2O49
_symmetry_space_group_name_H-M   'P 1'
_cell_length_a   18.63077127
_cell_length_b   8.35219177
_cell_length_c   71.57891639
_cell_angle_alpha   90.00000000
_cell_angle_beta   120.00000000
_cell_angle_gamma   90.00000000
_symmetry_Int_Tables_number   1
_chemical_formula_structural   Si24H2O49
_chemical_formula_sum   'Si96 H8 O196'
_cell_volume   9645.9952245
_cell_formula_units_Z   4
loop_
 _symmetry_equiv_pos_site_id
 _symmetry_equiv_pos_as_xyz
  1  'x, y, z'
loop_
 _atom_site_type_symbol
 _atom_site_label
 _atom_site_symmetry_multiplicity
 _atom_site_fract_x
 _atom_site_fract_y
 _atom_site_fract_z
 _atom_site_occupancy
  O  O1  1  0.598090  0.013240  0.133917  1
  O  O2  1  0.804128  0.006561  0.133546  1
  O  O3  1  0.401697  0.487048  0.238457  1
  O  O4  1  0.402253  0.487438  0.184629  1
  O  O5  1  0.195648  0.493662  0.184472  1
  O  O6  1  0.804128  0.493704  0.133549  1
  O  O7  1  0.598087  0.487049  0.133919  1
  O  O8  1  0.195648  0.006603  0.184469  1
  O  O9  1  0.402255  0.012857  0.184627  1
  O  O10  1  0.401695  0.013241  0.238454  1
  O  O11  1  0.753173  0.991293  0.093233  1
  O  O12  1  0.494064  0.990680  0.093406  1
  O  O13  1  0.753080  0.991225  0.160852  1
  O  O14  1  0.246724  0.509108  0.225063  1
  O  O15  1  0.505717  0.509569  0.225018  1
  O  O16  1  0.246580  0.509012  0.157414  1
  O  O17  1  0.753175  0.508999  0.093236  1
  O  O18  1  0.753079  0.509066  0.160854  1
  O  O19  1  0.494061  0.509593  0.093409  1
  O  O20  1  0.246723  0.991184  0.225060  1
  O  O21  1  0.246581  0.991280  0.157411  1
  O  O22  1  0.505714  0.990704  0.225014  1
  O  O23  1  0.443670  0.987000  0.121718  1
  O  O24  1  0.911811  0.996674  0.173539  1
  O  O25  1  0.355143  0.499252  0.266462  1
  O  O26  1  0.556497  0.498927  0.196847  1
  O  O27  1  0.087391  0.488938  0.143988  1
  O  O28  1  0.912358  0.488929  0.121224  1
  O  O29  1  0.644652  0.499260  0.174039  1
  O  O30  1  0.087995  0.996684  0.196452  1
  O  O31  1  0.355847  0.986989  0.144452  1
  O  O32  1  0.556102  0.986987  0.266443  1
  O  O33  1  0.355141  0.001022  0.266460  1
  O  O34  1  0.556498  0.001369  0.196845  1
  O  O35  1  0.087393  0.011345  0.143985  1
  O  O36  1  0.443669  0.513297  0.121721  1
  O  O37  1  0.911810  0.503609  0.173541  1
  O  O38  1  0.087997  0.503600  0.196455  1
  O  O39  1  0.355843  0.513285  0.144454  1
  O  O40  1  0.556103  0.513311  0.266446  1
  O  O41  1  0.912355  0.011354  0.121220  1
  O  O42  1  0.644654  0.001014  0.174037  1
  O  O43  1  0.524907  0.750144  0.118487  1
  O  O44  1  0.822376  0.750138  0.154225  1
  O  O45  1  0.323984  0.250142  0.242475  1
  O  O46  1  0.495045  0.250142  0.204910  1
  O  O47  1  0.184692  0.250142  0.162033  1
  O  O48  1  0.815071  0.250140  0.113967  1
  O  O49  1  0.675802  0.250140  0.158163  1
  O  O50  1  0.177393  0.750136  0.200390  1
  O  O51  1  0.342744  0.750141  0.165494  1
  O  O52  1  0.474866  0.750142  0.242063  1
  O  O53  1  0.000000  0.985551  0.158820  1
  O  O54  1  0.499974  0.019873  0.289282  1
  O  O55  1  0.499805  0.019868  0.159164  1
  O  O56  1  0.000000  0.514755  0.158823  1
  O  O57  1  0.499975  0.480406  0.289285  1
  O  O58  1  0.499803  0.480412  0.159166  1
  O  O59  1  0.000000  0.250145  0.176771  1
  O  O60  1  0.589594  0.250141  0.289245  1
  O  O61  1  0.410177  0.250141  0.135803  1
  O  O62  1  -0.000000  0.750140  0.136163  1
  O  O63  1  0.434002  0.750141  0.289352  1
  O  O64  1  0.565787  0.750141  0.176402  1
  O  O65  1  0.597513  0.012867  0.340135  1
  O  O66  1  0.598090  0.013240  0.394110  1
  O  O67  1  0.804128  0.006561  0.393739  1
  O  O68  1  0.401697  0.487048  0.498650  1
  O  O69  1  0.402253  0.487438  0.444822  1
  O  O70  1  0.195648  0.493662  0.444665  1
  O  O71  1  0.804128  0.493704  0.393742  1
  O  O72  1  0.598087  0.487049  0.394112  1
  O  O73  1  0.597516  0.487427  0.340138  1
  O  O74  1  0.195648  0.006603  0.444662  1
  O  O75  1  0.402255  0.012857  0.444820  1
  O  O76  1  0.401695  0.013241  0.498647  1
  O  O77  1  0.753173  0.991293  0.353426  1
  O  O78  1  0.494064  0.990680  0.353599  1
  O  O79  1  0.753080  0.991225  0.421045  1
  O  O80  1  0.246724  0.509108  0.485256  1
  O  O81  1  0.505717  0.509569  0.485211  1
  O  O82  1  0.246580  0.509012  0.417607  1
  O  O83  1  0.753175  0.508999  0.353429  1
  O  O84  1  0.753079  0.509066  0.421047  1
  O  O85  1  0.494061  0.509593  0.353602  1
  O  O86  1  0.246723  0.991184  0.485253  1
  O  O87  1  0.246581  0.991280  0.417604  1
  O  O88  1  0.505714  0.990704  0.485207  1
  O  O89  1  0.643913  0.986979  0.312034  1
  O  O90  1  0.443670  0.987000  0.381911  1
  O  O91  1  0.911811  0.996674  0.433731  1
  O  O92  1  0.355143  0.499252  0.526655  1
  O  O93  1  0.556497  0.498927  0.457040  1
  O  O94  1  0.087391  0.488938  0.404181  1
  O  O95  1  0.912358  0.488929  0.381417  1
  O  O96  1  0.644652  0.499260  0.434232  1
  O  O97  1  0.443283  0.498916  0.312214  1
  O  O98  1  0.087995  0.996684  0.456645  1
  O  O99  1  0.355847  0.986989  0.404645  1
  O  O100  1  0.556102  0.986987  0.526636  1
  O  O101  1  0.355141  0.001022  0.526653  1
  O  O102  1  0.556498  0.001369  0.457038  1
  O  O103  1  0.087393  0.011345  0.404178  1
  O  O104  1  0.643916  0.513295  0.312037  1
  O  O105  1  0.443669  0.513297  0.381914  1
  O  O106  1  0.911810  0.503609  0.433734  1
  O  O107  1  0.087997  0.503600  0.456648  1
  O  O108  1  0.355843  0.513285  0.404647  1
  O  O109  1  0.556103  0.513311  0.526639  1
  O  O110  1  0.912355  0.011354  0.381413  1
  O  O111  1  0.644654  0.001014  0.434230  1
  O  O112  1  0.443282  0.001379  0.312211  1
  O  O113  1  0.657010  0.750143  0.336487  1
  O  O114  1  0.524907  0.750144  0.378680  1
  O  O115  1  0.822376  0.750138  0.414418  1
  O  O116  1  0.323984  0.250142  0.502668  1
  O  O117  1  0.495045  0.250142  0.465103  1
  O  O118  1  0.184692  0.250142  0.422226  1
  O  O119  1  0.815071  0.250140  0.374160  1
  O  O120  1  0.675802  0.250140  0.418356  1
  O  O121  1  0.504729  0.250140  0.336274  1
  O  O122  1  0.177393  0.750136  0.460583  1
  O  O123  1  0.342744  0.750141  0.425687  1
  O  O124  1  0.474866  0.750142  0.502256  1
  O  O125  1  -0.000000  0.985551  0.419013  1
  O  O126  1  0.499974  0.019873  0.549475  1
  O  O127  1  0.499805  0.019868  0.419357  1
  O  O128  1  -0.000000  0.514755  0.419016  1
  O  O129  1  0.499975  0.480406  0.549478  1
  O  O130  1  0.499803  0.480412  0.419359  1
  O  O131  1  0.000000  0.250145  0.436964  1
  O  O132  1  0.589594  0.250141  0.549437  1
  O  O133  1  0.410177  0.250141  0.395996  1
  O  O134  1  -0.000000  0.750140  0.396356  1
  O  O135  1  0.434002  0.750141  0.549545  1
  O  O136  1  0.565787  0.750141  0.436595  1
  O  O137  1  0.597513  0.012867  0.600328  1
  O  O138  1  0.598090  0.013240  0.654303  1
  O  O139  1  0.804128  0.006561  0.653932  1
  O  O140  1  0.402253  0.487438  0.705015  1
  O  O141  1  0.195648  0.493662  0.704858  1
  O  O142  1  0.804128  0.493704  0.653935  1
  O  O143  1  0.598087  0.487049  0.654305  1
  O  O144  1  0.597516  0.487427  0.600331  1
  O  O145  1  0.195648  0.006603  0.704855  1
  O  O146  1  0.402255  0.012857  0.705013  1
  O  O147  1  0.753173  0.991293  0.613619  1
  O  O148  1  0.494064  0.990680  0.613792  1
  O  O149  1  0.753080  0.991225  0.681238  1
  O  O150  1  0.246724  0.509108  0.745449  1
  O  O151  1  0.505717  0.509569  0.745404  1
  O  O152  1  0.246580  0.509012  0.677800  1
  O  O153  1  0.753175  0.508999  0.613622  1
  O  O154  1  0.753079  0.509066  0.681240  1
  O  O155  1  0.494061  0.509593  0.613795  1
  O  O156  1  0.246723  0.991184  0.745446  1
  O  O157  1  0.246581  0.991280  0.677797  1
  O  O158  1  0.505714  0.990704  0.745400  1
  O  O159  1  0.643913  0.986979  0.572227  1
  O  O160  1  0.443670  0.987000  0.642104  1
  O  O161  1  0.911811  0.996674  0.693924  1
  O  O162  1  0.556497  0.498927  0.717233  1
  O  O163  1  0.087391  0.488938  0.664374  1
  O  O164  1  0.912358  0.488929  0.641610  1
  O  O165  1  0.644652  0.499260  0.694425  1
  O  O166  1  0.443283  0.498916  0.572407  1
  O  O167  1  0.087995  0.996684  0.716838  1
  O  O168  1  0.355847  0.986989  0.664838  1
  O  O169  1  0.556498  0.001369  0.717231  1
  O  O170  1  0.087393  0.011345  0.664371  1
  O  O171  1  0.643916  0.513295  0.572230  1
  O  O172  1  0.443669  0.513297  0.642107  1
  O  O173  1  0.911810  0.503609  0.693927  1
  O  O174  1  0.087997  0.503600  0.716841  1
  O  O175  1  0.355843  0.513285  0.664840  1
  O  O176  1  0.912355  0.011354  0.641606  1
  O  O177  1  0.644654  0.001014  0.694423  1
  O  O178  1  0.443282  0.001379  0.572404  1
  O  O179  1  0.657010  0.750143  0.596680  1
  O  O180  1  0.524907  0.750144  0.638873  1
  O  O181  1  0.822376  0.750138  0.674611  1
  O  O182  1  0.495045  0.250142  0.725296  1
  O  O183  1  0.184692  0.250142  0.682419  1
  O  O184  1  0.815071  0.250140  0.634353  1
  O  O185  1  0.675802  0.250140  0.678549  1
  O  O186  1  0.504729  0.250140  0.596467  1
  O  O187  1  0.177393  0.750136  0.720776  1
  O  O188  1  0.342744  0.750141  0.685880  1
  O  O189  1  -0.000000  0.985551  0.679206  1
  O  O190  1  0.499805  0.019868  0.679550  1
  O  O191  1  0.000000  0.514755  0.679209  1
  O  O192  1  0.499803  0.480412  0.679552  1
  O  O193  1  0.000000  0.250145  0.697157  1
  O  O194  1  0.410177  0.250141  0.656189  1
  O  O195  1  -0.000000  0.750140  0.656549  1
  O  O196  1  0.565787  0.750141  0.696788  1
  Si  Si197  1  0.514103  0.935386  0.116425  1
  Si  Si198  1  0.821751  0.935737  0.155806  1
  Si  Si199  1  0.330405  0.435980  0.242943  1
  Si  Si200  1  0.490639  0.436003  0.203226  1
  Si  Si201  1  0.178674  0.435814  0.161708  1
  Si  Si202  1  0.821093  0.435815  0.115203  1
  Si  Si203  1  0.669393  0.435982  0.156960  1
  Si  Si204  1  0.178033  0.935736  0.202141  1
  Si  Si205  1  0.335149  0.935394  0.162717  1
  Si  Si206  1  0.485673  0.935387  0.242816  1
  Si  Si207  1  0.330403  0.064301  0.242941  1
  Si  Si208  1  0.490639  0.064284  0.203224  1
  Si  Si209  1  0.178675  0.064464  0.161706  1
  Si  Si210  1  0.514101  0.564900  0.116427  1
  Si  Si211  1  0.821750  0.564544  0.155808  1
  Si  Si212  1  0.178033  0.564546  0.202144  1
  Si  Si213  1  0.335149  0.564891  0.162719  1
  Si  Si214  1  0.485675  0.564901  0.242819  1
  Si  Si215  1  0.821093  0.064465  0.115201  1
  Si  Si216  1  0.669396  0.064301  0.156958  1
  Si  Si217  1  -0.000000  0.061870  0.178478  1
  Si  Si218  1  0.580458  0.062302  0.289248  1
  Si  Si219  1  0.419311  0.062304  0.138185  1
  Si  Si220  1  0.000000  0.562279  0.138047  1
  Si  Si221  1  0.425574  0.562049  0.289332  1
  Si  Si222  1  0.574216  0.562051  0.178576  1
  Si  Si223  1  0.000000  0.938010  0.138044  1
  Si  Si224  1  0.425572  0.938233  0.289330  1
  Si  Si225  1  0.574217  0.938232  0.178574  1
  Si  Si226  1  0.000000  0.438420  0.178480  1
  Si  Si227  1  0.580461  0.437981  0.289251  1
  Si  Si228  1  0.419309  0.437980  0.138186  1
  Si  Si229  1  0.664602  0.935392  0.335686  1
  Si  Si230  1  0.514103  0.935386  0.376618  1
  Si  Si231  1  0.821751  0.935737  0.415999  1
  Si  Si232  1  0.330405  0.435980  0.503136  1
  Si  Si233  1  0.490639  0.436003  0.463419  1
  Si  Si234  1  0.178674  0.435814  0.421901  1
  Si  Si235  1  0.821093  0.435815  0.375396  1
  Si  Si236  1  0.669393  0.435982  0.417153  1
  Si  Si237  1  0.509136  0.436003  0.335736  1
  Si  Si238  1  0.178033  0.935736  0.462334  1
  Si  Si239  1  0.335149  0.935394  0.422910  1
  Si  Si240  1  0.485673  0.935387  0.503009  1
  Si  Si241  1  0.330403  0.064301  0.503134  1
  Si  Si242  1  0.490639  0.064284  0.463417  1
  Si  Si243  1  0.178675  0.064464  0.421899  1
  Si  Si244  1  0.664603  0.564891  0.335688  1
  Si  Si245  1  0.514101  0.564900  0.376620  1
  Si  Si246  1  0.821750  0.564544  0.416001  1
  Si  Si247  1  0.178033  0.564546  0.462337  1
  Si  Si248  1  0.335149  0.564891  0.422912  1
  Si  Si249  1  0.485675  0.564901  0.503012  1
  Si  Si250  1  0.821093  0.064465  0.375394  1
  Si  Si251  1  0.669396  0.064301  0.417151  1
  Si  Si252  1  0.509136  0.064287  0.335733  1
  Si  Si253  1  -0.000000  0.061870  0.438671  1
  Si  Si254  1  0.580458  0.062302  0.549441  1
  Si  Si255  1  0.419311  0.062304  0.398378  1
  Si  Si256  1  -0.000000  0.562279  0.398240  1
  Si  Si257  1  0.425574  0.562049  0.549525  1
  Si  Si258  1  0.574216  0.562051  0.438769  1
  Si  Si259  1  0.000000  0.938010  0.398237  1
  Si  Si260  1  0.425572  0.938233  0.549523  1
  Si  Si261  1  0.574217  0.938232  0.438767  1
  Si  Si262  1  -0.000000  0.438420  0.438673  1
  Si  Si263  1  0.580461  0.437981  0.549444  1
  Si  Si264  1  0.419309  0.437980  0.398379  1
  Si  Si265  1  0.664602  0.935392  0.595879  1
  Si  Si266  1  0.514103  0.935386  0.636811  1
  Si  Si267  1  0.821751  0.935737  0.676192  1
  Si  Si268  1  0.490639  0.436003  0.723612  1
  Si  Si269  1  0.178674  0.435814  0.682094  1
  Si  Si270  1  0.821093  0.435815  0.635589  1
  Si  Si271  1  0.669393  0.435982  0.677346  1
  Si  Si272  1  0.509136  0.436003  0.595929  1
  Si  Si273  1  0.178033  0.935736  0.722527  1
  Si  Si274  1  0.335149  0.935394  0.683103  1
  Si  Si275  1  0.490639  0.064284  0.723610  1
  Si  Si276  1  0.178675  0.064464  0.682092  1
  Si  Si277  1  0.664603  0.564891  0.595881  1
  Si  Si278  1  0.514101  0.564900  0.636813  1
  Si  Si279  1  0.821750  0.564544  0.676194  1
  Si  Si280  1  0.178033  0.564546  0.722530  1
  Si  Si281  1  0.335149  0.564891  0.683105  1
  Si  Si282  1  0.821093  0.064465  0.635587  1
  Si  Si283  1  0.669396  0.064301  0.677344  1
  Si  Si284  1  0.509136  0.064287  0.595926  1
  Si  Si285  1  0.000000  0.061870  0.698864  1
  Si  Si286  1  0.419311  0.062304  0.658570  1
  Si  Si287  1  0.000000  0.562279  0.658433  1
  Si  Si288  1  0.574216  0.562051  0.698962  1
  Si  Si289  1  -0.000000  0.938010  0.658430  1
  Si  Si290  1  0.574217  0.938232  0.698960  1
  Si  Si291  1  -0.000000  0.438420  0.698866  1
  Si  Si292  1  0.419309  0.437980  0.658572  1
  H  H293  1  0.753173  0.991293  0.080659  1
  H  H294  1  0.494064  0.990680  0.080833  1
  H  H295  1  0.753175  0.508999  0.080662  1
  H  H296  1  0.494061  0.509593  0.080835  1
  H  H297  1  0.246724  0.509108  0.758022  1
  H  H298  1  0.505717  0.509569  0.757977  1
  H  H299  1  0.246723  0.991184  0.758020  1
  H  H300  1  0.505714  0.990704  0.757974  1
