# generated using pymatgen
data_Si50H2O101
_symmetry_space_group_name_H-M   'P 1'
_cell_length_a   7.16200173
_cell_length_b   7.16174636
_cell_length_c   138.54259449
_cell_angle_alpha   90.00000000
_cell_angle_beta   90.00000000
_cell_angle_gamma   90.00000000
_symmetry_Int_Tables_number   1
_chemical_formula_structural   Si50H2O101
_chemical_formula_sum   'Si100 H4 O202'
_cell_volume   7106.18769016
_cell_formula_units_Z   2
loop_
 _symmetry_equiv_pos_site_id
 _symmetry_equiv_pos_as_xyz
  1  'x, y, z'
loop_
 _atom_site_type_symbol
 _atom_site_label
 _atom_site_symmetry_multiplicity
 _atom_site_fract_x
 _atom_site_fract_y
 _atom_site_fract_z
 _atom_site_occupancy
  O  O1  1  0.503359  0.324988  0.042994  1
  O  O2  1  0.503665  0.667967  0.042586  1
  O  O3  1  0.326506  0.997833  0.118211  1
  O  O4  1  0.829852  0.499302  0.268411  1
  O  O5  1  0.172877  0.502937  0.268358  1
  O  O6  1  0.669400  0.997966  0.117728  1
  O  O7  1  0.001597  0.831682  0.192929  1
  O  O8  1  0.503359  0.324988  0.343785  1
  O  O9  1  0.503665  0.667967  0.343377  1
  O  O10  1  0.003392  0.174634  0.193379  1
  O  O11  1  0.172775  0.996334  0.208251  1
  O  O12  1  0.669472  0.500711  0.058086  1
  O  O13  1  0.326566  0.500824  0.057616  1
  O  O14  1  0.829774  0.000000  0.208183  1
  O  O15  1  0.503965  0.831690  0.133256  1
  O  O16  1  0.003102  0.325098  0.283244  1
  O  O17  1  0.001323  0.668072  0.283652  1
  O  O18  1  0.503612  0.174641  0.132803  1
  O  O19  1  0.166960  0.817654  0.103710  1
  O  O20  1  0.677167  0.320875  0.253566  1
  O  O21  1  0.324078  0.680984  0.253511  1
  O  O22  1  0.814548  0.177846  0.102805  1
  O  O23  1  0.182506  0.686142  0.178041  1
  O  O24  1  0.683146  0.166594  0.329245  1
  O  O25  1  0.322945  0.814090  0.328507  1
  O  O26  1  0.822565  0.333684  0.178877  1
  O  O27  1  0.323810  0.819178  0.223129  1
  O  O28  1  0.814815  0.319900  0.072982  1
  O  O29  1  0.167236  0.680112  0.072144  1
  O  O30  1  0.676819  0.179426  0.222979  1
  O  O31  1  0.323718  0.686205  0.148148  1
  O  O32  1  0.821810  0.166695  0.297749  1
  O  O33  1  0.181776  0.814211  0.298539  1
  O  O34  1  0.683875  0.333723  0.147316  1
  O  O35  1  0.814735  0.679531  0.073007  1
  O  O36  1  0.324244  0.179498  0.222842  1
  O  O37  1  0.676454  0.819050  0.222782  1
  O  O38  1  0.167217  0.319360  0.072118  1
  O  O39  1  0.822119  0.814200  0.298552  1
  O  O40  1  0.323141  0.333682  0.147332  1
  O  O41  1  0.683333  0.686142  0.148174  1
  O  O42  1  0.182575  0.166712  0.297809  1
  O  O43  1  0.676754  0.681101  0.253840  1
  O  O44  1  0.166998  0.178399  0.103688  1
  O  O45  1  0.814508  0.818212  0.102829  1
  O  O46  1  0.324456  0.320785  0.253721  1
  O  O47  1  0.682580  0.814113  0.328457  1
  O  O48  1  0.183311  0.333697  0.178842  1
  O  O49  1  0.822891  0.686164  0.178003  1
  O  O50  1  0.322362  0.166590  0.329258  1
  O  O51  1  0.489710  0.997954  0.102646  1
  O  O52  1  0.000000  0.500997  0.253054  1
  O  O53  1  0.002817  0.010880  0.177830  1
  O  O54  1  0.502807  0.489533  0.328256  1
  O  O55  1  -0.000000  -0.000000  0.223547  1
  O  O56  1  0.490000  0.499722  0.073175  1
  O  O57  1  0.503605  0.010900  0.148354  1
  O  O58  1  0.002026  0.489629  0.298774  1
  O  O59  1  0.991848  0.000000  0.074745  1
  O  O60  1  0.500497  0.499386  0.225152  1
  O  O61  1  0.003420  0.509124  0.149928  1
  O  O62  1  0.502053  0.991162  0.300348  1
  O  O63  1  0.500765  0.000000  0.251502  1
  O  O64  1  0.991644  0.498137  0.101077  1
  O  O65  1  0.502841  0.509110  0.176257  1
  O  O66  1  0.002677  0.991054  0.326679  1
  O  O67  1  0.006608  0.249063  0.087901  1
  O  O68  1  0.507956  0.750072  0.238317  1
  O  O69  1  0.495889  0.248778  0.238283  1
  O  O70  1  0.006377  0.749057  0.087921  1
  O  O71  1  0.753150  0.494421  0.163096  1
  O  O72  1  0.252609  0.003856  0.313529  1
  O  O73  1  0.752596  0.004843  0.313500  1
  O  O74  1  0.253191  0.495346  0.163088  1
  O  O75  1  0.326506  0.997833  0.419002  1
  O  O76  1  0.829852  0.499302  0.569202  1
  O  O77  1  0.172877  0.502937  0.569149  1
  O  O78  1  0.669400  0.997966  0.418519  1
  O  O79  1  0.001597  0.831682  0.493720  1
  O  O80  1  0.503359  0.324988  0.644576  1
  O  O81  1  0.503665  0.667967  0.644168  1
  O  O82  1  0.003392  0.174634  0.494170  1
  O  O83  1  0.172775  0.996334  0.509042  1
  O  O84  1  0.669472  0.500711  0.358877  1
  O  O85  1  0.326566  0.500824  0.358407  1
  O  O86  1  0.829774  -0.000000  0.508974  1
  O  O87  1  0.503965  0.831690  0.434047  1
  O  O88  1  0.003102  0.325098  0.584035  1
  O  O89  1  0.001323  0.668072  0.584443  1
  O  O90  1  0.503612  0.174641  0.433594  1
  O  O91  1  0.166960  0.817654  0.404501  1
  O  O92  1  0.677167  0.320875  0.554357  1
  O  O93  1  0.324078  0.680984  0.554302  1
  O  O94  1  0.814548  0.177846  0.403597  1
  O  O95  1  0.182506  0.686142  0.478833  1
  O  O96  1  0.683146  0.166594  0.630036  1
  O  O97  1  0.322945  0.814090  0.629298  1
  O  O98  1  0.822565  0.333684  0.479668  1
  O  O99  1  0.323810  0.819178  0.523921  1
  O  O100  1  0.814815  0.319900  0.373773  1
  O  O101  1  0.167236  0.680112  0.372935  1
  O  O102  1  0.676819  0.179426  0.523770  1
  O  O103  1  0.323718  0.686205  0.448939  1
  O  O104  1  0.821810  0.166695  0.598540  1
  O  O105  1  0.181776  0.814211  0.599330  1
  O  O106  1  0.683875  0.333723  0.448107  1
  O  O107  1  0.814735  0.679531  0.373798  1
  O  O108  1  0.324244  0.179498  0.523633  1
  O  O109  1  0.676454  0.819050  0.523573  1
  O  O110  1  0.167217  0.319360  0.372910  1
  O  O111  1  0.822119  0.814200  0.599343  1
  O  O112  1  0.323141  0.333682  0.448123  1
  O  O113  1  0.683333  0.686142  0.448965  1
  O  O114  1  0.182575  0.166712  0.598600  1
  O  O115  1  0.676754  0.681101  0.554631  1
  O  O116  1  0.166998  0.178399  0.404479  1
  O  O117  1  0.814508  0.818212  0.403620  1
  O  O118  1  0.324456  0.320785  0.554512  1
  O  O119  1  0.682580  0.814113  0.629248  1
  O  O120  1  0.183311  0.333697  0.479633  1
  O  O121  1  0.822891  0.686164  0.478794  1
  O  O122  1  0.322362  0.166590  0.630050  1
  O  O123  1  0.489710  0.997954  0.403437  1
  O  O124  1  -0.000000  0.500997  0.553845  1
  O  O125  1  0.002817  0.010880  0.478621  1
  O  O126  1  0.502807  0.489533  0.629047  1
  O  O127  1  0.000000  0.000000  0.524338  1
  O  O128  1  0.490000  0.499722  0.373966  1
  O  O129  1  0.503605  0.010900  0.449145  1
  O  O130  1  0.002026  0.489629  0.599565  1
  O  O131  1  0.991848  -0.000000  0.375536  1
  O  O132  1  0.500497  0.499386  0.525943  1
  O  O133  1  0.003420  0.509124  0.450719  1
  O  O134  1  0.502053  0.991162  0.601139  1
  O  O135  1  0.500765  0.000000  0.552293  1
  O  O136  1  0.991644  0.498137  0.401868  1
  O  O137  1  0.502841  0.509110  0.477048  1
  O  O138  1  0.002677  0.991054  0.627471  1
  O  O139  1  0.006608  0.249063  0.388692  1
  O  O140  1  0.507956  0.750072  0.539108  1
  O  O141  1  0.495889  0.248778  0.539074  1
  O  O142  1  0.006377  0.749057  0.388712  1
  O  O143  1  0.753150  0.494421  0.463887  1
  O  O144  1  0.252609  0.003856  0.614321  1
  O  O145  1  0.752596  0.004843  0.614291  1
  O  O146  1  0.253191  0.495346  0.463879  1
  O  O147  1  0.326506  0.997833  0.719793  1
  O  O148  1  0.829852  0.499302  0.869993  1
  O  O149  1  0.172877  0.502937  0.869940  1
  O  O150  1  0.669400  0.997966  0.719311  1
  O  O151  1  0.001597  0.831682  0.794511  1
  O  O152  1  0.003392  0.174634  0.794961  1
  O  O153  1  0.172775  0.996334  0.809833  1
  O  O154  1  0.669472  0.500711  0.659668  1
  O  O155  1  0.326566  0.500824  0.659198  1
  O  O156  1  0.829774  0.000000  0.809765  1
  O  O157  1  0.503965  0.831690  0.734838  1
  O  O158  1  0.003102  0.325098  0.884826  1
  O  O159  1  0.001323  0.668072  0.885234  1
  O  O160  1  0.503612  0.174641  0.734385  1
  O  O161  1  0.166960  0.817654  0.705292  1
  O  O162  1  0.677167  0.320875  0.855148  1
  O  O163  1  0.324078  0.680984  0.855093  1
  O  O164  1  0.814548  0.177846  0.704388  1
  O  O165  1  0.182506  0.686142  0.779624  1
  O  O166  1  0.822565  0.333684  0.780460  1
  O  O167  1  0.323810  0.819178  0.824712  1
  O  O168  1  0.814815  0.319900  0.674565  1
  O  O169  1  0.167236  0.680112  0.673727  1
  O  O170  1  0.676819  0.179426  0.824562  1
  O  O171  1  0.323718  0.686205  0.749730  1
  O  O172  1  0.683875  0.333723  0.748898  1
  O  O173  1  0.814735  0.679531  0.674590  1
  O  O174  1  0.324244  0.179498  0.824424  1
  O  O175  1  0.676454  0.819050  0.824364  1
  O  O176  1  0.167217  0.319360  0.673701  1
  O  O177  1  0.323141  0.333682  0.748914  1
  O  O178  1  0.683333  0.686142  0.749756  1
  O  O179  1  0.676754  0.681101  0.855422  1
  O  O180  1  0.166998  0.178399  0.705270  1
  O  O181  1  0.814508  0.818212  0.704411  1
  O  O182  1  0.324456  0.320785  0.855303  1
  O  O183  1  0.183311  0.333697  0.780424  1
  O  O184  1  0.822891  0.686164  0.779585  1
  O  O185  1  0.489710  0.997954  0.704228  1
  O  O186  1  0.000000  0.500997  0.854636  1
  O  O187  1  0.002817  0.010880  0.779412  1
  O  O188  1  0.000000  -0.000000  0.825129  1
  O  O189  1  0.490000  0.499722  0.674757  1
  O  O190  1  0.503605  0.010900  0.749936  1
  O  O191  1  0.991848  0.000000  0.676328  1
  O  O192  1  0.500497  0.499386  0.826734  1
  O  O193  1  0.003420  0.509124  0.751510  1
  O  O194  1  0.500765  0.000000  0.853084  1
  O  O195  1  0.991644  0.498137  0.702659  1
  O  O196  1  0.502841  0.509110  0.777839  1
  O  O197  1  0.006608  0.249063  0.689483  1
  O  O198  1  0.507956  0.750072  0.839900  1
  O  O199  1  0.495889  0.248778  0.839866  1
  O  O200  1  0.006377  0.749057  0.689503  1
  O  O201  1  0.753150  0.494421  0.764678  1
  O  O202  1  0.253191  0.495346  0.764670  1
  Si  Si203  1  0.279257  0.998046  0.106820  1
  Si  Si204  1  0.788200  0.500209  0.256954  1
  Si  Si205  1  0.213190  0.501529  0.256887  1
  Si  Si206  1  0.704136  0.998088  0.106201  1
  Si  Si207  1  0.002533  0.796579  0.181405  1
  Si  Si208  1  0.502829  0.278744  0.332383  1
  Si  Si209  1  0.502979  0.703656  0.331859  1
  Si  Si210  1  0.003063  0.221456  0.181985  1
  Si  Si211  1  0.212922  0.998431  0.219722  1
  Si  Si212  1  0.704361  0.499823  0.069611  1
  Si  Si213  1  0.279501  0.499869  0.069008  1
  Si  Si214  1  0.787930  0.000000  0.219638  1
  Si  Si215  1  0.503668  0.796593  0.144779  1
  Si  Si216  1  0.002410  0.278839  0.294646  1
  Si  Si217  1  0.001879  0.703760  0.295170  1
  Si  Si218  1  0.503495  0.221487  0.144198  1
  Si  Si219  1  0.994710  0.215812  0.076779  1
  Si  Si220  1  0.501585  0.715561  0.227197  1
  Si  Si221  1  0.500007  0.283124  0.227162  1
  Si  Si222  1  0.994658  0.783425  0.076806  1
  Si  Si223  1  0.787262  0.506263  0.151980  1
  Si  Si224  1  0.285920  0.993483  0.302405  1
  Si  Si225  1  0.718278  0.993908  0.302384  1
  Si  Si226  1  0.219620  0.506488  0.151966  1
  Si  Si227  1  0.500219  0.216919  0.249424  1
  Si  Si228  1  0.994496  0.714357  0.099033  1
  Si  Si229  1  0.994540  0.281965  0.099025  1
  Si  Si230  1  0.501789  0.784656  0.249438  1
  Si  Si231  1  0.719023  0.506140  0.174212  1
  Si  Si232  1  0.218898  0.993497  0.324649  1
  Si  Si233  1  0.786548  0.993695  0.324618  1
  Si  Si234  1  0.286659  0.506560  0.174208  1
  Si  Si235  1  0.501937  -0.000000  0.125500  1
  Si  Si236  1  0.001827  0.499913  0.275918  1
  Si  Si237  1  0.001875  0.000000  0.200683  1
  Si  Si238  1  0.501885  0.499800  0.050320  1
  Si  Si239  1  0.279257  0.998046  0.407611  1
  Si  Si240  1  0.788200  0.500209  0.557745  1
  Si  Si241  1  0.213190  0.501529  0.557678  1
  Si  Si242  1  0.704136  0.998088  0.406993  1
  Si  Si243  1  0.002533  0.796579  0.482196  1
  Si  Si244  1  0.502829  0.278744  0.633174  1
  Si  Si245  1  0.502979  0.703656  0.632651  1
  Si  Si246  1  0.003063  0.221456  0.482776  1
  Si  Si247  1  0.212922  0.998431  0.520513  1
  Si  Si248  1  0.704361  0.499823  0.370402  1
  Si  Si249  1  0.279501  0.499869  0.369799  1
  Si  Si250  1  0.787930  0.000000  0.520429  1
  Si  Si251  1  0.503668  0.796593  0.445570  1
  Si  Si252  1  0.002410  0.278839  0.595437  1
  Si  Si253  1  0.001879  0.703760  0.595961  1
  Si  Si254  1  0.503495  0.221487  0.444989  1
  Si  Si255  1  0.994710  0.215812  0.377570  1
  Si  Si256  1  0.501585  0.715561  0.527988  1
  Si  Si257  1  0.500007  0.283124  0.527953  1
  Si  Si258  1  0.994658  0.783425  0.377597  1
  Si  Si259  1  0.787262  0.506263  0.452771  1
  Si  Si260  1  0.285920  0.993483  0.603196  1
  Si  Si261  1  0.718278  0.993908  0.603175  1
  Si  Si262  1  0.219620  0.506488  0.452757  1
  Si  Si263  1  0.500219  0.216919  0.550215  1
  Si  Si264  1  0.994496  0.714357  0.399824  1
  Si  Si265  1  0.994540  0.281965  0.399816  1
  Si  Si266  1  0.501789  0.784656  0.550229  1
  Si  Si267  1  0.719023  0.506140  0.475003  1
  Si  Si268  1  0.218898  0.993497  0.625441  1
  Si  Si269  1  0.786548  0.993695  0.625410  1
  Si  Si270  1  0.286659  0.506560  0.475000  1
  Si  Si271  1  0.501937  0.000000  0.426291  1
  Si  Si272  1  0.001827  0.499913  0.576709  1
  Si  Si273  1  0.001875  0.000000  0.501475  1
  Si  Si274  1  0.501885  0.499800  0.351111  1
  Si  Si275  1  0.279257  0.998046  0.708402  1
  Si  Si276  1  0.788200  0.500209  0.858536  1
  Si  Si277  1  0.213190  0.501529  0.858469  1
  Si  Si278  1  0.704136  0.998088  0.707784  1
  Si  Si279  1  0.002533  0.796579  0.782987  1
  Si  Si280  1  0.003063  0.221456  0.783567  1
  Si  Si281  1  0.212922  0.998431  0.821304  1
  Si  Si282  1  0.704361  0.499823  0.671193  1
  Si  Si283  1  0.279501  0.499869  0.670591  1
  Si  Si284  1  0.787930  0.000000  0.821220  1
  Si  Si285  1  0.503668  0.796593  0.746362  1
  Si  Si286  1  0.503495  0.221487  0.745780  1
  Si  Si287  1  0.994710  0.215812  0.678361  1
  Si  Si288  1  0.501585  0.715561  0.828779  1
  Si  Si289  1  0.500007  0.283124  0.828744  1
  Si  Si290  1  0.994658  0.783425  0.678388  1
  Si  Si291  1  0.787262  0.506263  0.753562  1
  Si  Si292  1  0.219620  0.506488  0.753548  1
  Si  Si293  1  0.500219  0.216919  0.851006  1
  Si  Si294  1  0.994496  0.714357  0.700615  1
  Si  Si295  1  0.994540  0.281965  0.700607  1
  Si  Si296  1  0.501789  0.784656  0.851020  1
  Si  Si297  1  0.719023  0.506140  0.775794  1
  Si  Si298  1  0.286659  0.506560  0.775791  1
  Si  Si299  1  0.501937  -0.000000  0.727082  1
  Si  Si300  1  0.001827  0.499913  0.877500  1
  Si  Si301  1  0.001875  -0.000000  0.802266  1
  Si  Si302  1  0.501885  0.499800  0.651902  1
  H  H303  1  0.503359  0.324988  0.036498  1
  H  H304  1  0.503665  0.667967  0.036090  1
  H  H305  1  0.003102  0.325098  0.891322  1
  H  H306  1  0.001323  0.668072  0.891730  1
