# generated using pymatgen
data_Si9(HO5)4
_symmetry_space_group_name_H-M   'P 1'
_cell_length_a   10.10746610
_cell_length_b   18.51418868
_cell_length_c   46.32958672
_cell_angle_alpha   134.98382664
_cell_angle_beta   90.00000000
_cell_angle_gamma   90.00000000
_symmetry_Int_Tables_number   1
_chemical_formula_structural   Si9(HO5)4
_chemical_formula_sum   'Si36 H16 O80'
_cell_volume   6132.15274847
_cell_formula_units_Z   4
loop_
 _symmetry_equiv_pos_site_id
 _symmetry_equiv_pos_as_xyz
  1  'x, y, z'
loop_
 _atom_site_type_symbol
 _atom_site_label
 _atom_site_symmetry_multiplicity
 _atom_site_fract_x
 _atom_site_fract_y
 _atom_site_fract_z
 _atom_site_occupancy
  O  O1  1  0.664970  0.977772  0.172008  1
  O  O2  1  0.835204  0.901458  0.184615  1
  O  O3  1  0.612944  0.238317  0.195774  1
  O  O4  1  0.164970  0.977772  0.172008  1
  O  O5  1  0.335204  0.901458  0.184615  1
  O  O6  1  0.112944  0.238317  0.195774  1
  O  O7  1  0.664970  0.977772  0.454502  1
  O  O8  1  0.835204  0.901458  0.467109  1
  O  O9  1  0.664970  0.022385  0.240334  1
  O  O10  1  0.835204  0.098699  0.227727  1
  O  O11  1  0.751847  0.883988  0.384299  1
  O  O12  1  0.748341  0.746708  0.449885  1
  O  O13  1  0.751847  0.116169  0.310536  1
  O  O14  1  0.748341  0.253448  0.244950  1
  O  O15  1  0.002370  0.898876  0.393505  1
  O  O16  1  0.497821  0.764440  0.450690  1
  O  O17  1  0.002370  0.101281  0.301330  1
  O  O18  1  0.497821  0.235717  0.244145  1
  O  O19  1  0.643139  0.050676  0.423074  1
  O  O20  1  0.857064  0.717313  0.394493  1
  O  O21  1  0.643139  0.949480  0.271761  1
  O  O22  1  0.857063  0.282844  0.300343  1
  O  O23  1  0.612944  0.761840  0.216568  1
  O  O24  1  0.887257  0.275127  0.351162  1
  O  O25  1  0.612944  0.238317  0.478268  1
  O  O26  1  0.887257  0.725030  0.343674  1
  O  O27  1  0.606272  0.594991  0.420125  1
  O  O28  1  0.893922  0.162546  0.366497  1
  O  O29  1  0.606272  0.405166  0.274711  1
  O  O30  1  0.893922  0.837611  0.328338  1
  O  O31  1  0.746899  0.846013  0.283213  1
  O  O32  1  0.753341  0.426880  0.370266  1
  O  O33  1  0.746898  0.154143  0.411622  1
  O  O34  1  0.753341  0.573277  0.324570  1
  O  O35  1  0.996782  0.864898  0.285319  1
  O  O36  1  0.503459  0.415433  0.361695  1
  O  O37  1  0.996782  0.135258  0.409516  1
  O  O38  1  0.503459  0.584724  0.333141  1
  O  O39  1  0.859389  0.000000  0.347418  1
  O  O40  1  0.640830  0.500078  0.347418  1
  O  O41  1  0.164970  0.977772  0.454502  1
  O  O42  1  0.335204  0.901458  0.467109  1
  O  O43  1  0.164970  0.022385  0.240334  1
  O  O44  1  0.335204  0.098699  0.227727  1
  O  O45  1  0.251847  0.883988  0.384299  1
  O  O46  1  0.248341  0.746708  0.449885  1
  O  O47  1  0.251847  0.116169  0.310536  1
  O  O48  1  0.248341  0.253448  0.244950  1
  O  O49  1  0.502370  0.898876  0.393505  1
  O  O50  1  0.997821  0.764440  0.450690  1
  O  O51  1  0.502370  0.101281  0.301330  1
  O  O52  1  0.997821  0.235717  0.244145  1
  O  O53  1  0.143139  0.050676  0.423074  1
  O  O54  1  0.357064  0.717312  0.394493  1
  O  O55  1  0.143139  0.949480  0.271761  1
  O  O56  1  0.357064  0.282844  0.300343  1
  O  O57  1  0.112944  0.761840  0.216568  1
  O  O58  1  0.387257  0.275127  0.351162  1
  O  O59  1  0.112944  0.238317  0.478268  1
  O  O60  1  0.387257  0.725030  0.343674  1
  O  O61  1  0.106272  0.594991  0.420124  1
  O  O62  1  0.393922  0.162546  0.366497  1
  O  O63  1  0.106272  0.405166  0.274711  1
  O  O64  1  0.393922  0.837611  0.328338  1
  O  O65  1  0.246898  0.846013  0.283213  1
  O  O66  1  0.253341  0.426880  0.370266  1
  O  O67  1  0.246898  0.154143  0.411622  1
  O  O68  1  0.253341  0.573277  0.324570  1
  O  O69  1  0.496782  0.864898  0.285319  1
  O  O70  1  0.003459  0.415433  0.361695  1
  O  O71  1  0.496782  0.135258  0.409516  1
  O  O72  1  0.003459  0.584724  0.333141  1
  O  O73  1  0.359389  0.000000  0.347418  1
  O  O74  1  0.140830  0.500079  0.347418  1
  O  O75  1  0.664970  0.022385  0.522827  1
  O  O76  1  0.835204  0.098699  0.510220  1
  O  O77  1  0.612944  0.761840  0.499062  1
  O  O78  1  0.164970  0.022385  0.522827  1
  O  O79  1  0.335204  0.098699  0.510220  1
  O  O80  1  0.112944  0.761840  0.499062  1
  Si  Si81  1  0.637536  0.953305  0.414786  1
  Si  Si82  1  0.862636  0.785398  0.441233  1
  Si  Si83  1  0.637536  0.046851  0.280049  1
  Si  Si84  1  0.862636  0.214758  0.253603  1
  Si  Si85  1  0.613469  0.714898  0.454473  1
  Si  Si86  1  0.886708  0.164259  0.333088  1
  Si  Si87  1  0.613469  0.285258  0.240362  1
  Si  Si88  1  0.886708  0.835898  0.361747  1
  Si  Si89  1  0.625786  0.853638  0.264268  1
  Si  Si90  1  0.874433  0.352216  0.347009  1
  Si  Si91  1  0.625786  0.146519  0.430568  1
  Si  Si92  1  0.874434  0.647941  0.347826  1
  Si  Si93  1  0.874266  0.882870  0.309990  1
  Si  Si94  1  0.625952  0.484804  0.376232  1
  Si  Si95  1  0.874266  0.117286  0.384845  1
  Si  Si96  1  0.625952  0.515352  0.318604  1
  Si  Si97  1  0.750145  0.000000  0.206171  1
  Si  Si98  1  0.137536  0.953306  0.414787  1
  Si  Si99  1  0.362636  0.785398  0.441233  1
  Si  Si100  1  0.137536  0.046851  0.280049  1
  Si  Si101  1  0.362636  0.214759  0.253603  1
  Si  Si102  1  0.113468  0.714898  0.454473  1
  Si  Si103  1  0.386708  0.164259  0.333088  1
  Si  Si104  1  0.113469  0.285258  0.240362  1
  Si  Si105  1  0.386708  0.835898  0.361747  1
  Si  Si106  1  0.125786  0.853638  0.264268  1
  Si  Si107  1  0.374433  0.352216  0.347009  1
  Si  Si108  1  0.125786  0.146519  0.430568  1
  Si  Si109  1  0.374434  0.647941  0.347826  1
  Si  Si110  1  0.374266  0.882870  0.309990  1
  Si  Si111  1  0.125952  0.484804  0.376232  1
  Si  Si112  1  0.374266  0.117286  0.384845  1
  Si  Si113  1  0.125952  0.515352  0.318604  1
  Si  Si114  1  0.250145  0.000000  0.206171  1
  Si  Si115  1  0.750145  0.000000  0.488664  1
  Si  Si116  1  0.250145  0.000000  0.488664  1
  H  H117  1  0.664970  0.977772  0.152582  1
  H  H118  1  0.835204  0.901458  0.165189  1
  H  H119  1  0.612944  0.238317  0.176348  1
  H  H120  1  0.164970  0.977772  0.152582  1
  H  H121  1  0.335204  0.901458  0.165189  1
  H  H122  1  0.112944  0.238317  0.176348  1
  H  H123  1  0.612944  0.761840  0.197142  1
  H  H124  1  0.612944  0.238317  0.497694  1
  H  H125  1  0.112944  0.761840  0.197142  1
  H  H126  1  0.112944  0.238317  0.497694  1
  H  H127  1  0.664970  0.022385  0.542253  1
  H  H128  1  0.835204  0.098699  0.529646  1
  H  H129  1  0.612944  0.761840  0.518488  1
  H  H130  1  0.164970  0.022385  0.542253  1
  H  H131  1  0.335204  0.098699  0.529646  1
  H  H132  1  0.112944  0.761840  0.518488  1
