# generated using pymatgen
data_Si18H2O37
_symmetry_space_group_name_H-M   'P 1'
_cell_length_a   18.63077127
_cell_length_b   8.35219177
_cell_length_c   62.15556307
_cell_angle_alpha   90.00000000
_cell_angle_beta   120.00000000
_cell_angle_gamma   90.00000000
_symmetry_Int_Tables_number   1
_chemical_formula_structural   Si18H2O37
_chemical_formula_sum   'Si72 H8 O148'
_cell_volume   8376.10143762
_cell_formula_units_Z   4
loop_
 _symmetry_equiv_pos_site_id
 _symmetry_equiv_pos_as_xyz
  1  'x, y, z'
loop_
 _atom_site_type_symbol
 _atom_site_label
 _atom_site_symmetry_multiplicity
 _atom_site_fract_x
 _atom_site_fract_y
 _atom_site_fract_z
 _atom_site_occupancy
  O  O1  1  0.597513  0.012867  0.139730  1
  O  O2  1  0.598090  0.013240  0.201888  1
  O  O3  1  0.804128  0.006561  0.201460  1
  O  O4  1  0.401697  0.487048  0.322277  1
  O  O5  1  0.402253  0.487438  0.260288  1
  O  O6  1  0.195648  0.493662  0.260107  1
  O  O7  1  0.804128  0.493704  0.201464  1
  O  O8  1  0.598087  0.487049  0.201890  1
  O  O9  1  0.597516  0.487427  0.139733  1
  O  O10  1  0.195648  0.006603  0.260103  1
  O  O11  1  0.402255  0.012857  0.260285  1
  O  O12  1  0.401695  0.013241  0.322274  1
  O  O13  1  0.753173  0.991293  0.155035  1
  O  O14  1  0.494064  0.990680  0.155235  1
  O  O15  1  0.753080  0.991225  0.232906  1
  O  O16  1  0.246724  0.509108  0.306852  1
  O  O17  1  0.505717  0.509569  0.306800  1
  O  O18  1  0.246580  0.509012  0.228946  1
  O  O19  1  0.753175  0.508999  0.155039  1
  O  O20  1  0.753079  0.509066  0.232909  1
  O  O21  1  0.494061  0.509593  0.155238  1
  O  O22  1  0.246723  0.991184  0.306849  1
  O  O23  1  0.246581  0.991280  0.228943  1
  O  O24  1  0.505714  0.990704  0.306796  1
  O  O25  1  0.643913  0.986979  0.107368  1
  O  O26  1  0.443670  0.987000  0.187840  1
  O  O27  1  0.911811  0.996674  0.247516  1
  O  O28  1  0.355143  0.499252  0.354528  1
  O  O29  1  0.556497  0.498927  0.274358  1
  O  O30  1  0.087391  0.488938  0.213485  1
  O  O31  1  0.912358  0.488929  0.187270  1
  O  O32  1  0.644652  0.499260  0.248092  1
  O  O33  1  0.443283  0.498916  0.107575  1
  O  O34  1  0.087995  0.996684  0.273904  1
  O  O35  1  0.355847  0.986989  0.214019  1
  O  O36  1  0.556102  0.986987  0.354506  1
  O  O37  1  0.355141  0.001022  0.354525  1
  O  O38  1  0.556498  0.001369  0.274356  1
  O  O39  1  0.087393  0.011345  0.213482  1
  O  O40  1  0.643916  0.513295  0.107371  1
  O  O41  1  0.443669  0.513297  0.187843  1
  O  O42  1  0.911810  0.503609  0.247519  1
  O  O43  1  0.087997  0.503600  0.273907  1
  O  O44  1  0.355843  0.513285  0.214022  1
  O  O45  1  0.556103  0.513311  0.354509  1
  O  O46  1  0.912355  0.011354  0.187266  1
  O  O47  1  0.644654  0.001014  0.248090  1
  O  O48  1  0.443282  0.001379  0.107572  1
  O  O49  1  0.657010  0.750143  0.135529  1
  O  O50  1  0.524907  0.750144  0.184118  1
  O  O51  1  0.822376  0.750138  0.225274  1
  O  O52  1  0.323984  0.250142  0.326903  1
  O  O53  1  0.495045  0.250142  0.283643  1
  O  O54  1  0.184692  0.250142  0.234266  1
  O  O55  1  0.815071  0.250140  0.178913  1
  O  O56  1  0.675802  0.250140  0.229809  1
  O  O57  1  0.504729  0.250140  0.135283  1
  O  O58  1  0.177393  0.750136  0.278438  1
  O  O59  1  0.342744  0.750141  0.238251  1
  O  O60  1  0.474866  0.750142  0.326430  1
  O  O61  1  -0.000000  0.985551  0.230566  1
  O  O62  1  0.499974  0.019873  0.380808  1
  O  O63  1  0.499805  0.019868  0.230962  1
  O  O64  1  -0.000000  0.514755  0.230570  1
  O  O65  1  0.499975  0.480406  0.380811  1
  O  O66  1  0.499803  0.480412  0.230965  1
  O  O67  1  0.000000  0.250145  0.251238  1
  O  O68  1  0.589594  0.250141  0.380764  1
  O  O69  1  0.410177  0.250141  0.204060  1
  O  O70  1  0.000000  0.750140  0.204474  1
  O  O71  1  0.434002  0.750141  0.380888  1
  O  O72  1  0.565787  0.750141  0.250813  1
  O  O73  1  0.597513  0.012867  0.439370  1
  O  O74  1  0.598090  0.013240  0.501529  1
  O  O75  1  0.804128  0.006561  0.501101  1
  O  O76  1  0.401697  0.487048  0.621918  1
  O  O77  1  0.402253  0.487438  0.559929  1
  O  O78  1  0.195648  0.493662  0.559747  1
  O  O79  1  0.804128  0.493704  0.501105  1
  O  O80  1  0.598087  0.487049  0.501531  1
  O  O81  1  0.597516  0.487427  0.439373  1
  O  O82  1  0.195648  0.006603  0.559744  1
  O  O83  1  0.402255  0.012857  0.559926  1
  O  O84  1  0.401695  0.013241  0.621914  1
  O  O85  1  0.753173  0.991293  0.454676  1
  O  O86  1  0.494064  0.990680  0.454875  1
  O  O87  1  0.753080  0.991225  0.532547  1
  O  O88  1  0.246724  0.509108  0.606492  1
  O  O89  1  0.505717  0.509569  0.606441  1
  O  O90  1  0.246580  0.509012  0.528587  1
  O  O91  1  0.753175  0.508999  0.454679  1
  O  O92  1  0.753079  0.509066  0.532549  1
  O  O93  1  0.494061  0.509593  0.454879  1
  O  O94  1  0.246723  0.991184  0.606489  1
  O  O95  1  0.246581  0.991280  0.528584  1
  O  O96  1  0.505714  0.990704  0.606437  1
  O  O97  1  0.643913  0.986979  0.407008  1
  O  O98  1  0.443670  0.987000  0.487480  1
  O  O99  1  0.911811  0.996674  0.547157  1
  O  O100  1  0.355143  0.499252  0.654168  1
  O  O101  1  0.556497  0.498927  0.573999  1
  O  O102  1  0.087391  0.488938  0.513126  1
  O  O103  1  0.912358  0.488929  0.486911  1
  O  O104  1  0.644652  0.499260  0.547733  1
  O  O105  1  0.443283  0.498916  0.407216  1
  O  O106  1  0.087995  0.996684  0.573544  1
  O  O107  1  0.355847  0.986989  0.513660  1
  O  O108  1  0.556102  0.986987  0.654146  1
  O  O109  1  0.355141  0.001022  0.654165  1
  O  O110  1  0.556498  0.001369  0.573997  1
  O  O111  1  0.087393  0.011345  0.513123  1
  O  O112  1  0.643916  0.513295  0.407012  1
  O  O113  1  0.443669  0.513297  0.487483  1
  O  O114  1  0.911810  0.503609  0.547160  1
  O  O115  1  0.087997  0.503600  0.573548  1
  O  O116  1  0.355843  0.513285  0.513663  1
  O  O117  1  0.556103  0.513311  0.654149  1
  O  O118  1  0.912355  0.011354  0.486907  1
  O  O119  1  0.644654  0.001014  0.547730  1
  O  O120  1  0.443282  0.001379  0.407213  1
  O  O121  1  0.657010  0.750143  0.435170  1
  O  O122  1  0.524907  0.750144  0.483759  1
  O  O123  1  0.822376  0.750138  0.524915  1
  O  O124  1  0.323984  0.250142  0.626544  1
  O  O125  1  0.495045  0.250142  0.583284  1
  O  O126  1  0.184692  0.250142  0.533907  1
  O  O127  1  0.815071  0.250140  0.478554  1
  O  O128  1  0.675802  0.250140  0.529450  1
  O  O129  1  0.504729  0.250140  0.434924  1
  O  O130  1  0.177393  0.750136  0.578079  1
  O  O131  1  0.342744  0.750141  0.537892  1
  O  O132  1  0.474866  0.750142  0.626070  1
  O  O133  1  0.000000  0.985551  0.530207  1
  O  O134  1  0.499974  0.019873  0.680448  1
  O  O135  1  0.499805  0.019868  0.530603  1
  O  O136  1  -0.000000  0.514755  0.530210  1
  O  O137  1  0.499975  0.480406  0.680451  1
  O  O138  1  0.499803  0.480412  0.530606  1
  O  O139  1  -0.000000  0.250145  0.550879  1
  O  O140  1  0.589594  0.250141  0.680405  1
  O  O141  1  0.410177  0.250141  0.503701  1
  O  O142  1  0.000000  0.750140  0.504115  1
  O  O143  1  0.434002  0.750141  0.680528  1
  O  O144  1  0.565787  0.750141  0.550454  1
  O  O145  1  0.643913  0.986979  0.706649  1
  O  O146  1  0.443283  0.498916  0.706856  1
  O  O147  1  0.643916  0.513295  0.706653  1
  O  O148  1  0.443282  0.001379  0.706854  1
  Si  Si149  1  0.664602  0.935392  0.134605  1
  Si  Si150  1  0.514103  0.935386  0.181744  1
  Si  Si151  1  0.821751  0.935737  0.227095  1
  Si  Si152  1  0.330405  0.435980  0.327443  1
  Si  Si153  1  0.490639  0.436003  0.281705  1
  Si  Si154  1  0.178674  0.435814  0.233892  1
  Si  Si155  1  0.821093  0.435815  0.180337  1
  Si  Si156  1  0.669393  0.435982  0.228423  1
  Si  Si157  1  0.509136  0.436003  0.134663  1
  Si  Si158  1  0.178033  0.935736  0.280455  1
  Si  Si159  1  0.335149  0.935394  0.235054  1
  Si  Si160  1  0.485673  0.935387  0.327297  1
  Si  Si161  1  0.330403  0.064301  0.327440  1
  Si  Si162  1  0.490639  0.064284  0.281702  1
  Si  Si163  1  0.178675  0.064464  0.233890  1
  Si  Si164  1  0.664603  0.564891  0.134608  1
  Si  Si165  1  0.514101  0.564900  0.181746  1
  Si  Si166  1  0.821750  0.564544  0.227097  1
  Si  Si167  1  0.178033  0.564546  0.280458  1
  Si  Si168  1  0.335149  0.564891  0.235057  1
  Si  Si169  1  0.485675  0.564901  0.327300  1
  Si  Si170  1  0.821093  0.064465  0.180334  1
  Si  Si171  1  0.669396  0.064301  0.228421  1
  Si  Si172  1  0.509136  0.064287  0.134660  1
  Si  Si173  1  0.000000  0.061870  0.253204  1
  Si  Si174  1  0.580458  0.062302  0.380769  1
  Si  Si175  1  0.419311  0.062304  0.206802  1
  Si  Si176  1  -0.000000  0.562279  0.206643  1
  Si  Si177  1  0.425574  0.562049  0.380865  1
  Si  Si178  1  0.574216  0.562051  0.253317  1
  Si  Si179  1  -0.000000  0.938010  0.206640  1
  Si  Si180  1  0.425572  0.938233  0.380862  1
  Si  Si181  1  0.574217  0.938232  0.253315  1
  Si  Si182  1  -0.000000  0.438420  0.253207  1
  Si  Si183  1  0.580461  0.437981  0.380772  1
  Si  Si184  1  0.419309  0.437980  0.206804  1
  Si  Si185  1  0.664602  0.935392  0.434246  1
  Si  Si186  1  0.514103  0.935386  0.481384  1
  Si  Si187  1  0.821751  0.935737  0.526735  1
  Si  Si188  1  0.330405  0.435980  0.627084  1
  Si  Si189  1  0.490639  0.436003  0.581345  1
  Si  Si190  1  0.178674  0.435814  0.533533  1
  Si  Si191  1  0.821093  0.435815  0.479977  1
  Si  Si192  1  0.669393  0.435982  0.528064  1
  Si  Si193  1  0.509136  0.436003  0.434304  1
  Si  Si194  1  0.178033  0.935736  0.580096  1
  Si  Si195  1  0.335149  0.935394  0.534695  1
  Si  Si196  1  0.485673  0.935387  0.626937  1
  Si  Si197  1  0.330403  0.064301  0.627081  1
  Si  Si198  1  0.490639  0.064284  0.581343  1
  Si  Si199  1  0.178675  0.064464  0.533530  1
  Si  Si200  1  0.664603  0.564891  0.434249  1
  Si  Si201  1  0.514101  0.564900  0.481386  1
  Si  Si202  1  0.821750  0.564544  0.526738  1
  Si  Si203  1  0.178033  0.564546  0.580098  1
  Si  Si204  1  0.335149  0.564891  0.534697  1
  Si  Si205  1  0.485675  0.564901  0.626940  1
  Si  Si206  1  0.821093  0.064465  0.479974  1
  Si  Si207  1  0.669396  0.064301  0.528062  1
  Si  Si208  1  0.509136  0.064287  0.434301  1
  Si  Si209  1  -0.000000  0.061870  0.552845  1
  Si  Si210  1  0.580458  0.062302  0.680409  1
  Si  Si211  1  0.419311  0.062304  0.506443  1
  Si  Si212  1  0.000000  0.562279  0.506284  1
  Si  Si213  1  0.425574  0.562049  0.680506  1
  Si  Si214  1  0.574216  0.562051  0.552958  1
  Si  Si215  1  0.000000  0.938010  0.506281  1
  Si  Si216  1  0.425572  0.938233  0.680503  1
  Si  Si217  1  0.574217  0.938232  0.552956  1
  Si  Si218  1  -0.000000  0.438420  0.552848  1
  Si  Si219  1  0.580461  0.437981  0.680412  1
  Si  Si220  1  0.419309  0.437980  0.506445  1
  H  H221  1  0.643913  0.986979  0.092888  1
  H  H222  1  0.443283  0.498916  0.093095  1
  H  H223  1  0.643916  0.513295  0.092892  1
  H  H224  1  0.443282  0.001379  0.093093  1
  H  H225  1  0.643913  0.986979  0.721129  1
  H  H226  1  0.443283  0.498916  0.721336  1
  H  H227  1  0.643916  0.513295  0.721132  1
  H  H228  1  0.443282  0.001379  0.721333  1
