# generated using pymatgen
data_Si29(H4O31)2
_symmetry_space_group_name_H-M   'P 1'
_cell_length_a   10.10746610
_cell_length_b   18.51418868
_cell_length_c   55.28854767
_cell_angle_alpha   134.98382664
_cell_angle_beta   90.00000000
_cell_angle_gamma   90.00000000
_symmetry_Int_Tables_number   1
_chemical_formula_structural   Si29(H4O31)2
_chemical_formula_sum   'Si58 H16 O124'
_cell_volume   7317.95475777
_cell_formula_units_Z   2
loop_
 _symmetry_equiv_pos_site_id
 _symmetry_equiv_pos_as_xyz
  1  'x, y, z'
loop_
 _atom_site_type_symbol
 _atom_site_label
 _atom_site_symmetry_multiplicity
 _atom_site_fract_x
 _atom_site_fract_y
 _atom_site_fract_z
 _atom_site_occupancy
  O  O1  1  0.664970  0.977772  0.343515  1
  O  O2  1  0.835204  0.901458  0.354079  1
  O  O3  1  0.664970  0.022385  0.164051  1
  O  O4  1  0.751847  0.883988  0.284688  1
  O  O5  1  0.748341  0.746708  0.339647  1
  O  O6  1  0.751847  0.116169  0.222878  1
  O  O7  1  0.002370  0.898876  0.292402  1
  O  O8  1  0.497821  0.764440  0.340321  1
  O  O9  1  0.002370  0.101281  0.215164  1
  O  O10  1  0.643139  0.050676  0.317180  1
  O  O11  1  0.857064  0.717313  0.293230  1
  O  O12  1  0.643139  0.949480  0.190385  1
  O  O13  1  0.857063  0.282844  0.214336  1
  O  O14  1  0.612944  0.761840  0.144136  1
  O  O15  1  0.887257  0.275127  0.256920  1
  O  O16  1  0.612944  0.238317  0.363430  1
  O  O17  1  0.887257  0.725030  0.250646  1
  O  O18  1  0.606272  0.594991  0.314708  1
  O  O19  1  0.893922  0.162546  0.269771  1
  O  O20  1  0.606272  0.405166  0.192858  1
  O  O21  1  0.893922  0.837611  0.237795  1
  O  O22  1  0.746899  0.846013  0.199982  1
  O  O23  1  0.753341  0.426880  0.272929  1
  O  O24  1  0.746898  0.154143  0.307584  1
  O  O25  1  0.753341  0.573277  0.234637  1
  O  O26  1  0.996782  0.864898  0.201747  1
  O  O27  1  0.503459  0.415433  0.265747  1
  O  O28  1  0.996782  0.135258  0.305819  1
  O  O29  1  0.503459  0.584724  0.241819  1
  O  O30  1  0.859389  0.000000  0.253783  1
  O  O31  1  0.640830  0.500078  0.253783  1
  O  O32  1  0.164970  0.977772  0.343515  1
  O  O33  1  0.335204  0.901458  0.354079  1
  O  O34  1  0.164970  0.022385  0.164051  1
  O  O35  1  0.251847  0.883988  0.284688  1
  O  O36  1  0.248341  0.746708  0.339647  1
  O  O37  1  0.251847  0.116169  0.222878  1
  O  O38  1  0.502370  0.898876  0.292402  1
  O  O39  1  0.997821  0.764440  0.340321  1
  O  O40  1  0.502370  0.101281  0.215164  1
  O  O41  1  0.143139  0.050676  0.317180  1
  O  O42  1  0.357064  0.717312  0.293230  1
  O  O43  1  0.143139  0.949480  0.190385  1
  O  O44  1  0.357064  0.282844  0.214336  1
  O  O45  1  0.112944  0.761840  0.144136  1
  O  O46  1  0.387257  0.275127  0.256920  1
  O  O47  1  0.112944  0.238317  0.363430  1
  O  O48  1  0.387257  0.725030  0.250646  1
  O  O49  1  0.106272  0.594991  0.314708  1
  O  O50  1  0.393922  0.162546  0.269771  1
  O  O51  1  0.106272  0.405166  0.192858  1
  O  O52  1  0.393922  0.837611  0.237795  1
  O  O53  1  0.246898  0.846013  0.199982  1
  O  O54  1  0.253341  0.426880  0.272929  1
  O  O55  1  0.246898  0.154143  0.307583  1
  O  O56  1  0.253341  0.573277  0.234637  1
  O  O57  1  0.496782  0.864898  0.201747  1
  O  O58  1  0.003459  0.415433  0.265747  1
  O  O59  1  0.496782  0.135258  0.305819  1
  O  O60  1  0.003459  0.584724  0.241819  1
  O  O61  1  0.359389  0.000000  0.253783  1
  O  O62  1  0.140830  0.500079  0.253783  1
  O  O63  1  0.664970  0.977772  0.580233  1
  O  O64  1  0.664970  0.022385  0.400769  1
  O  O65  1  0.835204  0.098699  0.390205  1
  O  O66  1  0.751847  0.883988  0.521406  1
  O  O67  1  0.751847  0.116169  0.459596  1
  O  O68  1  0.748341  0.253448  0.404637  1
  O  O69  1  0.002370  0.898876  0.529121  1
  O  O70  1  0.002370  0.101281  0.451882  1
  O  O71  1  0.497821  0.235717  0.403963  1
  O  O72  1  0.643139  0.050676  0.553899  1
  O  O73  1  0.857064  0.717313  0.529948  1
  O  O74  1  0.643139  0.949480  0.427104  1
  O  O75  1  0.857063  0.282844  0.451054  1
  O  O76  1  0.612944  0.761840  0.380854  1
  O  O77  1  0.887257  0.275127  0.493639  1
  O  O78  1  0.612944  0.238317  0.600148  1
  O  O79  1  0.887257  0.725030  0.487364  1
  O  O80  1  0.606272  0.594991  0.551427  1
  O  O81  1  0.893922  0.162546  0.506489  1
  O  O82  1  0.606272  0.405166  0.429576  1
  O  O83  1  0.893922  0.837611  0.474513  1
  O  O84  1  0.746899  0.846013  0.436700  1
  O  O85  1  0.753341  0.426880  0.509647  1
  O  O86  1  0.746898  0.154143  0.544302  1
  O  O87  1  0.753341  0.573277  0.471355  1
  O  O88  1  0.996782  0.864898  0.438465  1
  O  O89  1  0.503459  0.415433  0.502465  1
  O  O90  1  0.996782  0.135258  0.542537  1
  O  O91  1  0.503459  0.584724  0.478538  1
  O  O92  1  0.859389  0.000000  0.490501  1
  O  O93  1  0.640830  0.500078  0.490501  1
  O  O94  1  0.164970  0.977772  0.580233  1
  O  O95  1  0.164970  0.022385  0.400769  1
  O  O96  1  0.335204  0.098699  0.390205  1
  O  O97  1  0.251847  0.883988  0.521406  1
  O  O98  1  0.251847  0.116169  0.459596  1
  O  O99  1  0.248341  0.253448  0.404637  1
  O  O100  1  0.502370  0.898876  0.529121  1
  O  O101  1  0.502370  0.101281  0.451882  1
  O  O102  1  0.997821  0.235717  0.403963  1
  O  O103  1  0.143139  0.050676  0.553899  1
  O  O104  1  0.357064  0.717312  0.529948  1
  O  O105  1  0.143139  0.949480  0.427104  1
  O  O106  1  0.357064  0.282844  0.451054  1
  O  O107  1  0.112944  0.761840  0.380854  1
  O  O108  1  0.387257  0.275127  0.493639  1
  O  O109  1  0.112944  0.238317  0.600148  1
  O  O110  1  0.387257  0.725030  0.487364  1
  O  O111  1  0.106272  0.594991  0.551426  1
  O  O112  1  0.393922  0.162546  0.506489  1
  O  O113  1  0.106272  0.405166  0.429576  1
  O  O114  1  0.393922  0.837611  0.474513  1
  O  O115  1  0.246898  0.846013  0.436700  1
  O  O116  1  0.253341  0.426880  0.509647  1
  O  O117  1  0.246898  0.154143  0.544302  1
  O  O118  1  0.253341  0.573277  0.471355  1
  O  O119  1  0.496782  0.864898  0.438465  1
  O  O120  1  0.003459  0.415433  0.502465  1
  O  O121  1  0.496782  0.135258  0.542537  1
  O  O122  1  0.003459  0.584724  0.478538  1
  O  O123  1  0.359389  0.000000  0.490501  1
  O  O124  1  0.140830  0.500079  0.490501  1
  Si  Si125  1  0.637536  0.953305  0.310235  1
  Si  Si126  1  0.862636  0.785398  0.332396  1
  Si  Si127  1  0.637536  0.046851  0.197331  1
  Si  Si128  1  0.613469  0.714898  0.343491  1
  Si  Si129  1  0.886708  0.164259  0.241775  1
  Si  Si130  1  0.886708  0.835898  0.265790  1
  Si  Si131  1  0.625786  0.853638  0.184107  1
  Si  Si132  1  0.874433  0.352216  0.253440  1
  Si  Si133  1  0.625786  0.146519  0.323459  1
  Si  Si134  1  0.874434  0.647941  0.254125  1
  Si  Si135  1  0.874266  0.882870  0.222420  1
  Si  Si136  1  0.625952  0.484804  0.277928  1
  Si  Si137  1  0.874266  0.117286  0.285145  1
  Si  Si138  1  0.625952  0.515352  0.229638  1
  Si  Si139  1  0.137536  0.953306  0.310235  1
  Si  Si140  1  0.362636  0.785398  0.332396  1
  Si  Si141  1  0.137536  0.046851  0.197330  1
  Si  Si142  1  0.113468  0.714898  0.343491  1
  Si  Si143  1  0.386708  0.164259  0.241775  1
  Si  Si144  1  0.386708  0.835898  0.265790  1
  Si  Si145  1  0.125786  0.853638  0.184107  1
  Si  Si146  1  0.374433  0.352216  0.253440  1
  Si  Si147  1  0.125786  0.146519  0.323459  1
  Si  Si148  1  0.374434  0.647941  0.254125  1
  Si  Si149  1  0.374266  0.882870  0.222420  1
  Si  Si150  1  0.125952  0.484804  0.277928  1
  Si  Si151  1  0.374266  0.117286  0.285145  1
  Si  Si152  1  0.125952  0.515352  0.229638  1
  Si  Si153  1  0.637536  0.953305  0.546953  1
  Si  Si154  1  0.637536  0.046851  0.434049  1
  Si  Si155  1  0.862636  0.214758  0.411888  1
  Si  Si156  1  0.886708  0.164259  0.478494  1
  Si  Si157  1  0.613469  0.285258  0.400793  1
  Si  Si158  1  0.886708  0.835898  0.502509  1
  Si  Si159  1  0.625786  0.853638  0.420825  1
  Si  Si160  1  0.874433  0.352216  0.490159  1
  Si  Si161  1  0.625786  0.146519  0.560177  1
  Si  Si162  1  0.874434  0.647941  0.490844  1
  Si  Si163  1  0.874266  0.882870  0.459139  1
  Si  Si164  1  0.625952  0.484804  0.514646  1
  Si  Si165  1  0.874266  0.117286  0.521864  1
  Si  Si166  1  0.625952  0.515352  0.466356  1
  Si  Si167  1  0.750145  0.000000  0.372142  1
  Si  Si168  1  0.137536  0.953306  0.546954  1
  Si  Si169  1  0.137536  0.046851  0.434049  1
  Si  Si170  1  0.362636  0.214759  0.411888  1
  Si  Si171  1  0.386708  0.164259  0.478494  1
  Si  Si172  1  0.113469  0.285258  0.400793  1
  Si  Si173  1  0.386708  0.835898  0.502509  1
  Si  Si174  1  0.125786  0.853638  0.420825  1
  Si  Si175  1  0.374433  0.352216  0.490159  1
  Si  Si176  1  0.125786  0.146519  0.560178  1
  Si  Si177  1  0.374434  0.647941  0.490844  1
  Si  Si178  1  0.374266  0.882870  0.459139  1
  Si  Si179  1  0.125952  0.484804  0.514646  1
  Si  Si180  1  0.374266  0.117286  0.521864  1
  Si  Si181  1  0.125952  0.515352  0.466356  1
  Si  Si182  1  0.250145  0.000000  0.372142  1
  H  H183  1  0.664970  0.022385  0.147772  1
  H  H184  1  0.857063  0.282844  0.198058  1
  H  H185  1  0.612944  0.761840  0.127858  1
  H  H186  1  0.606272  0.405166  0.176579  1
  H  H187  1  0.164970  0.022385  0.147772  1
  H  H188  1  0.357064  0.282844  0.198058  1
  H  H189  1  0.112944  0.761840  0.127858  1
  H  H190  1  0.106272  0.405166  0.176579  1
  H  H191  1  0.664970  0.977772  0.596512  1
  H  H192  1  0.857064  0.717313  0.546226  1
  H  H193  1  0.612944  0.238317  0.616427  1
  H  H194  1  0.606272  0.594991  0.567705  1
  H  H195  1  0.164970  0.977772  0.596512  1
  H  H196  1  0.357064  0.717312  0.546226  1
  H  H197  1  0.112944  0.238317  0.616427  1
  H  H198  1  0.106272  0.594991  0.567705  1
