# generated using pymatgen
data_Si23(HO12)4
_symmetry_space_group_name_H-M   'P 1'
_cell_length_a   10.10746610
_cell_length_b   18.51418868
_cell_length_c   68.37636006
_cell_angle_alpha   134.98382664
_cell_angle_beta   90.00000000
_cell_angle_gamma   90.00000000
_symmetry_Int_Tables_number   1
_chemical_formula_structural   Si23(HO12)4
_chemical_formula_sum   'Si92 H16 O192'
_cell_volume   9050.24874953
_cell_formula_units_Z   4
loop_
 _symmetry_equiv_pos_site_id
 _symmetry_equiv_pos_as_xyz
  1  'x, y, z'
loop_
 _atom_site_type_symbol
 _atom_site_label
 _atom_site_symmetry_multiplicity
 _atom_site_fract_x
 _atom_site_fract_y
 _atom_site_fract_z
 _atom_site_occupancy
  O  O1  1  0.664970  0.977772  0.277763  1
  O  O2  1  0.835204  0.901458  0.286305  1
  O  O3  1  0.664970  0.022385  0.132650  1
  O  O4  1  0.751847  0.883988  0.230196  1
  O  O5  1  0.748341  0.746708  0.274635  1
  O  O6  1  0.751847  0.116169  0.180217  1
  O  O7  1  0.002370  0.898876  0.236434  1
  O  O8  1  0.497821  0.764440  0.275181  1
  O  O9  1  0.002370  0.101281  0.173979  1
  O  O10  1  0.643139  0.050676  0.256469  1
  O  O11  1  0.857064  0.717313  0.237103  1
  O  O12  1  0.643139  0.949480  0.153944  1
  O  O13  1  0.857063  0.282844  0.173310  1
  O  O14  1  0.612944  0.761840  0.116547  1
  O  O15  1  0.887257  0.275127  0.207744  1
  O  O16  1  0.612944  0.238317  0.293866  1
  O  O17  1  0.887257  0.725030  0.202670  1
  O  O18  1  0.606272  0.594991  0.254471  1
  O  O19  1  0.893922  0.162546  0.218134  1
  O  O20  1  0.606272  0.405166  0.155943  1
  O  O21  1  0.893922  0.837611  0.192279  1
  O  O22  1  0.746899  0.846013  0.161704  1
  O  O23  1  0.753341  0.426880  0.220688  1
  O  O24  1  0.746898  0.154143  0.248710  1
  O  O25  1  0.753341  0.573277  0.189726  1
  O  O26  1  0.996782  0.864898  0.163131  1
  O  O27  1  0.503459  0.415433  0.214880  1
  O  O28  1  0.996782  0.135258  0.247282  1
  O  O29  1  0.503459  0.584724  0.195533  1
  O  O30  1  0.859389  0.000000  0.205207  1
  O  O31  1  0.640830  0.500078  0.205207  1
  O  O32  1  0.164970  0.977772  0.277763  1
  O  O33  1  0.335204  0.901458  0.286305  1
  O  O34  1  0.164970  0.022385  0.132650  1
  O  O35  1  0.251847  0.883988  0.230196  1
  O  O36  1  0.248341  0.746708  0.274635  1
  O  O37  1  0.251847  0.116169  0.180217  1
  O  O38  1  0.502370  0.898876  0.236434  1
  O  O39  1  0.997821  0.764440  0.275181  1
  O  O40  1  0.502370  0.101281  0.173979  1
  O  O41  1  0.143139  0.050676  0.256469  1
  O  O42  1  0.357064  0.717312  0.237103  1
  O  O43  1  0.143139  0.949480  0.153944  1
  O  O44  1  0.357064  0.282844  0.173310  1
  O  O45  1  0.112944  0.761840  0.116547  1
  O  O46  1  0.387257  0.275127  0.207744  1
  O  O47  1  0.112944  0.238317  0.293866  1
  O  O48  1  0.387257  0.725030  0.202670  1
  O  O49  1  0.106272  0.594991  0.254470  1
  O  O50  1  0.393922  0.162546  0.218134  1
  O  O51  1  0.106272  0.405166  0.155943  1
  O  O52  1  0.393922  0.837611  0.192279  1
  O  O53  1  0.246898  0.846013  0.161704  1
  O  O54  1  0.253341  0.426880  0.220688  1
  O  O55  1  0.246898  0.154143  0.248709  1
  O  O56  1  0.253341  0.573277  0.189726  1
  O  O57  1  0.496782  0.864898  0.163131  1
  O  O58  1  0.003459  0.415433  0.214880  1
  O  O59  1  0.496782  0.135258  0.247282  1
  O  O60  1  0.003459  0.584724  0.195533  1
  O  O61  1  0.359389  0.000000  0.205207  1
  O  O62  1  0.140830  0.500079  0.205207  1
  O  O63  1  0.664970  0.977772  0.469172  1
  O  O64  1  0.835204  0.901458  0.477714  1
  O  O65  1  0.664970  0.022385  0.324058  1
  O  O66  1  0.835204  0.098699  0.315516  1
  O  O67  1  0.751847  0.883988  0.421605  1
  O  O68  1  0.748341  0.746708  0.466044  1
  O  O69  1  0.751847  0.116169  0.371626  1
  O  O70  1  0.748341  0.253448  0.327186  1
  O  O71  1  0.002370  0.898876  0.427842  1
  O  O72  1  0.497821  0.764440  0.466589  1
  O  O73  1  0.002370  0.101281  0.365388  1
  O  O74  1  0.497821  0.235717  0.326641  1
  O  O75  1  0.643139  0.050676  0.447878  1
  O  O76  1  0.857064  0.717313  0.428512  1
  O  O77  1  0.643139  0.949480  0.345352  1
  O  O78  1  0.857063  0.282844  0.364719  1
  O  O79  1  0.612944  0.761840  0.307956  1
  O  O80  1  0.887257  0.275127  0.399152  1
  O  O81  1  0.612944  0.238317  0.485275  1
  O  O82  1  0.887257  0.725030  0.394078  1
  O  O83  1  0.606272  0.594991  0.445879  1
  O  O84  1  0.893922  0.162546  0.409543  1
  O  O85  1  0.606272  0.405166  0.347352  1
  O  O86  1  0.893922  0.837611  0.383688  1
  O  O87  1  0.746899  0.846013  0.353112  1
  O  O88  1  0.753341  0.426880  0.412097  1
  O  O89  1  0.746898  0.154143  0.440118  1
  O  O90  1  0.753341  0.573277  0.381134  1
  O  O91  1  0.996782  0.864898  0.354539  1
  O  O92  1  0.503459  0.415433  0.406289  1
  O  O93  1  0.996782  0.135258  0.438691  1
  O  O94  1  0.503459  0.584724  0.386941  1
  O  O95  1  0.859389  0.000000  0.396615  1
  O  O96  1  0.640830  0.500078  0.396615  1
  O  O97  1  0.164970  0.977772  0.469172  1
  O  O98  1  0.335204  0.901458  0.477714  1
  O  O99  1  0.164970  0.022385  0.324058  1
  O  O100  1  0.335204  0.098699  0.315516  1
  O  O101  1  0.251847  0.883988  0.421605  1
  O  O102  1  0.248341  0.746708  0.466044  1
  O  O103  1  0.251847  0.116169  0.371626  1
  O  O104  1  0.248341  0.253448  0.327186  1
  O  O105  1  0.502370  0.898876  0.427842  1
  O  O106  1  0.997821  0.764440  0.466589  1
  O  O107  1  0.502370  0.101281  0.365388  1
  O  O108  1  0.997821  0.235717  0.326641  1
  O  O109  1  0.143139  0.050676  0.447878  1
  O  O110  1  0.357064  0.717312  0.428512  1
  O  O111  1  0.143139  0.949480  0.345352  1
  O  O112  1  0.357064  0.282844  0.364719  1
  O  O113  1  0.112944  0.761840  0.307956  1
  O  O114  1  0.387257  0.275127  0.399152  1
  O  O115  1  0.112944  0.238317  0.485275  1
  O  O116  1  0.387257  0.725030  0.394078  1
  O  O117  1  0.106272  0.594991  0.445879  1
  O  O118  1  0.393922  0.162546  0.409543  1
  O  O119  1  0.106272  0.405166  0.347352  1
  O  O120  1  0.393922  0.837611  0.383688  1
  O  O121  1  0.246898  0.846013  0.353112  1
  O  O122  1  0.253341  0.426880  0.412097  1
  O  O123  1  0.246898  0.154143  0.440118  1
  O  O124  1  0.253341  0.573277  0.381134  1
  O  O125  1  0.496782  0.864898  0.354539  1
  O  O126  1  0.003459  0.415433  0.406289  1
  O  O127  1  0.496782  0.135258  0.438691  1
  O  O128  1  0.003459  0.584724  0.386941  1
  O  O129  1  0.359389  0.000000  0.396615  1
  O  O130  1  0.140830  0.500079  0.396615  1
  O  O131  1  0.664970  0.977772  0.660580  1
  O  O132  1  0.664970  0.022385  0.515467  1
  O  O133  1  0.835204  0.098699  0.506925  1
  O  O134  1  0.751847  0.883988  0.613013  1
  O  O135  1  0.751847  0.116169  0.563034  1
  O  O136  1  0.748341  0.253448  0.518595  1
  O  O137  1  0.002370  0.898876  0.619251  1
  O  O138  1  0.002370  0.101281  0.556796  1
  O  O139  1  0.497821  0.235717  0.518050  1
  O  O140  1  0.643139  0.050676  0.639286  1
  O  O141  1  0.857064  0.717313  0.619920  1
  O  O142  1  0.643139  0.949480  0.536761  1
  O  O143  1  0.857063  0.282844  0.556127  1
  O  O144  1  0.612944  0.761840  0.499364  1
  O  O145  1  0.887257  0.275127  0.590561  1
  O  O146  1  0.612944  0.238317  0.676683  1
  O  O147  1  0.887257  0.725030  0.585487  1
  O  O148  1  0.606272  0.594991  0.637287  1
  O  O149  1  0.893922  0.162546  0.600951  1
  O  O150  1  0.606272  0.405166  0.538760  1
  O  O151  1  0.893922  0.837611  0.575096  1
  O  O152  1  0.746899  0.846013  0.544521  1
  O  O153  1  0.753341  0.426880  0.603505  1
  O  O154  1  0.746898  0.154143  0.631526  1
  O  O155  1  0.753341  0.573277  0.572542  1
  O  O156  1  0.996782  0.864898  0.545948  1
  O  O157  1  0.503459  0.415433  0.597697  1
  O  O158  1  0.996782  0.135258  0.630099  1
  O  O159  1  0.503459  0.584724  0.578350  1
  O  O160  1  0.859389  0.000000  0.588024  1
  O  O161  1  0.640830  0.500078  0.588024  1
  O  O162  1  0.164970  0.977772  0.660580  1
  O  O163  1  0.164970  0.022385  0.515467  1
  O  O164  1  0.335204  0.098699  0.506925  1
  O  O165  1  0.251847  0.883988  0.613013  1
  O  O166  1  0.251847  0.116169  0.563034  1
  O  O167  1  0.248341  0.253448  0.518595  1
  O  O168  1  0.502370  0.898876  0.619251  1
  O  O169  1  0.502370  0.101281  0.556796  1
  O  O170  1  0.997821  0.235717  0.518050  1
  O  O171  1  0.143139  0.050676  0.639286  1
  O  O172  1  0.357064  0.717312  0.619920  1
  O  O173  1  0.143139  0.949480  0.536761  1
  O  O174  1  0.357064  0.282844  0.556127  1
  O  O175  1  0.112944  0.761840  0.499364  1
  O  O176  1  0.387257  0.275127  0.590561  1
  O  O177  1  0.112944  0.238317  0.676683  1
  O  O178  1  0.387257  0.725030  0.585487  1
  O  O179  1  0.106272  0.594991  0.637287  1
  O  O180  1  0.393922  0.162546  0.600951  1
  O  O181  1  0.106272  0.405166  0.538760  1
  O  O182  1  0.393922  0.837611  0.575096  1
  O  O183  1  0.246898  0.846013  0.544521  1
  O  O184  1  0.253341  0.426880  0.603505  1
  O  O185  1  0.246898  0.154143  0.631526  1
  O  O186  1  0.253341  0.573277  0.572542  1
  O  O187  1  0.496782  0.864898  0.545948  1
  O  O188  1  0.003459  0.415433  0.597697  1
  O  O189  1  0.496782  0.135258  0.630099  1
  O  O190  1  0.003459  0.584724  0.578350  1
  O  O191  1  0.359389  0.000000  0.588024  1
  O  O192  1  0.140830  0.500079  0.588024  1
  Si  Si193  1  0.637536  0.953305  0.250854  1
  Si  Si194  1  0.862636  0.785398  0.268773  1
  Si  Si195  1  0.637536  0.046851  0.159560  1
  Si  Si196  1  0.613469  0.714898  0.277744  1
  Si  Si197  1  0.886708  0.164259  0.195498  1
  Si  Si198  1  0.886708  0.835898  0.214916  1
  Si  Si199  1  0.625786  0.853638  0.148867  1
  Si  Si200  1  0.874433  0.352216  0.204930  1
  Si  Si201  1  0.625786  0.146519  0.261546  1
  Si  Si202  1  0.874434  0.647941  0.205484  1
  Si  Si203  1  0.874266  0.882870  0.179847  1
  Si  Si204  1  0.625952  0.484804  0.224730  1
  Si  Si205  1  0.874266  0.117286  0.230566  1
  Si  Si206  1  0.625952  0.515352  0.185683  1
  Si  Si207  1  0.137536  0.953306  0.250854  1
  Si  Si208  1  0.362636  0.785398  0.268773  1
  Si  Si209  1  0.137536  0.046851  0.159560  1
  Si  Si210  1  0.113468  0.714898  0.277744  1
  Si  Si211  1  0.386708  0.164259  0.195498  1
  Si  Si212  1  0.386708  0.835898  0.214916  1
  Si  Si213  1  0.125786  0.853638  0.148867  1
  Si  Si214  1  0.374433  0.352216  0.204930  1
  Si  Si215  1  0.125786  0.146519  0.261547  1
  Si  Si216  1  0.374434  0.647941  0.205484  1
  Si  Si217  1  0.374266  0.882870  0.179847  1
  Si  Si218  1  0.125952  0.484804  0.224730  1
  Si  Si219  1  0.374266  0.117286  0.230566  1
  Si  Si220  1  0.125952  0.515352  0.185683  1
  Si  Si221  1  0.637536  0.953305  0.442262  1
  Si  Si222  1  0.862636  0.785398  0.460181  1
  Si  Si223  1  0.637536  0.046851  0.350968  1
  Si  Si224  1  0.862636  0.214758  0.333049  1
  Si  Si225  1  0.613469  0.714898  0.469152  1
  Si  Si226  1  0.886708  0.164259  0.386906  1
  Si  Si227  1  0.613469  0.285258  0.324078  1
  Si  Si228  1  0.886708  0.835898  0.406324  1
  Si  Si229  1  0.625786  0.853638  0.340276  1
  Si  Si230  1  0.874433  0.352216  0.396338  1
  Si  Si231  1  0.625786  0.146519  0.452955  1
  Si  Si232  1  0.874434  0.647941  0.396892  1
  Si  Si233  1  0.874266  0.882870  0.371256  1
  Si  Si234  1  0.625952  0.484804  0.416139  1
  Si  Si235  1  0.874266  0.117286  0.421975  1
  Si  Si236  1  0.625952  0.515352  0.377092  1
  Si  Si237  1  0.750145  -0.000000  0.300911  1
  Si  Si238  1  0.137536  0.953306  0.442262  1
  Si  Si239  1  0.362636  0.785398  0.460181  1
  Si  Si240  1  0.137536  0.046851  0.350968  1
  Si  Si241  1  0.362636  0.214759  0.333049  1
  Si  Si242  1  0.113468  0.714898  0.469152  1
  Si  Si243  1  0.386708  0.164259  0.386906  1
  Si  Si244  1  0.113469  0.285258  0.324078  1
  Si  Si245  1  0.386708  0.835898  0.406324  1
  Si  Si246  1  0.125786  0.853638  0.340276  1
  Si  Si247  1  0.374433  0.352216  0.396338  1
  Si  Si248  1  0.125786  0.146519  0.452955  1
  Si  Si249  1  0.374434  0.647941  0.396892  1
  Si  Si250  1  0.374266  0.882870  0.371256  1
  Si  Si251  1  0.125952  0.484804  0.416139  1
  Si  Si252  1  0.374266  0.117286  0.421975  1
  Si  Si253  1  0.125952  0.515352  0.377092  1
  Si  Si254  1  0.250145  -0.000000  0.300911  1
  Si  Si255  1  0.637536  0.953305  0.633670  1
  Si  Si256  1  0.637536  0.046851  0.542377  1
  Si  Si257  1  0.862636  0.214758  0.524458  1
  Si  Si258  1  0.886708  0.164259  0.578315  1
  Si  Si259  1  0.613469  0.285258  0.515486  1
  Si  Si260  1  0.886708  0.835898  0.597733  1
  Si  Si261  1  0.625786  0.853638  0.531684  1
  Si  Si262  1  0.874433  0.352216  0.587747  1
  Si  Si263  1  0.625786  0.146519  0.644363  1
  Si  Si264  1  0.874434  0.647941  0.588300  1
  Si  Si265  1  0.874266  0.882870  0.562664  1
  Si  Si266  1  0.625952  0.484804  0.607547  1
  Si  Si267  1  0.874266  0.117286  0.613383  1
  Si  Si268  1  0.625952  0.515352  0.568500  1
  Si  Si269  1  0.750145  0.000000  0.492319  1
  Si  Si270  1  0.137536  0.953306  0.633671  1
  Si  Si271  1  0.137536  0.046851  0.542377  1
  Si  Si272  1  0.362636  0.214759  0.524458  1
  Si  Si273  1  0.386708  0.164259  0.578315  1
  Si  Si274  1  0.113469  0.285258  0.515486  1
  Si  Si275  1  0.386708  0.835898  0.597733  1
  Si  Si276  1  0.125786  0.853638  0.531684  1
  Si  Si277  1  0.374433  0.352216  0.587747  1
  Si  Si278  1  0.125786  0.146519  0.644363  1
  Si  Si279  1  0.374434  0.647941  0.588300  1
  Si  Si280  1  0.374266  0.882870  0.562664  1
  Si  Si281  1  0.125952  0.484804  0.607547  1
  Si  Si282  1  0.374266  0.117286  0.613383  1
  Si  Si283  1  0.125952  0.515352  0.568500  1
  Si  Si284  1  0.250145  0.000000  0.492319  1
  H  H285  1  0.664970  0.022385  0.119488  1
  H  H286  1  0.857063  0.282844  0.160148  1
  H  H287  1  0.612944  0.761840  0.103385  1
  H  H288  1  0.606272  0.405166  0.142781  1
  H  H289  1  0.164970  0.022385  0.119488  1
  H  H290  1  0.357064  0.282844  0.160148  1
  H  H291  1  0.112944  0.761840  0.103385  1
  H  H292  1  0.106272  0.405166  0.142781  1
  H  H293  1  0.664970  0.977772  0.673743  1
  H  H294  1  0.857064  0.717313  0.633082  1
  H  H295  1  0.612944  0.238317  0.689846  1
  H  H296  1  0.606272  0.594991  0.650450  1
  H  H297  1  0.164970  0.977772  0.673743  1
  H  H298  1  0.357064  0.717312  0.633082  1
  H  H299  1  0.112944  0.238317  0.689846  1
  H  H300  1  0.106272  0.594991  0.650450  1
