# generated using pymatgen
data_Si71(HO36)4
_symmetry_space_group_name_H-M   'P 1'
_cell_length_a   7.16200173
_cell_length_b   7.16174636
_cell_length_c   103.11894449
_cell_angle_alpha   90.00000000
_cell_angle_beta   90.00000000
_cell_angle_gamma   90.00000000
_symmetry_Int_Tables_number   1
_chemical_formula_structural   Si71(HO36)4
_chemical_formula_sum   'Si71 H4 O144'
_cell_volume   5289.22225477
_cell_formula_units_Z   1
loop_
 _symmetry_equiv_pos_site_id
 _symmetry_equiv_pos_as_xyz
  1  'x, y, z'
loop_
 _atom_site_type_symbol
 _atom_site_label
 _atom_site_symmetry_multiplicity
 _atom_site_fract_x
 _atom_site_fract_y
 _atom_site_fract_z
 _atom_site_occupancy
  O  O1  1  0.326506  0.997833  0.138626  1
  O  O2  1  0.829852  0.499302  0.340422  1
  O  O3  1  0.172877  0.502937  0.340351  1
  O  O4  1  0.669400  0.997966  0.137978  1
  O  O5  1  0.001597  0.831682  0.239011  1
  O  O6  1  0.503359  0.324988  0.441690  1
  O  O7  1  0.503665  0.667967  0.441142  1
  O  O8  1  0.003392  0.174634  0.239616  1
  O  O9  1  0.172775  0.996334  0.259597  1
  O  O10  1  0.669472  0.500711  0.057846  1
  O  O11  1  0.326566  0.500824  0.057215  1
  O  O12  1  0.829774  0.000000  0.259506  1
  O  O13  1  0.503965  0.831690  0.158839  1
  O  O14  1  0.003102  0.325098  0.360351  1
  O  O15  1  0.001323  0.668072  0.360899  1
  O  O16  1  0.503612  0.174641  0.158231  1
  O  O17  1  0.166960  0.817654  0.119143  1
  O  O18  1  0.677167  0.320875  0.320479  1
  O  O19  1  0.324078  0.680984  0.320404  1
  O  O20  1  0.814548  0.177846  0.117928  1
  O  O21  1  0.182506  0.686142  0.219010  1
  O  O22  1  0.683146  0.166594  0.422155  1
  O  O23  1  0.322945  0.814090  0.421163  1
  O  O24  1  0.822565  0.333684  0.220133  1
  O  O25  1  0.323810  0.819178  0.279586  1
  O  O26  1  0.814815  0.319900  0.077860  1
  O  O27  1  0.167236  0.680112  0.076734  1
  O  O28  1  0.676819  0.179426  0.279385  1
  O  O29  1  0.323718  0.686205  0.178847  1
  O  O30  1  0.821810  0.166695  0.379839  1
  O  O31  1  0.181776  0.814211  0.380901  1
  O  O32  1  0.683875  0.333723  0.177730  1
  O  O33  1  0.814735  0.679531  0.077894  1
  O  O34  1  0.324244  0.179498  0.279200  1
  O  O35  1  0.676454  0.819050  0.279119  1
  O  O36  1  0.167217  0.319360  0.076700  1
  O  O37  1  0.822119  0.814200  0.380918  1
  O  O38  1  0.323141  0.333682  0.177751  1
  O  O39  1  0.683333  0.686142  0.178882  1
  O  O40  1  0.182575  0.166712  0.379920  1
  O  O41  1  0.676754  0.681101  0.320847  1
  O  O42  1  0.166998  0.178399  0.119114  1
  O  O43  1  0.814508  0.818212  0.117959  1
  O  O44  1  0.324456  0.320785  0.320687  1
  O  O45  1  0.682580  0.814113  0.421096  1
  O  O46  1  0.183311  0.333697  0.220085  1
  O  O47  1  0.822891  0.686164  0.218958  1
  O  O48  1  0.322362  0.166590  0.422173  1
  O  O49  1  0.489710  0.997954  0.117714  1
  O  O50  1  0.000000  0.500997  0.319790  1
  O  O51  1  0.002817  0.010880  0.218725  1
  O  O52  1  0.502807  0.489533  0.420826  1
  O  O53  1  0.000000  0.000000  0.280147  1
  O  O54  1  0.490000  0.499722  0.078119  1
  O  O55  1  0.503605  0.010900  0.179123  1
  O  O56  1  0.002026  0.489629  0.381216  1
  O  O57  1  0.991848  0.000000  0.080229  1
  O  O58  1  0.500497  0.499386  0.282303  1
  O  O59  1  0.003420  0.509124  0.181238  1
  O  O60  1  0.502053  0.991162  0.383331  1
  O  O61  1  0.500765  0.000000  0.317705  1
  O  O62  1  0.991644  0.498137  0.115606  1
  O  O63  1  0.502841  0.509110  0.216612  1
  O  O64  1  0.002677  0.991054  0.418708  1
  O  O65  1  0.006608  0.249063  0.097904  1
  O  O66  1  0.507956  0.750072  0.299992  1
  O  O67  1  0.495889  0.248778  0.299946  1
  O  O68  1  0.006377  0.749057  0.097931  1
  O  O69  1  0.753150  0.494421  0.198930  1
  O  O70  1  0.252609  0.003856  0.401041  1
  O  O71  1  0.752596  0.004843  0.401001  1
  O  O72  1  0.253191  0.495346  0.198920  1
  O  O73  1  0.326506  0.997833  0.542746  1
  O  O74  1  0.829852  0.499302  0.744542  1
  O  O75  1  0.172877  0.502937  0.744471  1
  O  O76  1  0.669400  0.997966  0.542097  1
  O  O77  1  0.001597  0.831682  0.643131  1
  O  O78  1  0.503359  0.324988  0.845809  1
  O  O79  1  0.503665  0.667967  0.845262  1
  O  O80  1  0.003392  0.174634  0.643736  1
  O  O81  1  0.172775  0.996334  0.663716  1
  O  O82  1  0.669472  0.500711  0.461966  1
  O  O83  1  0.326566  0.500824  0.461335  1
  O  O84  1  0.829774  0.000000  0.663625  1
  O  O85  1  0.503965  0.831690  0.562959  1
  O  O86  1  0.003102  0.325098  0.764471  1
  O  O87  1  0.001323  0.668072  0.765019  1
  O  O88  1  0.503612  0.174641  0.562350  1
  O  O89  1  0.166960  0.817654  0.523263  1
  O  O90  1  0.677167  0.320875  0.724598  1
  O  O91  1  0.324078  0.680984  0.724524  1
  O  O92  1  0.814548  0.177846  0.522048  1
  O  O93  1  0.182506  0.686142  0.623129  1
  O  O94  1  0.683146  0.166594  0.826274  1
  O  O95  1  0.322945  0.814090  0.825283  1
  O  O96  1  0.822565  0.333684  0.624252  1
  O  O97  1  0.323810  0.819178  0.683706  1
  O  O98  1  0.814815  0.319900  0.481980  1
  O  O99  1  0.167236  0.680112  0.480854  1
  O  O100  1  0.676819  0.179426  0.683504  1
  O  O101  1  0.323718  0.686205  0.582967  1
  O  O102  1  0.821810  0.166695  0.783959  1
  O  O103  1  0.181776  0.814211  0.785020  1
  O  O104  1  0.683875  0.333723  0.581849  1
  O  O105  1  0.814735  0.679531  0.482013  1
  O  O106  1  0.324244  0.179498  0.683319  1
  O  O107  1  0.676454  0.819050  0.683239  1
  O  O108  1  0.167217  0.319360  0.480819  1
  O  O109  1  0.822119  0.814200  0.785038  1
  O  O110  1  0.323141  0.333682  0.581870  1
  O  O111  1  0.683333  0.686142  0.583002  1
  O  O112  1  0.182575  0.166712  0.784039  1
  O  O113  1  0.676754  0.681101  0.724966  1
  O  O114  1  0.166998  0.178399  0.523234  1
  O  O115  1  0.814508  0.818212  0.522079  1
  O  O116  1  0.324456  0.320785  0.724806  1
  O  O117  1  0.682580  0.814113  0.825215  1
  O  O118  1  0.183311  0.333697  0.624204  1
  O  O119  1  0.822891  0.686164  0.623077  1
  O  O120  1  0.322362  0.166590  0.826293  1
  O  O121  1  0.489710  0.997954  0.521833  1
  O  O122  1  0.000000  0.500997  0.723910  1
  O  O123  1  0.002817  0.010880  0.622845  1
  O  O124  1  0.502807  0.489533  0.824945  1
  O  O125  1  0.000000  0.000000  0.684266  1
  O  O126  1  0.490000  0.499722  0.482239  1
  O  O127  1  0.503605  0.010900  0.583243  1
  O  O128  1  0.002026  0.489629  0.785335  1
  O  O129  1  0.991848  -0.000000  0.484348  1
  O  O130  1  0.500497  0.499386  0.686423  1
  O  O131  1  0.003420  0.509124  0.585358  1
  O  O132  1  0.502053  0.991162  0.787450  1
  O  O133  1  0.500765  -0.000000  0.721825  1
  O  O134  1  0.991644  0.498137  0.519725  1
  O  O135  1  0.502841  0.509110  0.620732  1
  O  O136  1  0.002677  0.991054  0.822828  1
  O  O137  1  0.006608  0.249063  0.502023  1
  O  O138  1  0.507956  0.750072  0.704111  1
  O  O139  1  0.495889  0.248778  0.704065  1
  O  O140  1  0.006377  0.749057  0.502050  1
  O  O141  1  0.753150  0.494421  0.603049  1
  O  O142  1  0.252609  0.003856  0.805160  1
  O  O143  1  0.752596  0.004843  0.805121  1
  O  O144  1  0.253191  0.495346  0.603039  1
  Si  Si145  1  0.279257  0.998046  0.123322  1
  Si  Si146  1  0.788200  0.500209  0.325030  1
  Si  Si147  1  0.213190  0.501529  0.324940  1
  Si  Si148  1  0.704136  0.998088  0.122491  1
  Si  Si149  1  0.002533  0.796579  0.223528  1
  Si  Si150  1  0.502829  0.278744  0.426371  1
  Si  Si151  1  0.502979  0.703656  0.425667  1
  Si  Si152  1  0.003063  0.221456  0.224308  1
  Si  Si153  1  0.212922  0.998431  0.275008  1
  Si  Si154  1  0.704361  0.499823  0.073331  1
  Si  Si155  1  0.279501  0.499869  0.072521  1
  Si  Si156  1  0.787930  0.000000  0.274895  1
  Si  Si157  1  0.503668  0.796593  0.174321  1
  Si  Si158  1  0.002410  0.278839  0.375670  1
  Si  Si159  1  0.001879  0.703760  0.376374  1
  Si  Si160  1  0.503495  0.221487  0.173540  1
  Si  Si161  1  0.994710  0.215812  0.082962  1
  Si  Si162  1  0.501585  0.715561  0.285051  1
  Si  Si163  1  0.500007  0.283124  0.285004  1
  Si  Si164  1  0.994658  0.783425  0.082998  1
  Si  Si165  1  0.787262  0.506263  0.183995  1
  Si  Si166  1  0.285920  0.993483  0.386095  1
  Si  Si167  1  0.718278  0.993908  0.386067  1
  Si  Si168  1  0.219620  0.506488  0.183976  1
  Si  Si169  1  0.500219  0.216919  0.314913  1
  Si  Si170  1  0.994496  0.714357  0.112860  1
  Si  Si171  1  0.994540  0.281965  0.112849  1
  Si  Si172  1  0.501789  0.784656  0.314933  1
  Si  Si173  1  0.719023  0.506140  0.213864  1
  Si  Si174  1  0.218898  0.993497  0.415981  1
  Si  Si175  1  0.786548  0.993695  0.415939  1
  Si  Si176  1  0.286659  0.506560  0.213860  1
  Si  Si177  1  0.501937  0.000000  0.148419  1
  Si  Si178  1  0.001827  0.499913  0.350508  1
  Si  Si179  1  0.001875  0.000000  0.249430  1
  Si  Si180  1  0.279257  0.998046  0.527442  1
  Si  Si181  1  0.788200  0.500209  0.729150  1
  Si  Si182  1  0.213190  0.501529  0.729059  1
  Si  Si183  1  0.704136  0.998088  0.526610  1
  Si  Si184  1  0.002533  0.796579  0.627648  1
  Si  Si185  1  0.502829  0.278744  0.830491  1
  Si  Si186  1  0.502979  0.703656  0.829787  1
  Si  Si187  1  0.003063  0.221456  0.628428  1
  Si  Si188  1  0.212922  0.998431  0.679128  1
  Si  Si189  1  0.704361  0.499823  0.477450  1
  Si  Si190  1  0.279501  0.499869  0.476641  1
  Si  Si191  1  0.787930  0.000000  0.679014  1
  Si  Si192  1  0.503668  0.796593  0.578441  1
  Si  Si193  1  0.002410  0.278839  0.779790  1
  Si  Si194  1  0.001879  0.703760  0.780493  1
  Si  Si195  1  0.503495  0.221487  0.577660  1
  Si  Si196  1  0.994710  0.215812  0.487081  1
  Si  Si197  1  0.501585  0.715561  0.689171  1
  Si  Si198  1  0.500007  0.283124  0.689123  1
  Si  Si199  1  0.994658  0.783425  0.487117  1
  Si  Si200  1  0.787262  0.506263  0.588115  1
  Si  Si201  1  0.285920  0.993483  0.790214  1
  Si  Si202  1  0.718278  0.993908  0.790186  1
  Si  Si203  1  0.219620  0.506488  0.588096  1
  Si  Si204  1  0.500219  0.216919  0.719033  1
  Si  Si205  1  0.994496  0.714357  0.516980  1
  Si  Si206  1  0.994540  0.281965  0.516969  1
  Si  Si207  1  0.501789  0.784656  0.719052  1
  Si  Si208  1  0.719023  0.506140  0.617984  1
  Si  Si209  1  0.218898  0.993497  0.820100  1
  Si  Si210  1  0.786548  0.993695  0.820059  1
  Si  Si211  1  0.286659  0.506560  0.617979  1
  Si  Si212  1  0.501937  0.000000  0.552539  1
  Si  Si213  1  0.001827  0.499913  0.754628  1
  Si  Si214  1  0.001875  0.000000  0.653549  1
  Si  Si215  1  0.501885  0.499800  0.451533  1
  H  H216  1  0.669472  0.500711  0.049119  1
  H  H217  1  0.326566  0.500824  0.048488  1
  H  H218  1  0.503359  0.324988  0.854537  1
  H  H219  1  0.503665  0.667967  0.853989  1
