# generated using pymatgen
data_Si34H18O77
_symmetry_space_group_name_H-M   'P 1'
_cell_length_a   14.20306309
_cell_length_b   35.25439057
_cell_length_c   46.13639334
_cell_angle_alpha   90.00000000
_cell_angle_beta   45.05152913
_cell_angle_gamma   78.35781339
_symmetry_Int_Tables_number   1
_chemical_formula_structural   Si34H18O77
_chemical_formula_sum   'Si68 H36 O154'
_cell_volume   15671.1573528
_cell_formula_units_Z   2
loop_
 _symmetry_equiv_pos_site_id
 _symmetry_equiv_pos_as_xyz
  1  'x, y, z'
loop_
 _atom_site_type_symbol
 _atom_site_label
 _atom_site_symmetry_multiplicity
 _atom_site_fract_x
 _atom_site_fract_y
 _atom_site_fract_z
 _atom_site_occupancy
  O  O1  1  0.306884  0.261658  0.222303  1
  O  O2  1  0.489287  0.261530  0.221906  1
  O  O3  1  0.010796  0.238412  0.217377  1
  O  O4  1  0.830787  0.238450  0.217298  1
  O  O5  1  0.770652  0.421141  0.175979  1
  O  O6  1  0.078903  0.421005  0.175987  1
  O  O7  1  0.382285  0.462918  0.185455  1
  O  O8  1  0.853896  0.481529  0.230772  1
  O  O9  1  0.683543  0.481574  0.230757  1
  O  O10  1  0.830088  0.420022  0.217385  1
  O  O11  1  0.112990  0.578833  0.210286  1
  O  O12  1  0.420982  0.579000  0.210332  1
  O  O13  1  0.808195  0.537038  0.201571  1
  O  O14  1  0.251685  0.751599  0.179316  1
  O  O15  1  0.194650  0.696799  0.216104  1
  O  O16  1  0.849964  0.900067  0.213025  1
  O  O17  1  0.348831  0.901186  0.213262  1
  O  O18  1  0.920619  0.078934  0.293569  1
  O  O19  1  0.421610  0.078908  0.427745  1
  O  O20  1  0.728896  0.078968  0.293685  1
  O  O21  1  0.613305  0.079002  0.427611  1
  O  O22  1  0.910462  0.133390  0.332220  1
  O  O23  1  0.322863  0.133322  0.412767  1
  O  O24  1  0.507593  0.133824  0.332628  1
  O  O25  1  0.724787  0.133894  0.412571  1
  O  O26  1  0.034010  0.063530  0.318132  1
  O  O27  1  0.339069  0.063464  0.396479  1
  O  O28  1  0.516280  0.064614  0.318272  1
  O  O29  1  0.854578  0.064687  0.396817  1
  O  O30  1  0.151204  0.098814  0.256243  1
  O  O31  1  0.650085  0.099927  0.256476  1
  O  O32  1  0.307160  0.037134  0.351792  1
  O  O33  1  0.118642  0.037113  0.351331  1
  O  O34  1  0.996489  0.000000  0.345019  1
  O  O35  1  0.816435  0.018470  0.310445  1
  O  O36  1  0.646763  0.018475  0.384555  1
  O  O37  1  0.670038  0.079999  0.360878  1
  O  O38  1  0.748163  0.248425  0.290195  1
  O  O39  1  0.254954  0.248461  0.287415  1
  O  O40  1  0.244993  0.251562  0.398327  1
  O  O41  1  0.751776  0.251642  0.398143  1
  O  O42  1  0.669657  0.261738  0.361073  1
  O  O43  1  0.306884  0.261658  0.439789  1
  O  O44  1  0.487679  0.261451  0.361373  1
  O  O45  1  0.489287  0.261530  0.439392  1
  O  O46  1  0.010796  0.238412  0.434863  1
  O  O47  1  0.012272  0.238526  0.355885  1
  O  O48  1  0.192357  0.238420  0.355945  1
  O  O49  1  0.830787  0.238450  0.434784  1
  O  O50  1  0.622697  0.316822  0.329815  1
  O  O51  1  0.243290  0.316847  0.277516  1
  O  O52  1  0.256353  0.183169  0.383508  1
  O  O53  1  0.877333  0.183247  0.383150  1
  O  O54  1  0.410881  0.196712  0.386744  1
  O  O55  1  0.695643  0.196793  0.385842  1
  O  O56  1  0.805410  0.303276  0.253477  1
  O  O57  1  0.088299  0.303324  0.347975  1
  O  O58  1  0.887552  0.420965  0.259224  1
  O  O59  1  0.770652  0.421141  0.393466  1
  O  O60  1  0.078903  0.421005  0.393473  1
  O  O61  1  0.579149  0.421176  0.259271  1
  O  O62  1  0.774054  0.366551  0.293270  1
  O  O63  1  0.991841  0.366319  0.335853  1
  O  O64  1  0.176373  0.366625  0.335747  1
  O  O65  1  0.590442  0.366292  0.292940  1
  O  O66  1  0.645864  0.436382  0.333017  1
  O  O67  1  0.982925  0.435658  0.325601  1
  O  O68  1  0.161109  0.436455  0.326379  1
  O  O69  1  0.464847  0.435552  0.333488  1
  O  O70  1  0.848204  0.400695  0.322167  1
  O  O71  1  0.349333  0.400689  0.321660  1
  O  O72  1  0.382285  0.462918  0.402941  1
  O  O73  1  0.192796  0.462849  0.267892  1
  O  O74  1  0.853896  0.481529  0.448258  1
  O  O75  1  0.683543  0.481574  0.448244  1
  O  O76  1  0.830088  0.420022  0.434872  1
  O  O77  1  0.112990  0.578833  0.427773  1
  O  O78  1  0.229645  0.578967  0.293588  1
  O  O79  1  0.921516  0.578853  0.293591  1
  O  O80  1  0.420982  0.579000  0.427819  1
  O  O81  1  0.223966  0.633770  0.394201  1
  O  O82  1  0.007668  0.633512  0.351146  1
  O  O83  1  0.823172  0.633823  0.351057  1
  O  O84  1  0.409342  0.633481  0.393876  1
  O  O85  1  0.354331  0.564569  0.353529  1
  O  O86  1  0.018221  0.563817  0.360853  1
  O  O87  1  0.835626  0.564637  0.361653  1
  O  O88  1  0.534079  0.563716  0.353977  1
  O  O89  1  0.149513  0.599437  0.365396  1
  O  O90  1  0.650628  0.599439  0.364892  1
  O  O91  1  0.618526  0.537110  0.284055  1
  O  O92  1  0.808195  0.537038  0.419057  1
  O  O93  1  0.496807  0.500073  0.343553  1
  O  O94  1  0.997564  0.500216  0.343261  1
  O  O95  1  0.146660  0.518426  0.238793  1
  O  O96  1  0.317093  0.518449  0.238775  1
  O  O97  1  0.170214  0.579959  0.252177  1
  O  O98  1  0.754830  0.748397  0.288820  1
  O  O99  1  0.248586  0.748472  0.288732  1
  O  O100  1  0.251685  0.751599  0.396803  1
  O  O101  1  0.745396  0.751636  0.399615  1
  O  O102  1  0.989041  0.761651  0.252212  1
  O  O103  1  0.987884  0.761730  0.331097  1
  O  O104  1  0.807704  0.761599  0.331121  1
  O  O105  1  0.169361  0.761652  0.252155  1
  O  O106  1  0.331372  0.738534  0.325653  1
  O  O107  1  0.691836  0.738491  0.247588  1
  O  O108  1  0.512397  0.738217  0.325899  1
  O  O109  1  0.511299  0.738332  0.247234  1
  O  O110  1  0.742851  0.816816  0.303830  1
  O  O111  1  0.123715  0.816884  0.303472  1
  O  O112  1  0.376551  0.683176  0.357250  1
  O  O113  1  0.756955  0.683218  0.409422  1
  O  O114  1  0.194650  0.696799  0.433591  1
  O  O115  1  0.912269  0.696823  0.339001  1
  O  O116  1  0.587085  0.803207  0.301166  1
  O  O117  1  0.306585  0.803289  0.300270  1
  O  O118  1  0.078853  0.921104  0.393299  1
  O  O119  1  0.579052  0.921070  0.259382  1
  O  O120  1  0.269989  0.921126  0.393430  1
  O  O121  1  0.387914  0.921159  0.259226  1
  O  O122  1  0.091640  0.866204  0.354361  1
  O  O123  1  0.676114  0.866133  0.274425  1
  O  O124  1  0.491872  0.866623  0.354781  1
  O  O125  1  0.274983  0.866691  0.274210  1
  O  O126  1  0.964857  0.935363  0.368711  1
  O  O127  1  0.664566  0.935295  0.290166  1
  O  O128  1  0.481056  0.936447  0.368849  1
  O  O129  1  0.146140  0.936511  0.290508  1
  O  O130  1  0.849964  0.900067  0.430511  1
  O  O131  1  0.348831  0.901186  0.430749  1
  O  O132  1  0.691774  0.962948  0.335658  1
  O  O133  1  0.882419  0.962926  0.335198  1
  O  O134  1  0.182929  0.981587  0.376542  1
  O  O135  1  0.354027  0.981587  0.302427  1
  O  O136  1  0.329979  0.920063  0.326105  1
  O  O137  1  0.503360  0.000000  0.341963  1
  O  O138  1  0.151204  0.098814  0.473729  1
  O  O139  1  0.650085  0.099927  0.473963  1
  O  O140  1  0.748163  0.248425  0.507681  1
  O  O141  1  0.805410  0.303276  0.470963  1
  O  O142  1  0.887552  0.420965  0.476710  1
  O  O143  1  0.579149  0.421176  0.476757  1
  O  O144  1  0.192796  0.462849  0.485379  1
  O  O145  1  0.229645  0.578967  0.511075  1
  O  O146  1  0.921516  0.578853  0.511077  1
  O  O147  1  0.618526  0.537110  0.501542  1
  O  O148  1  0.146660  0.518426  0.456280  1
  O  O149  1  0.317093  0.518449  0.456262  1
  O  O150  1  0.170214  0.579959  0.469663  1
  O  O151  1  0.989041  0.761651  0.469698  1
  O  O152  1  0.169361  0.761652  0.469641  1
  O  O153  1  0.691836  0.738491  0.465075  1
  O  O154  1  0.511299  0.738332  0.464720  1
  Si  Si155  1  0.922647  0.434906  0.220614  1
  Si  Si156  1  0.707789  0.434977  0.220649  1
  Si  Si157  1  0.263299  0.487077  0.231950  1
  Si  Si158  1  0.147462  0.744561  0.226199  1
  Si  Si159  1  0.237086  0.012947  0.346304  1
  Si  Si160  1  0.008579  0.093906  0.297927  1
  Si  Si161  1  0.303686  0.093851  0.429905  1
  Si  Si162  1  0.605970  0.094507  0.298111  1
  Si  Si163  1  0.705075  0.094563  0.429964  1
  Si  Si164  1  0.413659  0.041959  0.352390  1
  Si  Si165  1  0.002450  0.041995  0.352848  1
  Si  Si166  1  0.378379  0.159323  0.378451  1
  Si  Si167  1  0.802980  0.159401  0.377844  1
  Si  Si168  1  0.792013  0.065080  0.310931  1
  Si  Si169  1  0.577953  0.065085  0.404339  1
  Si  Si170  1  0.626738  0.272428  0.337854  1
  Si  Si171  1  0.328293  0.272445  0.250182  1
  Si  Si172  1  0.171496  0.227567  0.393073  1
  Si  Si173  1  0.873323  0.227644  0.392934  1
  Si  Si174  1  0.363022  0.244468  0.396931  1
  Si  Si175  1  0.647930  0.244552  0.396452  1
  Si  Si176  1  0.852464  0.255515  0.243335  1
  Si  Si177  1  0.136529  0.255564  0.337359  1
  Si  Si178  1  0.794295  0.405920  0.301780  1
  Si  Si179  1  0.893232  0.405767  0.344395  1
  Si  Si180  1  0.196462  0.405970  0.344358  1
  Si  Si181  1  0.491471  0.405729  0.301623  1
  Si  Si182  1  0.496555  0.458070  0.353921  1
  Si  Si183  1  0.086309  0.458105  0.314848  1
  Si  Si184  1  0.697474  0.340667  0.292171  1
  Si  Si185  1  0.120851  0.340707  0.325528  1
  Si  Si186  1  0.922647  0.434906  0.438100  1
  Si  Si187  1  0.707789  0.434977  0.438136  1
  Si  Si188  1  0.263299  0.487077  0.449437  1
  Si  Si189  1  0.204592  0.594317  0.385448  1
  Si  Si190  1  0.106284  0.594138  0.342678  1
  Si  Si191  1  0.802881  0.594389  0.342655  1
  Si  Si192  1  0.508322  0.594133  0.385294  1
  Si  Si193  1  0.502446  0.542034  0.333084  1
  Si  Si194  1  0.912562  0.542066  0.372216  1
  Si  Si195  1  0.301927  0.659374  0.394934  1
  Si  Si196  1  0.879172  0.659406  0.361390  1
  Si  Si197  1  0.077754  0.565024  0.248957  1
  Si  Si198  1  0.292591  0.565068  0.248907  1
  Si  Si199  1  0.737441  0.512911  0.237573  1
  Si  Si200  1  0.828359  0.772435  0.294030  1
  Si  Si201  1  0.127016  0.772502  0.293960  1
  Si  Si202  1  0.373356  0.727554  0.349157  1
  Si  Si203  1  0.671685  0.727599  0.436808  1
  Si  Si204  1  0.147462  0.744561  0.443685  1
  Si  Si205  1  0.863760  0.744584  0.349669  1
  Si  Si206  1  0.636061  0.755445  0.290536  1
  Si  Si207  1  0.353195  0.755529  0.290103  1
  Si  Si208  1  0.991791  0.905500  0.388908  1
  Si  Si209  1  0.697312  0.905441  0.256986  1
  Si  Si210  1  0.392995  0.906127  0.389043  1
  Si  Si211  1  0.294827  0.906182  0.257111  1
  Si  Si212  1  0.587428  0.958002  0.334169  1
  Si  Si213  1  0.996594  0.958035  0.334562  1
  Si  Si214  1  0.620168  0.840627  0.309160  1
  Si  Si215  1  0.198693  0.840702  0.308528  1
  Si  Si216  1  0.207288  0.934979  0.376052  1
  Si  Si217  1  0.422896  0.934979  0.282646  1
  Si  Si218  1  0.762941  0.987112  0.340682  1
  Si  Si219  1  0.852464  0.255515  0.460821  1
  Si  Si220  1  0.077754  0.565024  0.466444  1
  Si  Si221  1  0.292591  0.565068  0.466394  1
  Si  Si222  1  0.737441  0.512911  0.455060  1
  H  H223  1  0.306884  0.261658  0.202795  1
  H  H224  1  0.489287  0.261530  0.202398  1
  H  H225  1  0.010796  0.238412  0.197869  1
  H  H226  1  0.830787  0.238450  0.197790  1
  H  H227  1  0.770652  0.421141  0.156472  1
  H  H228  1  0.078903  0.421005  0.156479  1
  H  H229  1  0.382285  0.462918  0.165947  1
  H  H230  1  0.112990  0.578833  0.190779  1
  H  H231  1  0.420982  0.579000  0.190825  1
  H  H232  1  0.808195  0.537038  0.182063  1
  H  H233  1  0.251685  0.751599  0.159809  1
  H  H234  1  0.194650  0.696799  0.196597  1
  H  H235  1  0.849964  0.900067  0.193517  1
  H  H236  1  0.348831  0.901186  0.193755  1
  H  H237  1  0.151204  0.098814  0.236735  1
  H  H238  1  0.650085  0.099927  0.236969  1
  H  H239  1  0.306884  0.261658  0.459297  1
  H  H240  1  0.489287  0.261530  0.458900  1
  H  H241  1  0.691836  0.738491  0.228081  1
  H  H242  1  0.511299  0.738332  0.227727  1
  H  H243  1  0.849964  0.900067  0.450019  1
  H  H244  1  0.348831  0.901186  0.450256  1
  H  H245  1  0.151204  0.098814  0.493237  1
  H  H246  1  0.650085  0.099927  0.493470  1
  H  H247  1  0.748163  0.248425  0.527189  1
  H  H248  1  0.805410  0.303276  0.490471  1
  H  H249  1  0.887552  0.420965  0.496217  1
  H  H250  1  0.579149  0.421176  0.496265  1
  H  H251  1  0.192796  0.462849  0.504886  1
  H  H252  1  0.229645  0.578967  0.530582  1
  H  H253  1  0.921516  0.578853  0.530584  1
  H  H254  1  0.618526  0.537110  0.521049  1
  H  H255  1  0.989041  0.761651  0.489205  1
  H  H256  1  0.169361  0.761652  0.489149  1
  H  H257  1  0.691836  0.738491  0.484582  1
  H  H258  1  0.511299  0.738332  0.484228  1
