# generated using pymatgen
data_Si11(HO6)4
_symmetry_space_group_name_H-M   'P 1'
_cell_length_a   10.10746610
_cell_length_b   18.51418868
_cell_length_c   51.88999617
_cell_angle_alpha   134.98382664
_cell_angle_beta   90.00000000
_cell_angle_gamma   90.00000000
_symmetry_Int_Tables_number   1
_chemical_formula_structural   Si11(HO6)4
_chemical_formula_sum   'Si44 H16 O96'
_cell_volume   6868.12478005
_cell_formula_units_Z   4
loop_
 _symmetry_equiv_pos_site_id
 _symmetry_equiv_pos_as_xyz
  1  'x, y, z'
loop_
 _atom_site_type_symbol
 _atom_site_label
 _atom_site_symmetry_multiplicity
 _atom_site_fract_x
 _atom_site_fract_y
 _atom_site_fract_z
 _atom_site_occupancy
  O  O1  1  0.664970  0.977772  0.207155  1
  O  O2  1  0.835204  0.901458  0.218411  1
  O  O3  1  0.748341  0.746708  0.203033  1
  O  O4  1  0.497821  0.764440  0.203752  1
  O  O5  1  0.857064  0.717313  0.153576  1
  O  O6  1  0.612944  0.238317  0.228374  1
  O  O7  1  0.606272  0.594991  0.176462  1
  O  O8  1  0.164970  0.977772  0.207155  1
  O  O9  1  0.335204  0.901458  0.218411  1
  O  O10  1  0.248341  0.746708  0.203033  1
  O  O11  1  0.997821  0.764440  0.203752  1
  O  O12  1  0.357064  0.717312  0.153576  1
  O  O13  1  0.112944  0.238317  0.228374  1
  O  O14  1  0.106272  0.594991  0.176461  1
  O  O15  1  0.664970  0.977772  0.459377  1
  O  O16  1  0.835204  0.901458  0.470633  1
  O  O17  1  0.664970  0.022385  0.268159  1
  O  O18  1  0.835204  0.098699  0.256903  1
  O  O19  1  0.751847  0.883988  0.396697  1
  O  O20  1  0.748341  0.746708  0.455256  1
  O  O21  1  0.751847  0.116169  0.330839  1
  O  O22  1  0.748341  0.253448  0.272280  1
  O  O23  1  0.002370  0.898876  0.404917  1
  O  O24  1  0.497821  0.764440  0.455974  1
  O  O25  1  0.002370  0.101281  0.322619  1
  O  O26  1  0.497821  0.235717  0.271562  1
  O  O27  1  0.643139  0.050676  0.431318  1
  O  O28  1  0.857064  0.717313  0.405799  1
  O  O29  1  0.643139  0.949480  0.296218  1
  O  O30  1  0.857063  0.282844  0.321738  1
  O  O31  1  0.612944  0.761840  0.246940  1
  O  O32  1  0.887257  0.275127  0.367111  1
  O  O33  1  0.612944  0.238317  0.480597  1
  O  O34  1  0.887257  0.725030  0.360425  1
  O  O35  1  0.606272  0.594991  0.428684  1
  O  O36  1  0.893922  0.162546  0.380803  1
  O  O37  1  0.606272  0.405166  0.298853  1
  O  O38  1  0.893922  0.837611  0.346733  1
  O  O39  1  0.746899  0.846013  0.306444  1
  O  O40  1  0.753341  0.426880  0.384168  1
  O  O41  1  0.746898  0.154143  0.421093  1
  O  O42  1  0.753341  0.573277  0.343368  1
  O  O43  1  0.996782  0.864898  0.308324  1
  O  O44  1  0.503459  0.415433  0.376515  1
  O  O45  1  0.996782  0.135258  0.419212  1
  O  O46  1  0.503459  0.584724  0.351021  1
  O  O47  1  0.859389  -0.000000  0.363768  1
  O  O48  1  0.640830  0.500078  0.363768  1
  O  O49  1  0.164970  0.977772  0.459377  1
  O  O50  1  0.335204  0.901458  0.470633  1
  O  O51  1  0.164970  0.022385  0.268159  1
  O  O52  1  0.335204  0.098699  0.256903  1
  O  O53  1  0.251847  0.883988  0.396697  1
  O  O54  1  0.248341  0.746708  0.455256  1
  O  O55  1  0.251847  0.116169  0.330839  1
  O  O56  1  0.248341  0.253448  0.272280  1
  O  O57  1  0.502370  0.898876  0.404917  1
  O  O58  1  0.997821  0.764440  0.455974  1
  O  O59  1  0.502370  0.101281  0.322619  1
  O  O60  1  0.997821  0.235717  0.271562  1
  O  O61  1  0.143139  0.050676  0.431318  1
  O  O62  1  0.357064  0.717312  0.405799  1
  O  O63  1  0.143139  0.949480  0.296218  1
  O  O64  1  0.357064  0.282844  0.321738  1
  O  O65  1  0.112944  0.761840  0.246940  1
  O  O66  1  0.387257  0.275127  0.367111  1
  O  O67  1  0.112944  0.238317  0.480597  1
  O  O68  1  0.387257  0.725030  0.360425  1
  O  O69  1  0.106272  0.594991  0.428684  1
  O  O70  1  0.393922  0.162546  0.380803  1
  O  O71  1  0.106272  0.405166  0.298853  1
  O  O72  1  0.393922  0.837611  0.346733  1
  O  O73  1  0.246898  0.846013  0.306444  1
  O  O74  1  0.253341  0.426880  0.384168  1
  O  O75  1  0.246898  0.154143  0.421092  1
  O  O76  1  0.253341  0.573277  0.343368  1
  O  O77  1  0.496782  0.864898  0.308324  1
  O  O78  1  0.003459  0.415433  0.376515  1
  O  O79  1  0.496782  0.135258  0.419212  1
  O  O80  1  0.003459  0.584724  0.351021  1
  O  O81  1  0.359389  -0.000000  0.363768  1
  O  O82  1  0.140830  0.500079  0.363768  1
  O  O83  1  0.664970  0.022385  0.520381  1
  O  O84  1  0.835204  0.098699  0.509125  1
  O  O85  1  0.748341  0.253448  0.524503  1
  O  O86  1  0.497821  0.235717  0.523784  1
  O  O87  1  0.857063  0.282844  0.573960  1
  O  O88  1  0.612944  0.761840  0.499162  1
  O  O89  1  0.606272  0.405166  0.551075  1
  O  O90  1  0.164970  0.022385  0.520381  1
  O  O91  1  0.335204  0.098699  0.509125  1
  O  O92  1  0.248341  0.253448  0.524503  1
  O  O93  1  0.997821  0.235717  0.523784  1
  O  O94  1  0.357064  0.282844  0.573960  1
  O  O95  1  0.112944  0.761840  0.499162  1
  O  O96  1  0.106272  0.405166  0.551075  1
  Si  Si97  1  0.862636  0.785398  0.195308  1
  Si  Si98  1  0.613469  0.714898  0.207129  1
  Si  Si99  1  0.362636  0.785398  0.195308  1
  Si  Si100  1  0.113468  0.714898  0.207129  1
  Si  Si101  1  0.637536  0.953305  0.423918  1
  Si  Si102  1  0.862636  0.785398  0.447530  1
  Si  Si103  1  0.637536  0.046851  0.303619  1
  Si  Si104  1  0.862636  0.214758  0.280006  1
  Si  Si105  1  0.613469  0.714898  0.459352  1
  Si  Si106  1  0.886708  0.164259  0.350974  1
  Si  Si107  1  0.613469  0.285258  0.268185  1
  Si  Si108  1  0.886708  0.835898  0.376562  1
  Si  Si109  1  0.625786  0.853638  0.289528  1
  Si  Si110  1  0.874433  0.352216  0.363403  1
  Si  Si111  1  0.625786  0.146519  0.438008  1
  Si  Si112  1  0.874434  0.647941  0.364133  1
  Si  Si113  1  0.874266  0.882870  0.330351  1
  Si  Si114  1  0.625952  0.484804  0.389494  1
  Si  Si115  1  0.874266  0.117286  0.397185  1
  Si  Si116  1  0.625952  0.515352  0.338042  1
  Si  Si117  1  0.750145  0.000000  0.237657  1
  Si  Si118  1  0.137536  0.953306  0.423918  1
  Si  Si119  1  0.362636  0.785398  0.447530  1
  Si  Si120  1  0.137536  0.046851  0.303618  1
  Si  Si121  1  0.362636  0.214759  0.280006  1
  Si  Si122  1  0.113468  0.714898  0.459352  1
  Si  Si123  1  0.386708  0.164259  0.350974  1
  Si  Si124  1  0.113469  0.285258  0.268185  1
  Si  Si125  1  0.386708  0.835898  0.376562  1
  Si  Si126  1  0.125786  0.853638  0.289528  1
  Si  Si127  1  0.374433  0.352216  0.363403  1
  Si  Si128  1  0.125786  0.146519  0.438008  1
  Si  Si129  1  0.374434  0.647941  0.364133  1
  Si  Si130  1  0.374266  0.882870  0.330351  1
  Si  Si131  1  0.125952  0.484804  0.389494  1
  Si  Si132  1  0.374266  0.117286  0.397185  1
  Si  Si133  1  0.125952  0.515352  0.338042  1
  Si  Si134  1  0.250145  0.000000  0.237657  1
  Si  Si135  1  0.862636  0.214758  0.532228  1
  Si  Si136  1  0.613469  0.285258  0.520407  1
  Si  Si137  1  0.750145  0.000000  0.489879  1
  Si  Si138  1  0.362636  0.214759  0.532228  1
  Si  Si139  1  0.113469  0.285258  0.520407  1
  Si  Si140  1  0.250145  0.000000  0.489879  1
  H  H141  1  0.664970  0.977772  0.189811  1
  H  H142  1  0.857064  0.717313  0.136232  1
  H  H143  1  0.612944  0.238317  0.211030  1
  H  H144  1  0.606272  0.594991  0.159117  1
  H  H145  1  0.164970  0.977772  0.189811  1
  H  H146  1  0.357064  0.717312  0.136232  1
  H  H147  1  0.112944  0.238317  0.211030  1
  H  H148  1  0.106272  0.594991  0.159117  1
  H  H149  1  0.664970  0.022385  0.537725  1
  H  H150  1  0.857063  0.282844  0.591304  1
  H  H151  1  0.612944  0.761840  0.516507  1
  H  H152  1  0.606272  0.405166  0.568419  1
  H  H153  1  0.164970  0.022385  0.537725  1
  H  H154  1  0.357064  0.282844  0.591304  1
  H  H155  1  0.112944  0.761840  0.516507  1
  H  H156  1  0.106272  0.405166  0.568419  1
