# generated using pymatgen
data_Si32H2O65
_symmetry_space_group_name_H-M   'P 1'
_cell_length_a   7.16200173
_cell_length_b   7.16174636
_cell_length_c   96.87021249
_cell_angle_alpha   90.00000000
_cell_angle_beta   90.00000000
_cell_angle_gamma   90.00000000
_symmetry_Int_Tables_number   1
_chemical_formula_structural   Si32H2O65
_chemical_formula_sum   'Si64 H4 O130'
_cell_volume   4968.70954427
_cell_formula_units_Z   2
loop_
 _symmetry_equiv_pos_site_id
 _symmetry_equiv_pos_as_xyz
  1  'x, y, z'
loop_
 _atom_site_type_symbol
 _atom_site_label
 _atom_site_symmetry_multiplicity
 _atom_site_fract_x
 _atom_site_fract_y
 _atom_site_fract_z
 _atom_site_occupancy
  O  O1  1  0.503359  0.324988  0.061489  1
  O  O2  1  0.503665  0.667967  0.060906  1
  O  O3  1  0.326506  0.997833  0.169064  1
  O  O4  1  0.829852  0.499302  0.383877  1
  O  O5  1  0.172877  0.502937  0.383802  1
  O  O6  1  0.669400  0.997966  0.168374  1
  O  O7  1  0.001597  0.831682  0.275925  1
  O  O8  1  0.503359  0.324988  0.491677  1
  O  O9  1  0.503665  0.667967  0.491094  1
  O  O10  1  0.003392  0.174634  0.276568  1
  O  O11  1  0.172775  0.996334  0.297838  1
  O  O12  1  0.669472  0.500711  0.083073  1
  O  O13  1  0.326566  0.500824  0.082402  1
  O  O14  1  0.829774  0.000000  0.297741  1
  O  O15  1  0.503965  0.831690  0.190581  1
  O  O16  1  0.003102  0.325098  0.405092  1
  O  O17  1  0.001323  0.668072  0.405675  1
  O  O18  1  0.503612  0.174641  0.189933  1
  O  O19  1  0.166960  0.817654  0.148324  1
  O  O20  1  0.677167  0.320875  0.362647  1
  O  O21  1  0.324078  0.680984  0.362568  1
  O  O22  1  0.814548  0.177846  0.147031  1
  O  O23  1  0.182506  0.686142  0.254633  1
  O  O24  1  0.683146  0.166594  0.470882  1
  O  O25  1  0.322945  0.814090  0.469826  1
  O  O26  1  0.822565  0.333684  0.255828  1
  O  O27  1  0.323810  0.819178  0.319117  1
  O  O28  1  0.814815  0.319900  0.104378  1
  O  O29  1  0.167236  0.680112  0.103180  1
  O  O30  1  0.676819  0.179426  0.318902  1
  O  O31  1  0.323718  0.686205  0.211880  1
  O  O32  1  0.821810  0.166695  0.425837  1
  O  O33  1  0.181776  0.814211  0.426967  1
  O  O34  1  0.683875  0.333723  0.210690  1
  O  O35  1  0.814735  0.679531  0.104414  1
  O  O36  1  0.324244  0.179498  0.318705  1
  O  O37  1  0.676454  0.819050  0.318620  1
  O  O38  1  0.167217  0.319360  0.103143  1
  O  O39  1  0.822119  0.814200  0.426985  1
  O  O40  1  0.323141  0.333682  0.210712  1
  O  O41  1  0.683333  0.686142  0.211917  1
  O  O42  1  0.182575  0.166712  0.425923  1
  O  O43  1  0.676754  0.681101  0.363039  1
  O  O44  1  0.166998  0.178399  0.148293  1
  O  O45  1  0.814508  0.818212  0.147064  1
  O  O46  1  0.324456  0.320785  0.362869  1
  O  O47  1  0.682580  0.814113  0.469755  1
  O  O48  1  0.183311  0.333697  0.255777  1
  O  O49  1  0.822891  0.686164  0.254578  1
  O  O50  1  0.322362  0.166590  0.470901  1
  O  O51  1  0.489710  0.997954  0.146803  1
  O  O52  1  -0.000000  0.500997  0.361914  1
  O  O53  1  0.002817  0.010880  0.254330  1
  O  O54  1  0.502807  0.489533  0.469467  1
  O  O55  1  0.000000  0.000000  0.319714  1
  O  O56  1  0.490000  0.499722  0.104654  1
  O  O57  1  0.503605  0.010900  0.212174  1
  O  O58  1  0.002026  0.489629  0.427302  1
  O  O59  1  0.991848  -0.000000  0.106900  1
  O  O60  1  0.500497  0.499386  0.322009  1
  O  O61  1  0.003420  0.509124  0.214425  1
  O  O62  1  0.502053  0.991162  0.429554  1
  O  O63  1  0.500765  -0.000000  0.359695  1
  O  O64  1  0.991644  0.498137  0.144559  1
  O  O65  1  0.502841  0.509110  0.252080  1
  O  O66  1  0.002677  0.991054  0.467213  1
  O  O67  1  0.006608  0.249063  0.125715  1
  O  O68  1  0.507956  0.750072  0.340838  1
  O  O69  1  0.495889  0.248778  0.340790  1
  O  O70  1  0.006377  0.749057  0.125744  1
  O  O71  1  0.753150  0.494421  0.233258  1
  O  O72  1  0.252609  0.003856  0.448406  1
  O  O73  1  0.752596  0.004843  0.448364  1
  O  O74  1  0.253191  0.495346  0.233247  1
  O  O75  1  0.326506  0.997833  0.599252  1
  O  O76  1  0.829852  0.499302  0.814065  1
  O  O77  1  0.172877  0.502937  0.813990  1
  O  O78  1  0.669400  0.997966  0.598561  1
  O  O79  1  0.001597  0.831682  0.706113  1
  O  O80  1  0.003392  0.174634  0.706756  1
  O  O81  1  0.172775  0.996334  0.728026  1
  O  O82  1  0.669472  0.500711  0.513261  1
  O  O83  1  0.326566  0.500824  0.512590  1
  O  O84  1  0.829774  -0.000000  0.727929  1
  O  O85  1  0.503965  0.831690  0.620769  1
  O  O86  1  0.003102  0.325098  0.835280  1
  O  O87  1  0.001323  0.668072  0.835863  1
  O  O88  1  0.503612  0.174641  0.620121  1
  O  O89  1  0.166960  0.817654  0.578512  1
  O  O90  1  0.677167  0.320875  0.792835  1
  O  O91  1  0.324078  0.680984  0.792756  1
  O  O92  1  0.814548  0.177846  0.577219  1
  O  O93  1  0.182506  0.686142  0.684820  1
  O  O94  1  0.822565  0.333684  0.686016  1
  O  O95  1  0.323810  0.819178  0.749305  1
  O  O96  1  0.814815  0.319900  0.534566  1
  O  O97  1  0.167236  0.680112  0.533368  1
  O  O98  1  0.676819  0.179426  0.749090  1
  O  O99  1  0.323718  0.686205  0.642068  1
  O  O100  1  0.683875  0.333723  0.640878  1
  O  O101  1  0.814735  0.679531  0.534602  1
  O  O102  1  0.324244  0.179498  0.748893  1
  O  O103  1  0.676454  0.819050  0.748807  1
  O  O104  1  0.167217  0.319360  0.533331  1
  O  O105  1  0.323141  0.333682  0.640900  1
  O  O106  1  0.683333  0.686142  0.642105  1
  O  O107  1  0.676754  0.681101  0.793227  1
  O  O108  1  0.166998  0.178399  0.578481  1
  O  O109  1  0.814508  0.818212  0.577252  1
  O  O110  1  0.324456  0.320785  0.793057  1
  O  O111  1  0.183311  0.333697  0.685965  1
  O  O112  1  0.822891  0.686164  0.684765  1
  O  O113  1  0.489710  0.997954  0.576990  1
  O  O114  1  0.000000  0.500997  0.792102  1
  O  O115  1  0.002817  0.010880  0.684518  1
  O  O116  1  0.000000  -0.000000  0.749901  1
  O  O117  1  0.490000  0.499722  0.534842  1
  O  O118  1  0.503605  0.010900  0.642361  1
  O  O119  1  0.991848  0.000000  0.537088  1
  O  O120  1  0.500497  0.499386  0.752197  1
  O  O121  1  0.003420  0.509124  0.644613  1
  O  O122  1  0.500765  -0.000000  0.789883  1
  O  O123  1  0.991644  0.498137  0.574747  1
  O  O124  1  0.502841  0.509110  0.682268  1
  O  O125  1  0.006608  0.249063  0.555903  1
  O  O126  1  0.507956  0.750072  0.771026  1
  O  O127  1  0.495889  0.248778  0.770978  1
  O  O128  1  0.006377  0.749057  0.555931  1
  O  O129  1  0.753150  0.494421  0.663445  1
  O  O130  1  0.253191  0.495346  0.663435  1
  Si  Si131  1  0.279257  0.998046  0.152773  1
  Si  Si132  1  0.788200  0.500209  0.367492  1
  Si  Si133  1  0.213190  0.501529  0.367396  1
  Si  Si134  1  0.704136  0.998088  0.151888  1
  Si  Si135  1  0.002533  0.796579  0.259443  1
  Si  Si136  1  0.502829  0.278744  0.475370  1
  Si  Si137  1  0.502979  0.703656  0.474621  1
  Si  Si138  1  0.003063  0.221456  0.260273  1
  Si  Si139  1  0.212922  0.998431  0.314243  1
  Si  Si140  1  0.704361  0.499823  0.099556  1
  Si  Si141  1  0.279501  0.499869  0.098695  1
  Si  Si142  1  0.787930  -0.000000  0.314123  1
  Si  Si143  1  0.503668  0.796593  0.207062  1
  Si  Si144  1  0.002410  0.278839  0.421399  1
  Si  Si145  1  0.001879  0.703760  0.422148  1
  Si  Si146  1  0.503495  0.221487  0.206231  1
  Si  Si147  1  0.994710  0.215812  0.109809  1
  Si  Si148  1  0.501585  0.715561  0.324934  1
  Si  Si149  1  0.500007  0.283124  0.324884  1
  Si  Si150  1  0.994658  0.783425  0.109847  1
  Si  Si151  1  0.787262  0.506263  0.217360  1
  Si  Si152  1  0.285920  0.993483  0.432496  1
  Si  Si153  1  0.718278  0.993908  0.432466  1
  Si  Si154  1  0.219620  0.506488  0.217339  1
  Si  Si155  1  0.500219  0.216919  0.356723  1
  Si  Si156  1  0.994496  0.714357  0.141636  1
  Si  Si157  1  0.994540  0.281965  0.141624  1
  Si  Si158  1  0.501789  0.784656  0.356743  1
  Si  Si159  1  0.719023  0.506140  0.249156  1
  Si  Si160  1  0.218898  0.993497  0.464310  1
  Si  Si161  1  0.786548  0.993695  0.464265  1
  Si  Si162  1  0.286659  0.506560  0.249151  1
  Si  Si163  1  0.501937  -0.000000  0.179489  1
  Si  Si164  1  0.001827  0.499913  0.394614  1
  Si  Si165  1  0.001875  -0.000000  0.287015  1
  Si  Si166  1  0.501885  0.499800  0.071967  1
  Si  Si167  1  0.279257  0.998046  0.582961  1
  Si  Si168  1  0.788200  0.500209  0.797680  1
  Si  Si169  1  0.213190  0.501529  0.797584  1
  Si  Si170  1  0.704136  0.998088  0.582076  1
  Si  Si171  1  0.002533  0.796579  0.689631  1
  Si  Si172  1  0.003063  0.221456  0.690461  1
  Si  Si173  1  0.212922  0.998431  0.744431  1
  Si  Si174  1  0.704361  0.499823  0.529744  1
  Si  Si175  1  0.279501  0.499869  0.528883  1
  Si  Si176  1  0.787930  -0.000000  0.744311  1
  Si  Si177  1  0.503668  0.796593  0.637249  1
  Si  Si178  1  0.503495  0.221487  0.636418  1
  Si  Si179  1  0.994710  0.215812  0.539996  1
  Si  Si180  1  0.501585  0.715561  0.755122  1
  Si  Si181  1  0.500007  0.283124  0.755071  1
  Si  Si182  1  0.994658  0.783425  0.540035  1
  Si  Si183  1  0.787262  0.506263  0.647547  1
  Si  Si184  1  0.219620  0.506488  0.647527  1
  Si  Si185  1  0.500219  0.216919  0.786910  1
  Si  Si186  1  0.994496  0.714357  0.571824  1
  Si  Si187  1  0.994540  0.281965  0.571812  1
  Si  Si188  1  0.501789  0.784656  0.786931  1
  Si  Si189  1  0.719023  0.506140  0.679343  1
  Si  Si190  1  0.286659  0.506560  0.679339  1
  Si  Si191  1  0.501937  0.000000  0.609677  1
  Si  Si192  1  0.001827  0.499913  0.824802  1
  Si  Si193  1  0.001875  -0.000000  0.717203  1
  Si  Si194  1  0.501885  0.499800  0.502155  1
  H  H195  1  0.503359  0.324988  0.052198  1
  H  H196  1  0.503665  0.667967  0.051615  1
  H  H197  1  0.003102  0.325098  0.844570  1
  H  H198  1  0.001323  0.668072  0.845154  1
