# generated using pymatgen
data_Si25H18O59
_symmetry_space_group_name_H-M   'P 1'
_cell_length_a   14.20306309
_cell_length_b   35.25439057
_cell_length_c   42.71493420
_cell_angle_alpha   90.00000000
_cell_angle_beta   45.05152913
_cell_angle_gamma   78.35781339
_symmetry_Int_Tables_number   1
_chemical_formula_structural   Si25H18O59
_chemical_formula_sum   'Si50 H36 O118'
_cell_volume   14508.9896878
_cell_formula_units_Z   2
loop_
 _symmetry_equiv_pos_site_id
 _symmetry_equiv_pos_as_xyz
  1  'x, y, z'
loop_
 _atom_site_type_symbol
 _atom_site_label
 _atom_site_symmetry_multiplicity
 _atom_site_fract_x
 _atom_site_fract_y
 _atom_site_fract_z
 _atom_site_occupancy
  O  O1  1  0.849964  0.900067  0.190075  1
  O  O2  1  0.348831  0.901186  0.190332  1
  O  O3  1  0.920619  0.078934  0.277071  1
  O  O4  1  0.421610  0.078908  0.421995  1
  O  O5  1  0.728896  0.078968  0.277197  1
  O  O6  1  0.613305  0.079002  0.421850  1
  O  O7  1  0.910462  0.133390  0.318818  1
  O  O8  1  0.322863  0.133322  0.405817  1
  O  O9  1  0.507593  0.133824  0.319259  1
  O  O10  1  0.724787  0.133894  0.405605  1
  O  O11  1  0.034010  0.063530  0.303602  1
  O  O12  1  0.339069  0.063464  0.388224  1
  O  O13  1  0.516280  0.064614  0.303752  1
  O  O14  1  0.854578  0.064687  0.388589  1
  O  O15  1  0.151204  0.098814  0.236755  1
  O  O16  1  0.650085  0.099927  0.237007  1
  O  O17  1  0.307160  0.037134  0.339958  1
  O  O18  1  0.118642  0.037113  0.339459  1
  O  O19  1  0.996489  0.000000  0.332642  1
  O  O20  1  0.816435  0.018470  0.295299  1
  O  O21  1  0.646763  0.018475  0.375345  1
  O  O22  1  0.670038  0.079999  0.349772  1
  O  O23  1  0.748163  0.248425  0.273427  1
  O  O24  1  0.254954  0.248461  0.270424  1
  O  O25  1  0.244993  0.251562  0.390220  1
  O  O26  1  0.751776  0.251642  0.390022  1
  O  O27  1  0.669657  0.261738  0.349982  1
  O  O28  1  0.306884  0.261658  0.435003  1
  O  O29  1  0.487679  0.261451  0.350306  1
  O  O30  1  0.489287  0.261530  0.434575  1
  O  O31  1  0.010796  0.238412  0.429683  1
  O  O32  1  0.012272  0.238526  0.344378  1
  O  O33  1  0.192357  0.238420  0.344444  1
  O  O34  1  0.830787  0.238450  0.429598  1
  O  O35  1  0.622697  0.316822  0.316221  1
  O  O36  1  0.243290  0.316847  0.259732  1
  O  O37  1  0.256353  0.183169  0.374215  1
  O  O38  1  0.877333  0.183247  0.373827  1
  O  O39  1  0.410881  0.196712  0.377710  1
  O  O40  1  0.695643  0.196793  0.376735  1
  O  O41  1  0.805410  0.303276  0.233768  1
  O  O42  1  0.088299  0.303324  0.335835  1
  O  O43  1  0.887552  0.420965  0.239975  1
  O  O44  1  0.770652  0.421141  0.384970  1
  O  O45  1  0.078903  0.421005  0.384978  1
  O  O46  1  0.579149  0.421176  0.240026  1
  O  O47  1  0.774054  0.366551  0.276748  1
  O  O48  1  0.991841  0.366319  0.322742  1
  O  O49  1  0.176373  0.366625  0.322628  1
  O  O50  1  0.590442  0.366292  0.276392  1
  O  O51  1  0.645864  0.436382  0.319679  1
  O  O52  1  0.982925  0.435658  0.311669  1
  O  O53  1  0.161109  0.436455  0.312509  1
  O  O54  1  0.464847  0.435552  0.320187  1
  O  O55  1  0.848204  0.400695  0.307960  1
  O  O56  1  0.349333  0.400689  0.307413  1
  O  O57  1  0.382285  0.462918  0.395204  1
  O  O58  1  0.192796  0.462849  0.249338  1
  O  O59  1  0.112990  0.578833  0.422025  1
  O  O60  1  0.229645  0.578967  0.277092  1
  O  O61  1  0.921516  0.578853  0.277094  1
  O  O62  1  0.420982  0.579000  0.422074  1
  O  O63  1  0.223966  0.633770  0.385764  1
  O  O64  1  0.007668  0.633512  0.339260  1
  O  O65  1  0.823172  0.633823  0.339164  1
  O  O66  1  0.409342  0.633481  0.385413  1
  O  O67  1  0.354331  0.564569  0.341833  1
  O  O68  1  0.018221  0.563817  0.349744  1
  O  O69  1  0.835626  0.564637  0.350609  1
  O  O70  1  0.534079  0.563716  0.342318  1
  O  O71  1  0.149513  0.599437  0.354652  1
  O  O72  1  0.650628  0.599439  0.354107  1
  O  O73  1  0.618526  0.537110  0.266795  1
  O  O74  1  0.808195  0.537038  0.412611  1
  O  O75  1  0.496807  0.500073  0.331059  1
  O  O76  1  0.997564  0.500216  0.330744  1
  O  O77  1  0.754830  0.748397  0.271941  1
  O  O78  1  0.248586  0.748472  0.271847  1
  O  O79  1  0.251685  0.751599  0.388574  1
  O  O80  1  0.745396  0.751636  0.391611  1
  O  O81  1  0.989041  0.761651  0.232401  1
  O  O82  1  0.987884  0.761730  0.317605  1
  O  O83  1  0.807704  0.761599  0.317631  1
  O  O84  1  0.169361  0.761652  0.232340  1
  O  O85  1  0.331372  0.738534  0.311725  1
  O  O86  1  0.691836  0.738491  0.227407  1
  O  O87  1  0.512397  0.738217  0.311990  1
  O  O88  1  0.511299  0.738332  0.227025  1
  O  O89  1  0.742851  0.816816  0.288154  1
  O  O90  1  0.123715  0.816884  0.287767  1
  O  O91  1  0.376551  0.683176  0.345853  1
  O  O92  1  0.756955  0.683218  0.402204  1
  O  O93  1  0.194650  0.696799  0.428309  1
  O  O94  1  0.912269  0.696823  0.326142  1
  O  O95  1  0.587085  0.803207  0.285276  1
  O  O96  1  0.306585  0.803289  0.284309  1
  O  O97  1  0.078853  0.921104  0.384789  1
  O  O98  1  0.579052  0.921070  0.240146  1
  O  O99  1  0.269989  0.921126  0.384931  1
  O  O100  1  0.387914  0.921159  0.239978  1
  O  O101  1  0.091640  0.866204  0.342733  1
  O  O102  1  0.676114  0.866133  0.256394  1
  O  O103  1  0.491872  0.866623  0.343186  1
  O  O104  1  0.274983  0.866691  0.256162  1
  O  O105  1  0.964857  0.935363  0.358232  1
  O  O106  1  0.664566  0.935295  0.273396  1
  O  O107  1  0.481056  0.936447  0.358381  1
  O  O108  1  0.146140  0.936511  0.273765  1
  O  O109  1  0.849964  0.900067  0.424982  1
  O  O110  1  0.348831  0.901186  0.425239  1
  O  O111  1  0.691774  0.962948  0.322532  1
  O  O112  1  0.882419  0.962926  0.322034  1
  O  O113  1  0.182929  0.981587  0.366690  1
  O  O114  1  0.354027  0.981587  0.286639  1
  O  O115  1  0.329979  0.920063  0.312213  1
  O  O116  1  0.503360  0.000000  0.329342  1
  O  O117  1  0.151204  0.098814  0.471662  1
  O  O118  1  0.650085  0.099927  0.471914  1
  Si  Si119  1  0.237086  0.012947  0.334031  1
  Si  Si120  1  0.008579  0.093906  0.281778  1
  Si  Si121  1  0.303686  0.093851  0.424327  1
  Si  Si122  1  0.605970  0.094507  0.281977  1
  Si  Si123  1  0.705075  0.094563  0.424392  1
  Si  Si124  1  0.413659  0.041959  0.340603  1
  Si  Si125  1  0.002450  0.041995  0.341099  1
  Si  Si126  1  0.378379  0.159323  0.368752  1
  Si  Si127  1  0.802980  0.159401  0.368096  1
  Si  Si128  1  0.792013  0.065080  0.295824  1
  Si  Si129  1  0.577953  0.065085  0.396713  1
  Si  Si130  1  0.626738  0.272428  0.324904  1
  Si  Si131  1  0.171496  0.227567  0.384546  1
  Si  Si132  1  0.873323  0.227644  0.384396  1
  Si  Si133  1  0.363022  0.244468  0.388712  1
  Si  Si134  1  0.647930  0.244552  0.388195  1
  Si  Si135  1  0.136529  0.255564  0.324368  1
  Si  Si136  1  0.794295  0.405920  0.285940  1
  Si  Si137  1  0.893232  0.405767  0.331968  1
  Si  Si138  1  0.196462  0.405970  0.331929  1
  Si  Si139  1  0.491471  0.405729  0.285770  1
  Si  Si140  1  0.496555  0.458070  0.342258  1
  Si  Si141  1  0.086309  0.458105  0.300055  1
  Si  Si142  1  0.697474  0.340667  0.275562  1
  Si  Si143  1  0.120851  0.340707  0.311590  1
  Si  Si144  1  0.204592  0.594317  0.376310  1
  Si  Si145  1  0.106284  0.594138  0.330113  1
  Si  Si146  1  0.802881  0.594389  0.330089  1
  Si  Si147  1  0.508322  0.594133  0.376144  1
  Si  Si148  1  0.502446  0.542034  0.319751  1
  Si  Si149  1  0.912562  0.542066  0.362017  1
  Si  Si150  1  0.301927  0.659374  0.386555  1
  Si  Si151  1  0.879172  0.659406  0.350325  1
  Si  Si152  1  0.828359  0.772435  0.277569  1
  Si  Si153  1  0.127016  0.772502  0.277494  1
  Si  Si154  1  0.373356  0.727554  0.337112  1
  Si  Si155  1  0.863760  0.744584  0.337665  1
  Si  Si156  1  0.636061  0.755445  0.273796  1
  Si  Si157  1  0.353195  0.755529  0.273328  1
  Si  Si158  1  0.991791  0.905500  0.380046  1
  Si  Si159  1  0.697312  0.905441  0.237558  1
  Si  Si160  1  0.392995  0.906127  0.380192  1
  Si  Si161  1  0.294827  0.906182  0.237693  1
  Si  Si162  1  0.587428  0.958002  0.320924  1
  Si  Si163  1  0.996594  0.958035  0.321347  1
  Si  Si164  1  0.620168  0.840627  0.293911  1
  Si  Si165  1  0.198693  0.840702  0.293229  1
  Si  Si166  1  0.207288  0.934979  0.366161  1
  Si  Si167  1  0.422896  0.934979  0.265273  1
  Si  Si168  1  0.762941  0.987112  0.327957  1
  H  H169  1  0.849964  0.900067  0.169005  1
  H  H170  1  0.348831  0.901186  0.169262  1
  H  H171  1  0.151204  0.098814  0.215685  1
  H  H172  1  0.650085  0.099927  0.215937  1
  H  H173  1  0.748163  0.248425  0.252357  1
  H  H174  1  0.254954  0.248461  0.249354  1
  H  H175  1  0.306884  0.261658  0.456073  1
  H  H176  1  0.489287  0.261530  0.455645  1
  H  H177  1  0.010796  0.238412  0.450753  1
  H  H178  1  0.830787  0.238450  0.450668  1
  H  H179  1  0.243290  0.316847  0.238662  1
  H  H180  1  0.805410  0.303276  0.212698  1
  H  H181  1  0.887552  0.420965  0.218905  1
  H  H182  1  0.770652  0.421141  0.406040  1
  H  H183  1  0.078903  0.421005  0.406048  1
  H  H184  1  0.579149  0.421176  0.218956  1
  H  H185  1  0.382285  0.462918  0.416274  1
  H  H186  1  0.192796  0.462849  0.228268  1
  H  H187  1  0.112990  0.578833  0.443095  1
  H  H188  1  0.229645  0.578967  0.256022  1
  H  H189  1  0.921516  0.578853  0.256024  1
  H  H190  1  0.420982  0.579000  0.443144  1
  H  H191  1  0.618526  0.537110  0.245725  1
  H  H192  1  0.808195  0.537038  0.433681  1
  H  H193  1  0.251685  0.751599  0.409644  1
  H  H194  1  0.745396  0.751636  0.412681  1
  H  H195  1  0.989041  0.761651  0.211331  1
  H  H196  1  0.169361  0.761652  0.211270  1
  H  H197  1  0.691836  0.738491  0.206337  1
  H  H198  1  0.511299  0.738332  0.205955  1
  H  H199  1  0.756955  0.683218  0.423274  1
  H  H200  1  0.194650  0.696799  0.449379  1
  H  H201  1  0.849964  0.900067  0.446052  1
  H  H202  1  0.348831  0.901186  0.446309  1
  H  H203  1  0.151204  0.098814  0.492732  1
  H  H204  1  0.650085  0.099927  0.492984  1
