# generated using pymatgen
data_Si35(HO18)4
_symmetry_space_group_name_H-M   'P 1'
_cell_length_a   7.16200173
_cell_length_b   7.16174636
_cell_length_c   61.44656249
_cell_angle_alpha   90.00000000
_cell_angle_beta   90.00000000
_cell_angle_gamma   90.00000000
_symmetry_Int_Tables_number   1
_chemical_formula_structural   Si35(HO18)4
_chemical_formula_sum   'Si35 H4 O72'
_cell_volume   3151.74410887
_cell_formula_units_Z   1
loop_
 _symmetry_equiv_pos_site_id
 _symmetry_equiv_pos_as_xyz
  1  'x, y, z'
loop_
 _atom_site_type_symbol
 _atom_site_label
 _atom_site_symmetry_multiplicity
 _atom_site_fract_x
 _atom_site_fract_y
 _atom_site_fract_z
 _atom_site_occupancy
  O  O1  1  0.326506  0.997833  0.232641  1
  O  O2  1  0.829852  0.499302  0.571293  1
  O  O3  1  0.172877  0.502937  0.571174  1
  O  O4  1  0.669400  0.997966  0.231552  1
  O  O5  1  0.001597  0.831682  0.401106  1
  O  O6  1  0.503359  0.324988  0.741239  1
  O  O7  1  0.503665  0.667967  0.740320  1
  O  O8  1  0.003392  0.174634  0.402121  1
  O  O9  1  0.172775  0.996334  0.435652  1
  O  O10  1  0.669472  0.500711  0.097077  1
  O  O11  1  0.326566  0.500824  0.096018  1
  O  O12  1  0.829774  -0.000000  0.435499  1
  O  O13  1  0.503965  0.831690  0.266562  1
  O  O14  1  0.003102  0.325098  0.604737  1
  O  O15  1  0.001323  0.668072  0.605657  1
  O  O16  1  0.503612  0.174641  0.265541  1
  O  O17  1  0.166960  0.817654  0.199945  1
  O  O18  1  0.677167  0.320875  0.537824  1
  O  O19  1  0.324078  0.680984  0.537699  1
  O  O20  1  0.814548  0.177846  0.197906  1
  O  O21  1  0.182506  0.686142  0.367539  1
  O  O22  1  0.683146  0.166594  0.708456  1
  O  O23  1  0.322945  0.814090  0.706791  1
  O  O24  1  0.822565  0.333684  0.369424  1
  O  O25  1  0.323810  0.819178  0.469199  1
  O  O26  1  0.814815  0.319900  0.130664  1
  O  O27  1  0.167236  0.680112  0.128775  1
  O  O28  1  0.676819  0.179426  0.468860  1
  O  O29  1  0.323718  0.686205  0.300140  1
  O  O30  1  0.821810  0.166695  0.637442  1
  O  O31  1  0.181776  0.814211  0.639223  1
  O  O32  1  0.683875  0.333723  0.298264  1
  O  O33  1  0.814735  0.679531  0.130721  1
  O  O34  1  0.324244  0.179498  0.468550  1
  O  O35  1  0.676454  0.819050  0.468415  1
  O  O36  1  0.167217  0.319360  0.128717  1
  O  O37  1  0.822119  0.814200  0.639253  1
  O  O38  1  0.323141  0.333682  0.298299  1
  O  O39  1  0.683333  0.686142  0.300198  1
  O  O40  1  0.182575  0.166712  0.637577  1
  O  O41  1  0.676754  0.681101  0.538442  1
  O  O42  1  0.166998  0.178399  0.199896  1
  O  O43  1  0.814508  0.818212  0.197958  1
  O  O44  1  0.324456  0.320785  0.538173  1
  O  O45  1  0.682580  0.814113  0.706678  1
  O  O46  1  0.183311  0.333697  0.369343  1
  O  O47  1  0.822891  0.686164  0.367453  1
  O  O48  1  0.322362  0.166590  0.708486  1
  O  O49  1  0.489710  0.997954  0.197546  1
  O  O50  1  -0.000000  0.500997  0.536668  1
  O  O51  1  0.002817  0.010880  0.367062  1
  O  O52  1  0.502807  0.489533  0.706225  1
  O  O53  1  0.000000  0.000000  0.470139  1
  O  O54  1  0.490000  0.499722  0.131099  1
  O  O55  1  0.503605  0.010900  0.300603  1
  O  O56  1  0.002026  0.489629  0.639752  1
  O  O57  1  0.991848  0.000000  0.134639  1
  O  O58  1  0.500497  0.499386  0.473758  1
  O  O59  1  0.003420  0.509124  0.304152  1
  O  O60  1  0.502053  0.991162  0.643301  1
  O  O61  1  0.500765  -0.000000  0.533170  1
  O  O62  1  0.991644  0.498137  0.194009  1
  O  O63  1  0.502841  0.509110  0.363516  1
  O  O64  1  0.002677  0.991054  0.702671  1
  O  O65  1  0.006608  0.249063  0.164301  1
  O  O66  1  0.507956  0.750072  0.503442  1
  O  O67  1  0.495889  0.248778  0.503366  1
  O  O68  1  0.006377  0.749057  0.164347  1
  O  O69  1  0.753150  0.494421  0.333842  1
  O  O70  1  0.252609  0.003856  0.673022  1
  O  O71  1  0.752596  0.004843  0.672956  1
  O  O72  1  0.253191  0.495346  0.333825  1
  Si  Si73  1  0.279257  0.998046  0.206958  1
  Si  Si74  1  0.788200  0.500209  0.545462  1
  Si  Si75  1  0.213190  0.501529  0.545310  1
  Si  Si76  1  0.704136  0.998088  0.205563  1
  Si  Si77  1  0.002533  0.796579  0.375123  1
  Si  Si78  1  0.502829  0.278744  0.715531  1
  Si  Si79  1  0.502979  0.703656  0.714350  1
  Si  Si80  1  0.003063  0.221456  0.376431  1
  Si  Si81  1  0.212922  0.998431  0.461515  1
  Si  Si82  1  0.704361  0.499823  0.123063  1
  Si  Si83  1  0.279501  0.499869  0.121704  1
  Si  Si84  1  0.787930  -0.000000  0.461326  1
  Si  Si85  1  0.503668  0.796593  0.292544  1
  Si  Si86  1  0.002410  0.278839  0.630446  1
  Si  Si87  1  0.001879  0.703760  0.631626  1
  Si  Si88  1  0.503495  0.221487  0.291234  1
  Si  Si89  1  0.994710  0.215812  0.139225  1
  Si  Si90  1  0.501585  0.715561  0.478370  1
  Si  Si91  1  0.500007  0.283124  0.478290  1
  Si  Si92  1  0.994658  0.783425  0.139285  1
  Si  Si93  1  0.787262  0.506263  0.308778  1
  Si  Si94  1  0.285920  0.993483  0.647940  1
  Si  Si95  1  0.718278  0.993908  0.647893  1
  Si  Si96  1  0.219620  0.506488  0.308747  1
  Si  Si97  1  0.500219  0.216919  0.528484  1
  Si  Si98  1  0.994496  0.714357  0.189401  1
  Si  Si99  1  0.994540  0.281965  0.189382  1
  Si  Si100  1  0.501789  0.784656  0.528516  1
  Si  Si101  1  0.719023  0.506140  0.358905  1
  Si  Si102  1  0.218898  0.993497  0.698094  1
  Si  Si103  1  0.786548  0.993695  0.698024  1
  Si  Si104  1  0.286659  0.506560  0.358897  1
  Si  Si105  1  0.501937  0.000000  0.249075  1
  Si  Si106  1  0.001827  0.499913  0.588219  1
  Si  Si107  1  0.001875  -0.000000  0.418590  1
  H  H108  1  0.503359  0.324988  0.755885  1
  H  H109  1  0.503665  0.667967  0.754967  1
  H  H110  1  0.669472  0.500711  0.082430  1
  H  H111  1  0.326566  0.500824  0.081372  1
