# generated using pymatgen
data_Si95H18O199
_symmetry_space_group_name_H-M   'P 1'
_cell_length_a   14.20306309
_cell_length_b   35.25439057
_cell_length_c   70.23832123
_cell_angle_alpha   90.00000000
_cell_angle_beta   45.05152913
_cell_angle_gamma   78.35781339
_symmetry_Int_Tables_number   1
_chemical_formula_structural   Si95H18O199
_chemical_formula_sum   'Si190 H36 O398'
_cell_volume   23857.8637009
_cell_formula_units_Z   2
loop_
 _symmetry_equiv_pos_site_id
 _symmetry_equiv_pos_as_xyz
  1  'x, y, z'
loop_
 _atom_site_type_symbol
 _atom_site_label
 _atom_site_symmetry_multiplicity
 _atom_site_fract_x
 _atom_site_fract_y
 _atom_site_fract_z
 _atom_site_occupancy
  Si  Si1  1  0.922647  0.434906  0.276406  1
  Si  Si2  1  0.707789  0.434977  0.276429  1
  Si  Si3  1  0.263299  0.487077  0.283852  1
  Si  Si4  1  0.671685  0.727599  0.275557  1
  Si  Si5  1  0.147462  0.744561  0.280074  1
  Si  Si6  1  0.237086  0.012947  0.358966  1
  Si  Si7  1  0.008579  0.093906  0.327189  1
  Si  Si8  1  0.303686  0.093851  0.413880  1
  Si  Si9  1  0.605970  0.094507  0.327310  1
  Si  Si10  1  0.705075  0.094563  0.413919  1
  Si  Si11  1  0.413659  0.041959  0.362963  1
  Si  Si12  1  0.002450  0.041995  0.363265  1
  Si  Si13  1  0.378379  0.159323  0.380082  1
  Si  Si14  1  0.802980  0.159401  0.379683  1
  Si  Si15  1  0.792013  0.065080  0.335731  1
  Si  Si16  1  0.577953  0.065085  0.397086  1
  Si  Si17  1  0.626738  0.272428  0.353416  1
  Si  Si18  1  0.328293  0.272445  0.295828  1
  Si  Si19  1  0.171496  0.227567  0.389687  1
  Si  Si20  1  0.873323  0.227644  0.389595  1
  Si  Si21  1  0.363022  0.244468  0.392220  1
  Si  Si22  1  0.647930  0.244552  0.391906  1
  Si  Si23  1  0.852464  0.255515  0.291330  1
  Si  Si24  1  0.136529  0.255564  0.353090  1
  Si  Si25  1  0.794295  0.405920  0.329720  1
  Si  Si26  1  0.893232  0.405767  0.357712  1
  Si  Si27  1  0.196462  0.405970  0.357688  1
  Si  Si28  1  0.491471  0.405729  0.329617  1
  Si  Si29  1  0.496555  0.458070  0.363969  1
  Si  Si30  1  0.086309  0.458105  0.338304  1
  Si  Si31  1  0.697474  0.340667  0.323409  1
  Si  Si32  1  0.120851  0.340707  0.345319  1
  Si  Si33  1  0.922647  0.434906  0.419263  1
  Si  Si34  1  0.707789  0.434977  0.419286  1
  Si  Si35  1  0.263299  0.487077  0.426709  1
  Si  Si36  1  0.204592  0.594317  0.384678  1
  Si  Si37  1  0.106284  0.594138  0.356584  1
  Si  Si38  1  0.802881  0.594389  0.356569  1
  Si  Si39  1  0.508322  0.594133  0.384577  1
  Si  Si40  1  0.502446  0.542034  0.350282  1
  Si  Si41  1  0.912562  0.542066  0.375986  1
  Si  Si42  1  0.301927  0.659374  0.390909  1
  Si  Si43  1  0.879172  0.659406  0.368875  1
  Si  Si44  1  0.077754  0.565024  0.295023  1
  Si  Si45  1  0.292591  0.565068  0.294990  1
  Si  Si46  1  0.737441  0.512911  0.287546  1
  Si  Si47  1  0.828359  0.772435  0.324630  1
  Si  Si48  1  0.127016  0.772502  0.324584  1
  Si  Si49  1  0.373356  0.727554  0.360840  1
  Si  Si50  1  0.671685  0.727599  0.418414  1
  Si  Si51  1  0.147462  0.744561  0.422931  1
  Si  Si52  1  0.863760  0.744584  0.361176  1
  Si  Si53  1  0.636061  0.755445  0.322335  1
  Si  Si54  1  0.353195  0.755529  0.322050  1
  Si  Si55  1  0.991791  0.905500  0.386950  1
  Si  Si56  1  0.697312  0.905441  0.300297  1
  Si  Si57  1  0.392995  0.906127  0.387039  1
  Si  Si58  1  0.294827  0.906182  0.300379  1
  Si  Si59  1  0.587428  0.958002  0.350995  1
  Si  Si60  1  0.996594  0.958035  0.351253  1
  Si  Si61  1  0.620168  0.840627  0.334568  1
  Si  Si62  1  0.198693  0.840702  0.334153  1
  Si  Si63  1  0.207288  0.934979  0.378506  1
  Si  Si64  1  0.422896  0.934979  0.317151  1
  Si  Si65  1  0.762941  0.987112  0.355273  1
  O  O66  1  0.306884  0.261658  0.277515  1
  O  O67  1  0.489287  0.261530  0.277254  1
  O  O68  1  0.010796  0.238412  0.274279  1
  O  O69  1  0.830787  0.238450  0.274227  1
  O  O70  1  0.770652  0.421141  0.247087  1
  O  O71  1  0.078903  0.421005  0.247092  1
  O  O72  1  0.382285  0.462918  0.253311  1
  O  O73  1  0.853896  0.481529  0.283078  1
  O  O74  1  0.683543  0.481574  0.283068  1
  O  O75  1  0.830088  0.420022  0.274285  1
  O  O76  1  0.112990  0.578833  0.269622  1
  O  O77  1  0.420982  0.579000  0.269652  1
  O  O78  1  0.808195  0.537038  0.263897  1
  O  O79  1  0.251685  0.751599  0.249279  1
  O  O80  1  0.745396  0.751636  0.251126  1
  O  O81  1  0.756955  0.683218  0.257568  1
  O  O82  1  0.194650  0.696799  0.273444  1
  O  O83  1  0.849964  0.900067  0.271421  1
  O  O84  1  0.348831  0.901186  0.271577  1
  O  O85  1  0.920619  0.078934  0.324327  1
  O  O86  1  0.421610  0.078908  0.412461  1
  O  O87  1  0.728896  0.078968  0.324403  1
  O  O88  1  0.613305  0.079002  0.412373  1
  O  O89  1  0.910462  0.133390  0.349715  1
  O  O90  1  0.322863  0.133322  0.402623  1
  O  O91  1  0.507593  0.133824  0.349983  1
  O  O92  1  0.724787  0.133894  0.402494  1
  O  O93  1  0.034010  0.063530  0.340461  1
  O  O94  1  0.339069  0.063464  0.391924  1
  O  O95  1  0.516280  0.064614  0.340553  1
  O  O96  1  0.854578  0.064687  0.392145  1
  O  O97  1  0.151204  0.098814  0.299809  1
  O  O98  1  0.650085  0.099927  0.299962  1
  O  O99  1  0.307160  0.037134  0.362571  1
  O  O100  1  0.118642  0.037113  0.362268  1
  O  O101  1  0.996489  0.000018  0.358122  1
  O  O102  1  0.816435  0.018470  0.335412  1
  O  O103  1  0.646763  0.018475  0.384091  1
  O  O104  1  0.670038  0.079999  0.368539  1
  O  O105  1  0.748163  0.248425  0.322110  1
  O  O106  1  0.254954  0.248461  0.320284  1
  O  O107  1  0.244993  0.251562  0.393138  1
  O  O108  1  0.751776  0.251642  0.393017  1
  O  O109  1  0.669657  0.261738  0.368667  1
  O  O110  1  0.306884  0.261658  0.420372  1
  O  O111  1  0.487679  0.261451  0.368864  1
  O  O112  1  0.489287  0.261530  0.420111  1
  O  O113  1  0.010796  0.238412  0.417137  1
  O  O114  1  0.012272  0.238526  0.365259  1
  O  O115  1  0.192357  0.238420  0.365299  1
  O  O116  1  0.830787  0.238450  0.417085  1
  O  O117  1  0.622697  0.316822  0.348135  1
  O  O118  1  0.243290  0.316847  0.313782  1
  O  O119  1  0.256353  0.183169  0.383404  1
  O  O120  1  0.877333  0.183247  0.383168  1
  O  O121  1  0.410881  0.196712  0.385529  1
  O  O122  1  0.695643  0.196793  0.384936  1
  O  O123  1  0.805410  0.303276  0.297992  1
  O  O124  1  0.088299  0.303324  0.360063  1
  O  O125  1  0.887552  0.420965  0.301767  1
  O  O126  1  0.770652  0.421141  0.389944  1
  O  O127  1  0.078903  0.421005  0.389949  1
  O  O128  1  0.579149  0.421176  0.301798  1
  O  O129  1  0.774054  0.366551  0.324130  1
  O  O130  1  0.991841  0.366319  0.352101  1
  O  O131  1  0.176373  0.366625  0.352032  1
  O  O132  1  0.590442  0.366292  0.323914  1
  O  O133  1  0.645864  0.436382  0.350238  1
  O  O134  1  0.982925  0.435658  0.345367  1
  O  O135  1  0.161109  0.436455  0.345878  1
  O  O136  1  0.464847  0.435552  0.350547  1
  O  O137  1  0.848204  0.400695  0.343112  1
  O  O138  1  0.349333  0.400689  0.342779  1
  O  O139  1  0.382285  0.462918  0.396168  1
  O  O140  1  0.192796  0.462849  0.307461  1
  O  O141  1  0.853896  0.481529  0.425935  1
  O  O142  1  0.683543  0.481574  0.425926  1
  O  O143  1  0.830088  0.420022  0.417142  1
  O  O144  1  0.112990  0.578833  0.412479  1
  O  O145  1  0.229645  0.578967  0.324339  1
  O  O146  1  0.921516  0.578853  0.324341  1
  O  O147  1  0.420982  0.579000  0.412509  1
  O  O148  1  0.223966  0.633770  0.390427  1
  O  O149  1  0.007668  0.633512  0.362146  1
  O  O150  1  0.823172  0.633823  0.362088  1
  O  O151  1  0.409342  0.633481  0.390214  1
  O  O152  1  0.354331  0.564569  0.363711  1
  O  O153  1  0.018221  0.563817  0.368523  1
  O  O154  1  0.835626  0.564637  0.369048  1
  O  O155  1  0.534079  0.563716  0.364006  1
  O  O156  1  0.149513  0.599437  0.371507  1
  O  O157  1  0.650628  0.599439  0.371175  1
  O  O158  1  0.618526  0.537110  0.318078  1
  O  O159  1  0.808195  0.537038  0.406754  1
  O  O160  1  0.496807  0.500073  0.357159  1
  O  O161  1  0.997564  0.500216  0.356967  1
  O  O162  1  0.146660  0.518426  0.288347  1
  O  O163  1  0.317093  0.518449  0.288335  1
  O  O164  1  0.170214  0.579959  0.297138  1
  O  O165  1  0.754830  0.748397  0.321207  1
  O  O166  1  0.248586  0.748472  0.321150  1
  O  O167  1  0.251685  0.751599  0.392136  1
  O  O168  1  0.745396  0.751636  0.393983  1
  O  O169  1  0.989041  0.761651  0.297161  1
  O  O170  1  0.987884  0.761730  0.348977  1
  O  O171  1  0.807704  0.761599  0.348993  1
  O  O172  1  0.169361  0.761652  0.297123  1
  O  O173  1  0.331372  0.738534  0.345402  1
  O  O174  1  0.691836  0.738491  0.294124  1
  O  O175  1  0.512397  0.738217  0.345563  1
  O  O176  1  0.511299  0.738332  0.293891  1
  O  O177  1  0.742851  0.816816  0.331066  1
  O  O178  1  0.123715  0.816884  0.330831  1
  O  O179  1  0.376551  0.683176  0.366156  1
  O  O180  1  0.756955  0.683218  0.400425  1
  O  O181  1  0.194650  0.696799  0.416301  1
  O  O182  1  0.912269  0.696823  0.354169  1
  O  O183  1  0.587085  0.803207  0.329317  1
  O  O184  1  0.306585  0.803289  0.328728  1
  O  O185  1  0.078853  0.921104  0.389835  1
  O  O186  1  0.579052  0.921070  0.301871  1
  O  O187  1  0.269989  0.921126  0.389921  1
  O  O188  1  0.387914  0.921159  0.301769  1
  O  O189  1  0.091640  0.866204  0.364258  1
  O  O190  1  0.676114  0.866133  0.311752  1
  O  O191  1  0.491872  0.866623  0.364534  1
  O  O192  1  0.274983  0.866691  0.311611  1
  O  O193  1  0.964857  0.935363  0.373684  1
  O  O194  1  0.664566  0.935295  0.322092  1
  O  O195  1  0.481056  0.936447  0.373775  1
  O  O196  1  0.146140  0.936511  0.322316  1
  O  O197  1  0.849964  0.900067  0.414278  1
  O  O198  1  0.348831  0.901186  0.414434  1
  O  O199  1  0.691774  0.962948  0.351973  1
  O  O200  1  0.882419  0.962926  0.351671  1
  O  O201  1  0.182929  0.981587  0.378828  1
  O  O202  1  0.354027  0.981587  0.330145  1
  O  O203  1  0.329979  0.920063  0.345698  1
  O  O204  1  0.503360  0.999937  0.356115  1
  H  H205  1  0.306884  0.261658  0.264702  1
  H  H206  1  0.489287  0.261530  0.264441  1
  H  H207  1  0.010796  0.238412  0.261466  1
  H  H208  1  0.830787  0.238450  0.261414  1
  H  H209  1  0.770652  0.421141  0.234274  1
  H  H210  1  0.078903  0.421005  0.234279  1
  H  H211  1  0.382285  0.462918  0.240498  1
  H  H212  1  0.112990  0.578833  0.256809  1
  H  H213  1  0.420982  0.579000  0.256839  1
  H  H214  1  0.808195  0.537038  0.251084  1
  H  H215  1  0.251685  0.751599  0.236466  1
  H  H216  1  0.745396  0.751636  0.238313  1
  H  H217  1  0.756955  0.683218  0.244755  1
  H  H218  1  0.194650  0.696799  0.260630  1
  H  H219  1  0.849964  0.900067  0.258607  1
  H  H220  1  0.348831  0.901186  0.258763  1
  H  H221  1  0.151204  0.098814  0.286995  1
  H  H222  1  0.650085  0.099927  0.287148  1
  O  O223  1  0.920619  0.078934  0.467184  1
  O  O224  1  0.421610  0.078908  0.555318  1
  O  O225  1  0.728896  0.078968  0.467260  1
  O  O226  1  0.613305  0.079002  0.555230  1
  O  O227  1  0.910462  0.133390  0.492572  1
  O  O228  1  0.322863  0.133322  0.545480  1
  O  O229  1  0.507593  0.133824  0.492840  1
  O  O230  1  0.724787  0.133894  0.545351  1
  O  O231  1  0.034010  0.063530  0.483318  1
  O  O232  1  0.339069  0.063464  0.534781  1
  O  O233  1  0.516280  0.064614  0.483410  1
  O  O234  1  0.854578  0.064687  0.535003  1
  O  O235  1  0.151204  0.098814  0.442666  1
  O  O236  1  0.650085  0.099927  0.442819  1
  O  O237  1  0.307160  0.037134  0.505428  1
  O  O238  1  0.118642  0.037113  0.505125  1
  Si  Si239  1  0.237086  0.012947  0.501823  1
  O  O240  1  0.996489  0.000018  0.500979  1
  O  O241  1  0.816435  0.018470  0.478269  1
  O  O242  1  0.646763  0.018475  0.526948  1
  O  O243  1  0.670038  0.079999  0.511396  1
  Si  Si244  1  0.008579  0.093906  0.470046  1
  Si  Si245  1  0.303686  0.093851  0.556737  1
  Si  Si246  1  0.605970  0.094507  0.470168  1
  Si  Si247  1  0.705075  0.094563  0.556776  1
  Si  Si248  1  0.413659  0.041959  0.505820  1
  Si  Si249  1  0.002450  0.041995  0.506122  1
  Si  Si250  1  0.378379  0.159323  0.522939  1
  Si  Si251  1  0.802980  0.159401  0.522540  1
  Si  Si252  1  0.792013  0.065080  0.478588  1
  Si  Si253  1  0.577953  0.065085  0.539943  1
  O  O254  1  0.748163  0.248425  0.464968  1
  O  O255  1  0.254954  0.248461  0.463141  1
  O  O256  1  0.244993  0.251562  0.535995  1
  O  O257  1  0.751776  0.251642  0.535874  1
  O  O258  1  0.669657  0.261738  0.511524  1
  O  O259  1  0.306884  0.261658  0.563229  1
  O  O260  1  0.487679  0.261451  0.511721  1
  O  O261  1  0.489287  0.261530  0.562969  1
  O  O262  1  0.010796  0.238412  0.559994  1
  O  O263  1  0.012272  0.238526  0.508116  1
  O  O264  1  0.192357  0.238420  0.508156  1
  O  O265  1  0.830787  0.238450  0.559942  1
  O  O266  1  0.622697  0.316822  0.490992  1
  O  O267  1  0.243290  0.316847  0.456639  1
  O  O268  1  0.256353  0.183169  0.526261  1
  O  O269  1  0.877333  0.183247  0.526025  1
  O  O270  1  0.410881  0.196712  0.528386  1
  O  O271  1  0.695643  0.196793  0.527794  1
  O  O272  1  0.805410  0.303276  0.440849  1
  O  O273  1  0.088299  0.303324  0.502920  1
  Si  Si274  1  0.626738  0.272428  0.496273  1
  Si  Si275  1  0.328293  0.272445  0.438685  1
  Si  Si276  1  0.171496  0.227567  0.532544  1
  Si  Si277  1  0.873323  0.227644  0.532452  1
  Si  Si278  1  0.363022  0.244468  0.535078  1
  Si  Si279  1  0.647930  0.244552  0.534763  1
  Si  Si280  1  0.852464  0.255515  0.434187  1
  Si  Si281  1  0.136529  0.255564  0.495947  1
  O  O282  1  0.887552  0.420965  0.444624  1
  O  O283  1  0.770652  0.421141  0.532802  1
  O  O284  1  0.078903  0.421005  0.532807  1
  O  O285  1  0.579149  0.421176  0.444655  1
  O  O286  1  0.774054  0.366551  0.466987  1
  O  O287  1  0.991841  0.366319  0.494958  1
  O  O288  1  0.176373  0.366625  0.494889  1
  O  O289  1  0.590442  0.366292  0.466771  1
  O  O290  1  0.645864  0.436382  0.493096  1
  O  O291  1  0.982925  0.435658  0.488224  1
  O  O292  1  0.161109  0.436455  0.488735  1
  O  O293  1  0.464847  0.435552  0.493405  1
  O  O294  1  0.848204  0.400695  0.485969  1
  O  O295  1  0.349333  0.400689  0.485636  1
  O  O296  1  0.382285  0.462918  0.539026  1
  O  O297  1  0.192796  0.462849  0.450318  1
  O  O298  1  0.853896  0.481529  0.568792  1
  O  O299  1  0.683543  0.481574  0.568783  1
  O  O300  1  0.830088  0.420022  0.559999  1
  Si  Si301  1  0.794295  0.405920  0.472577  1
  Si  Si302  1  0.893232  0.405767  0.500569  1
  Si  Si303  1  0.196462  0.405970  0.500545  1
  Si  Si304  1  0.491471  0.405729  0.472474  1
  Si  Si305  1  0.496555  0.458070  0.506827  1
  Si  Si306  1  0.086309  0.458105  0.481161  1
  Si  Si307  1  0.697474  0.340667  0.466266  1
  Si  Si308  1  0.120851  0.340707  0.488176  1
  Si  Si309  1  0.922647  0.434906  0.562120  1
  Si  Si310  1  0.707789  0.434977  0.562143  1
  Si  Si311  1  0.263299  0.487077  0.569566  1
  O  O312  1  0.112990  0.578833  0.555336  1
  O  O313  1  0.229645  0.578967  0.467196  1
  O  O314  1  0.921516  0.578853  0.467198  1
  O  O315  1  0.420982  0.579000  0.555366  1
  O  O316  1  0.223966  0.633770  0.533284  1
  O  O317  1  0.007668  0.633512  0.505004  1
  O  O318  1  0.823172  0.633823  0.504945  1
  O  O319  1  0.409342  0.633481  0.533071  1
  O  O320  1  0.354331  0.564569  0.506569  1
  O  O321  1  0.018221  0.563817  0.511380  1
  O  O322  1  0.835626  0.564637  0.511905  1
  O  O323  1  0.534079  0.563716  0.506863  1
  O  O324  1  0.149513  0.599437  0.514364  1
  O  O325  1  0.650628  0.599439  0.514033  1
  O  O326  1  0.618526  0.537110  0.460935  1
  O  O327  1  0.808195  0.537038  0.549611  1
  O  O328  1  0.496807  0.500073  0.500016  1
  O  O329  1  0.997564  0.500216  0.499825  1
  O  O330  1  0.146660  0.518426  0.431204  1
  O  O331  1  0.317093  0.518449  0.431192  1
  O  O332  1  0.170214  0.579959  0.439995  1
  Si  Si333  1  0.204592  0.594317  0.527535  1
  Si  Si334  1  0.106284  0.594138  0.499441  1
  Si  Si335  1  0.802881  0.594389  0.499426  1
  Si  Si336  1  0.508322  0.594133  0.527434  1
  Si  Si337  1  0.502446  0.542034  0.493139  1
  Si  Si338  1  0.912562  0.542066  0.518843  1
  Si  Si339  1  0.301927  0.659374  0.533766  1
  Si  Si340  1  0.879172  0.659406  0.511732  1
  Si  Si341  1  0.077754  0.565024  0.437881  1
  Si  Si342  1  0.292591  0.565068  0.437848  1
  Si  Si343  1  0.737441  0.512911  0.430403  1
  O  O344  1  0.754830  0.748397  0.464064  1
  O  O345  1  0.248586  0.748472  0.464007  1
  O  O346  1  0.251685  0.751599  0.534994  1
  O  O347  1  0.745396  0.751636  0.536840  1
  O  O348  1  0.989041  0.761651  0.440018  1
  O  O349  1  0.987884  0.761730  0.491834  1
  O  O350  1  0.807704  0.761599  0.491850  1
  O  O351  1  0.169361  0.761652  0.439981  1
  O  O352  1  0.331372  0.738534  0.488259  1
  O  O353  1  0.691836  0.738491  0.436981  1
  O  O354  1  0.512397  0.738217  0.488420  1
  O  O355  1  0.511299  0.738332  0.436748  1
  O  O356  1  0.742851  0.816816  0.473924  1
  O  O357  1  0.123715  0.816884  0.473689  1
  O  O358  1  0.376551  0.683176  0.509013  1
  O  O359  1  0.756955  0.683218  0.543282  1
  O  O360  1  0.194650  0.696799  0.559158  1
  O  O361  1  0.912269  0.696823  0.497026  1
  O  O362  1  0.587085  0.803207  0.472174  1
  O  O363  1  0.306585  0.803289  0.471585  1
  Si  Si364  1  0.828359  0.772435  0.467487  1
  Si  Si365  1  0.127016  0.772502  0.467441  1
  Si  Si366  1  0.373356  0.727554  0.503697  1
  Si  Si367  1  0.671685  0.727599  0.561271  1
  Si  Si368  1  0.147462  0.744561  0.565788  1
  Si  Si369  1  0.863760  0.744584  0.504034  1
  Si  Si370  1  0.636061  0.755445  0.465192  1
  Si  Si371  1  0.353195  0.755529  0.464907  1
  O  O372  1  0.078853  0.921104  0.532692  1
  O  O373  1  0.579052  0.921070  0.444728  1
  O  O374  1  0.269989  0.921126  0.532778  1
  O  O375  1  0.387914  0.921159  0.444626  1
  O  O376  1  0.091640  0.866204  0.507116  1
  O  O377  1  0.676114  0.866133  0.454609  1
  O  O378  1  0.491872  0.866623  0.507391  1
  O  O379  1  0.274983  0.866691  0.454468  1
  O  O380  1  0.964857  0.935363  0.516541  1
  O  O381  1  0.664566  0.935295  0.464949  1
  O  O382  1  0.481056  0.936447  0.516632  1
  O  O383  1  0.146140  0.936511  0.465173  1
  O  O384  1  0.849964  0.900067  0.557135  1
  O  O385  1  0.348831  0.901186  0.557291  1
  O  O386  1  0.691774  0.962948  0.494830  1
  O  O387  1  0.882419  0.962926  0.494528  1
  O  O388  1  0.182929  0.981587  0.521685  1
  O  O389  1  0.354027  0.981587  0.473003  1
  O  O390  1  0.329979  0.920063  0.488555  1
  Si  Si391  1  0.991791  0.905500  0.529808  1
  Si  Si392  1  0.697312  0.905441  0.443154  1
  Si  Si393  1  0.392995  0.906127  0.529896  1
  Si  Si394  1  0.294827  0.906182  0.443236  1
  Si  Si395  1  0.587428  0.958002  0.493852  1
  Si  Si396  1  0.996594  0.958035  0.494110  1
  Si  Si397  1  0.620168  0.840627  0.477425  1
  Si  Si398  1  0.198693  0.840702  0.477010  1
  Si  Si399  1  0.207288  0.934979  0.521363  1
  Si  Si400  1  0.422896  0.934979  0.460009  1
  Si  Si401  1  0.762941  0.987112  0.498130  1
  O  O402  1  0.503360  0.999937  0.498972  1
  Si  Si403  1  0.237086  0.012947  0.644680  1
  Si  Si404  1  0.008579  0.093906  0.612904  1
  Si  Si405  1  0.303686  0.093851  0.699594  1
  Si  Si406  1  0.605970  0.094507  0.613025  1
  Si  Si407  1  0.705075  0.094563  0.699633  1
  Si  Si408  1  0.413659  0.041959  0.648678  1
  Si  Si409  1  0.002450  0.041995  0.648979  1
  Si  Si410  1  0.378379  0.159323  0.665796  1
  Si  Si411  1  0.802980  0.159401  0.665397  1
  Si  Si412  1  0.792013  0.065080  0.621445  1
  Si  Si413  1  0.577953  0.065085  0.682801  1
  Si  Si414  1  0.626738  0.272428  0.639130  1
  Si  Si415  1  0.328293  0.272445  0.581542  1
  Si  Si416  1  0.171496  0.227567  0.675401  1
  Si  Si417  1  0.873323  0.227644  0.675310  1
  Si  Si418  1  0.363022  0.244468  0.677935  1
  Si  Si419  1  0.647930  0.244552  0.677620  1
  Si  Si420  1  0.852464  0.255515  0.577044  1
  Si  Si421  1  0.136529  0.255564  0.638804  1
  Si  Si422  1  0.794295  0.405920  0.615435  1
  Si  Si423  1  0.893232  0.405767  0.643426  1
  Si  Si424  1  0.196462  0.405970  0.643402  1
  Si  Si425  1  0.491471  0.405729  0.615331  1
  Si  Si426  1  0.496555  0.458070  0.649684  1
  Si  Si427  1  0.086309  0.458105  0.624019  1
  Si  Si428  1  0.697474  0.340667  0.609123  1
  Si  Si429  1  0.120851  0.340707  0.631033  1
  Si  Si430  1  0.922647  0.434906  0.704977  1
  Si  Si431  1  0.707789  0.434977  0.705001  1
  Si  Si432  1  0.263299  0.487077  0.712423  1
  Si  Si433  1  0.204592  0.594317  0.670393  1
  Si  Si434  1  0.106284  0.594138  0.642298  1
  Si  Si435  1  0.802881  0.594389  0.642283  1
  Si  Si436  1  0.508322  0.594133  0.670291  1
  Si  Si437  1  0.502446  0.542034  0.635997  1
  Si  Si438  1  0.912562  0.542066  0.661700  1
  Si  Si439  1  0.301927  0.659374  0.676623  1
  Si  Si440  1  0.879172  0.659406  0.654589  1
  Si  Si441  1  0.077754  0.565024  0.580738  1
  Si  Si442  1  0.292591  0.565068  0.580705  1
  Si  Si443  1  0.737441  0.512911  0.573260  1
  Si  Si444  1  0.828359  0.772435  0.610344  1
  Si  Si445  1  0.127016  0.772502  0.610298  1
  Si  Si446  1  0.373356  0.727554  0.646554  1
  Si  Si447  1  0.671685  0.727599  0.704128  1
  Si  Si448  1  0.147462  0.744561  0.708646  1
  Si  Si449  1  0.863760  0.744584  0.646891  1
  Si  Si450  1  0.636061  0.755445  0.608049  1
  Si  Si451  1  0.353195  0.755529  0.607765  1
  Si  Si452  1  0.991791  0.905500  0.672665  1
  Si  Si453  1  0.697312  0.905441  0.586012  1
  Si  Si454  1  0.392995  0.906127  0.672754  1
  Si  Si455  1  0.294827  0.906182  0.586093  1
  Si  Si456  1  0.587428  0.958002  0.636709  1
  Si  Si457  1  0.996594  0.958035  0.636967  1
  Si  Si458  1  0.620168  0.840627  0.620282  1
  Si  Si459  1  0.198693  0.840702  0.619867  1
  Si  Si460  1  0.207288  0.934979  0.664220  1
  Si  Si461  1  0.422896  0.934979  0.602866  1
  Si  Si462  1  0.762941  0.987112  0.640987  1
  Si  Si463  1  0.328293  0.272445  0.724399  1
  Si  Si464  1  0.852464  0.255515  0.719902  1
  Si  Si465  1  0.077754  0.565024  0.723595  1
  Si  Si466  1  0.292591  0.565068  0.723562  1
  Si  Si467  1  0.737441  0.512911  0.716117  1
  O  O468  1  0.920619  0.078934  0.610041  1
  O  O469  1  0.421610  0.078908  0.698176  1
  O  O470  1  0.728896  0.078968  0.610117  1
  O  O471  1  0.613305  0.079002  0.698087  1
  O  O472  1  0.910462  0.133390  0.635429  1
  O  O473  1  0.322863  0.133322  0.688337  1
  O  O474  1  0.507593  0.133824  0.635697  1
  O  O475  1  0.724787  0.133894  0.688208  1
  O  O476  1  0.034010  0.063530  0.626176  1
  O  O477  1  0.339069  0.063464  0.677638  1
  O  O478  1  0.516280  0.064614  0.626267  1
  O  O479  1  0.854578  0.064687  0.677860  1
  O  O480  1  0.151204  0.098814  0.585523  1
  O  O481  1  0.650085  0.099927  0.585676  1
  O  O482  1  0.307160  0.037134  0.648285  1
  O  O483  1  0.118642  0.037113  0.647982  1
  O  O484  1  0.996489  0.000018  0.643836  1
  O  O485  1  0.816435  0.018470  0.621126  1
  O  O486  1  0.646763  0.018475  0.669805  1
  O  O487  1  0.670038  0.079999  0.654253  1
  O  O488  1  0.748163  0.248425  0.607825  1
  O  O489  1  0.254954  0.248461  0.605998  1
  O  O490  1  0.244993  0.251562  0.678852  1
  O  O491  1  0.751776  0.251642  0.678731  1
  O  O492  1  0.669657  0.261738  0.654381  1
  O  O493  1  0.306884  0.261658  0.706087  1
  O  O494  1  0.487679  0.261451  0.654578  1
  O  O495  1  0.489287  0.261530  0.705826  1
  O  O496  1  0.010796  0.238412  0.702851  1
  O  O497  1  0.012272  0.238526  0.650973  1
  O  O498  1  0.192357  0.238420  0.651013  1
  O  O499  1  0.830787  0.238450  0.702799  1
  O  O500  1  0.622697  0.316822  0.633850  1
  O  O501  1  0.243290  0.316847  0.599497  1
  O  O502  1  0.256353  0.183169  0.669118  1
  O  O503  1  0.877333  0.183247  0.668882  1
  O  O504  1  0.410881  0.196712  0.671244  1
  O  O505  1  0.695643  0.196793  0.670651  1
  O  O506  1  0.805410  0.303276  0.583706  1
  O  O507  1  0.088299  0.303324  0.645778  1
  O  O508  1  0.887552  0.420965  0.587481  1
  O  O509  1  0.770652  0.421141  0.675659  1
  O  O510  1  0.078903  0.421005  0.675664  1
  O  O511  1  0.579149  0.421176  0.587512  1
  O  O512  1  0.774054  0.366551  0.609844  1
  O  O513  1  0.991841  0.366319  0.637815  1
  O  O514  1  0.176373  0.366625  0.637746  1
  O  O515  1  0.590442  0.366292  0.609628  1
  O  O516  1  0.645864  0.436382  0.635953  1
  O  O517  1  0.982925  0.435658  0.631081  1
  O  O518  1  0.161109  0.436455  0.631592  1
  O  O519  1  0.464847  0.435552  0.636262  1
  O  O520  1  0.848204  0.400695  0.628826  1
  O  O521  1  0.349333  0.400689  0.628493  1
  O  O522  1  0.382285  0.462918  0.681883  1
  O  O523  1  0.192796  0.462849  0.593175  1
  O  O524  1  0.853896  0.481529  0.711649  1
  O  O525  1  0.683543  0.481574  0.711640  1
  O  O526  1  0.830088  0.420022  0.702856  1
  O  O527  1  0.112990  0.578833  0.698194  1
  O  O528  1  0.229645  0.578967  0.610054  1
  O  O529  1  0.921516  0.578853  0.610055  1
  O  O530  1  0.420982  0.579000  0.698224  1
  O  O531  1  0.223966  0.633770  0.676141  1
  O  O532  1  0.007668  0.633512  0.647861  1
  O  O533  1  0.823172  0.633823  0.647802  1
  O  O534  1  0.409342  0.633481  0.675928  1
  O  O535  1  0.354331  0.564569  0.649426  1
  O  O536  1  0.018221  0.563817  0.654237  1
  O  O537  1  0.835626  0.564637  0.654762  1
  O  O538  1  0.534079  0.563716  0.649720  1
  O  O539  1  0.149513  0.599437  0.657221  1
  O  O540  1  0.650628  0.599439  0.656890  1
  O  O541  1  0.618526  0.537110  0.603792  1
  O  O542  1  0.808195  0.537038  0.692469  1
  O  O543  1  0.496807  0.500073  0.642873  1
  O  O544  1  0.997564  0.500216  0.642682  1
  O  O545  1  0.146660  0.518426  0.574061  1
  O  O546  1  0.317093  0.518449  0.574050  1
  O  O547  1  0.170214  0.579959  0.582852  1
  O  O548  1  0.754830  0.748397  0.606922  1
  O  O549  1  0.248586  0.748472  0.606864  1
  O  O550  1  0.251685  0.751599  0.677851  1
  O  O551  1  0.745396  0.751636  0.679698  1
  O  O552  1  0.989041  0.761651  0.582875  1
  O  O553  1  0.987884  0.761730  0.634691  1
  O  O554  1  0.807704  0.761599  0.634707  1
  O  O555  1  0.169361  0.761652  0.582838  1
  O  O556  1  0.331372  0.738534  0.631116  1
  O  O557  1  0.691836  0.738491  0.579838  1
  O  O558  1  0.512397  0.738217  0.631277  1
  O  O559  1  0.511299  0.738332  0.579606  1
  O  O560  1  0.742851  0.816816  0.616781  1
  O  O561  1  0.123715  0.816884  0.616546  1
  O  O562  1  0.376551  0.683176  0.651870  1
  O  O563  1  0.756955  0.683218  0.686140  1
  O  O564  1  0.194650  0.696799  0.702015  1
  O  O565  1  0.912269  0.696823  0.639883  1
  O  O566  1  0.587085  0.803207  0.615031  1
  O  O567  1  0.306585  0.803289  0.614443  1
  O  O568  1  0.078853  0.921104  0.675549  1
  O  O569  1  0.579052  0.921070  0.587585  1
  O  O570  1  0.269989  0.921126  0.675635  1
  O  O571  1  0.387914  0.921159  0.587483  1
  O  O572  1  0.091640  0.866204  0.649973  1
  O  O573  1  0.676114  0.866133  0.597466  1
  O  O574  1  0.491872  0.866623  0.650248  1
  O  O575  1  0.274983  0.866691  0.597325  1
  O  O576  1  0.964857  0.935363  0.659398  1
  O  O577  1  0.664566  0.935295  0.607806  1
  O  O578  1  0.481056  0.936447  0.659489  1
  O  O579  1  0.146140  0.936511  0.608031  1
  O  O580  1  0.849964  0.900067  0.699992  1
  O  O581  1  0.348831  0.901186  0.700148  1
  O  O582  1  0.691774  0.962948  0.637687  1
  O  O583  1  0.882419  0.962926  0.637385  1
  O  O584  1  0.182929  0.981587  0.664542  1
  O  O585  1  0.354027  0.981587  0.615860  1
  O  O586  1  0.329979  0.920063  0.631412  1
  O  O587  1  0.503360  0.999937  0.641829  1
  O  O588  1  0.151204  0.098814  0.728380  1
  O  O589  1  0.650085  0.099927  0.728533  1
  O  O590  1  0.748163  0.248425  0.750682  1
  O  O591  1  0.254954  0.248461  0.748855  1
  O  O592  1  0.243290  0.316847  0.742354  1
  O  O593  1  0.805410  0.303276  0.726563  1
  O  O594  1  0.887552  0.420965  0.730338  1
  O  O595  1  0.579149  0.421176  0.730369  1
  O  O596  1  0.192796  0.462849  0.736032  1
  O  O597  1  0.229645  0.578967  0.752911  1
  O  O598  1  0.921516  0.578853  0.752912  1
  O  O599  1  0.618526  0.537110  0.746649  1
  O  O600  1  0.146660  0.518426  0.716918  1
  O  O601  1  0.317093  0.518449  0.716907  1
  O  O602  1  0.170214  0.579959  0.725710  1
  O  O603  1  0.989041  0.761651  0.725732  1
  O  O604  1  0.169361  0.761652  0.725695  1
  O  O605  1  0.691836  0.738491  0.722695  1
  O  O606  1  0.511299  0.738332  0.722463  1
  H  H607  1  0.849964  0.900067  0.712806  1
  H  H608  1  0.348831  0.901186  0.712962  1
  H  H609  1  0.151204  0.098814  0.741194  1
  H  H610  1  0.650085  0.099927  0.741347  1
  H  H611  1  0.748163  0.248425  0.763495  1
  H  H612  1  0.254954  0.248461  0.761669  1
  H  H613  1  0.243290  0.316847  0.755167  1
  H  H614  1  0.805410  0.303276  0.739377  1
  H  H615  1  0.887552  0.420965  0.743152  1
  H  H616  1  0.579149  0.421176  0.743183  1
  H  H617  1  0.192796  0.462849  0.748846  1
  H  H618  1  0.229645  0.578967  0.765724  1
  H  H619  1  0.921516  0.578853  0.765726  1
  H  H620  1  0.618526  0.537110  0.759463  1
  H  H621  1  0.989041  0.761651  0.738546  1
  H  H622  1  0.169361  0.761652  0.738508  1
  H  H623  1  0.691836  0.738491  0.735509  1
  H  H624  1  0.511299  0.738332  0.735276  1
