# generated using pymatgen
data_Si14H2O29
_symmetry_space_group_name_H-M   'P 1'
_cell_length_a   7.16200173
_cell_length_b   7.16174636
_cell_length_c   55.19783049
_cell_angle_alpha   90.00000000
_cell_angle_beta   90.00000000
_cell_angle_gamma   90.00000000
_symmetry_Int_Tables_number   1
_chemical_formula_structural   Si14H2O29
_chemical_formula_sum   'Si28 H4 O58'
_cell_volume   2831.23139837
_cell_formula_units_Z   2
loop_
 _symmetry_equiv_pos_site_id
 _symmetry_equiv_pos_as_xyz
  1  'x, y, z'
loop_
 _atom_site_type_symbol
 _atom_site_label
 _atom_site_symmetry_multiplicity
 _atom_site_fract_x
 _atom_site_fract_y
 _atom_site_fract_z
 _atom_site_occupancy
  O  O1  1  0.503359  0.324988  0.107911  1
  O  O2  1  0.503665  0.667967  0.106888  1
  O  O3  1  0.326506  0.997833  0.296701  1
  O  O4  1  0.829852  0.499302  0.673691  1
  O  O5  1  0.172877  0.502937  0.673558  1
  O  O6  1  0.669400  0.997966  0.295490  1
  O  O7  1  0.001597  0.831682  0.484238  1
  O  O8  1  0.003392  0.174634  0.485368  1
  O  O9  1  0.172775  0.996334  0.522695  1
  O  O10  1  0.669472  0.500711  0.145791  1
  O  O11  1  0.326566  0.500824  0.144612  1
  O  O12  1  0.829774  0.000000  0.522525  1
  O  O13  1  0.503965  0.831690  0.334462  1
  O  O14  1  0.003102  0.325098  0.710921  1
  O  O15  1  0.001323  0.668072  0.711945  1
  O  O16  1  0.503612  0.174641  0.333326  1
  O  O17  1  0.166960  0.817654  0.260304  1
  O  O18  1  0.677167  0.320875  0.636433  1
  O  O19  1  0.324078  0.680984  0.636294  1
  O  O20  1  0.814548  0.177846  0.258034  1
  O  O21  1  0.182506  0.686142  0.446871  1
  O  O22  1  0.822565  0.333684  0.448969  1
  O  O23  1  0.323810  0.819178  0.560039  1
  O  O24  1  0.814815  0.319900  0.183180  1
  O  O25  1  0.167236  0.680112  0.181077  1
  O  O26  1  0.676819  0.179426  0.559662  1
  O  O27  1  0.323718  0.686205  0.371841  1
  O  O28  1  0.683875  0.333723  0.369753  1
  O  O29  1  0.814735  0.679531  0.183243  1
  O  O30  1  0.324244  0.179498  0.559316  1
  O  O31  1  0.676454  0.819050  0.559166  1
  O  O32  1  0.167217  0.319360  0.181012  1
  O  O33  1  0.323141  0.333682  0.369792  1
  O  O34  1  0.683333  0.686142  0.371906  1
  O  O35  1  0.676754  0.681101  0.637121  1
  O  O36  1  0.166998  0.178399  0.260249  1
  O  O37  1  0.814508  0.818212  0.258092  1
  O  O38  1  0.324456  0.320785  0.636822  1
  O  O39  1  0.183311  0.333697  0.448879  1
  O  O40  1  0.822891  0.686164  0.446775  1
  O  O41  1  0.489710  0.997954  0.257633  1
  O  O42  1  -0.000000  0.500997  0.635146  1
  O  O43  1  0.002817  0.010880  0.446340  1
  O  O44  1  0.000000  0.000000  0.561086  1
  O  O45  1  0.490000  0.499722  0.183664  1
  O  O46  1  0.503605  0.010900  0.372357  1
  O  O47  1  0.991848  -0.000000  0.187605  1
  O  O48  1  0.500497  0.499386  0.565114  1
  O  O49  1  0.003420  0.509124  0.376308  1
  O  O50  1  0.500765  0.000000  0.631252  1
  O  O51  1  0.991644  0.498137  0.253696  1
  O  O52  1  0.502841  0.509110  0.442392  1
  O  O53  1  0.006608  0.249063  0.220625  1
  O  O54  1  0.507956  0.750072  0.598159  1
  O  O55  1  0.495889  0.248778  0.598074  1
  O  O56  1  0.006377  0.749057  0.220676  1
  O  O57  1  0.753150  0.494421  0.409359  1
  O  O58  1  0.253191  0.495346  0.409340  1
  Si  Si59  1  0.279257  0.998046  0.268111  1
  Si  Si60  1  0.788200  0.500209  0.644935  1
  Si  Si61  1  0.213190  0.501529  0.644767  1
  Si  Si62  1  0.704136  0.998088  0.266558  1
  Si  Si63  1  0.002533  0.796579  0.455313  1
  Si  Si64  1  0.003063  0.221456  0.456770  1
  Si  Si65  1  0.212922  0.998431  0.551486  1
  Si  Si66  1  0.704361  0.499823  0.174718  1
  Si  Si67  1  0.279501  0.499869  0.173206  1
  Si  Si68  1  0.787930  -0.000000  0.551274  1
  Si  Si69  1  0.503668  0.796593  0.363386  1
  Si  Si70  1  0.503495  0.221487  0.361927  1
  Si  Si71  1  0.994710  0.215812  0.192710  1
  Si  Si72  1  0.501585  0.715561  0.570248  1
  Si  Si73  1  0.500007  0.283124  0.570159  1
  Si  Si74  1  0.994658  0.783425  0.192778  1
  Si  Si75  1  0.787262  0.506263  0.381458  1
  Si  Si76  1  0.219620  0.506488  0.381423  1
  Si  Si77  1  0.500219  0.216919  0.626036  1
  Si  Si78  1  0.994496  0.714357  0.248566  1
  Si  Si79  1  0.994540  0.281965  0.248545  1
  Si  Si80  1  0.501789  0.784656  0.626072  1
  Si  Si81  1  0.719023  0.506140  0.437259  1
  Si  Si82  1  0.286659  0.506560  0.437251  1
  Si  Si83  1  0.501937  0.000000  0.314996  1
  Si  Si84  1  0.001827  0.499913  0.692534  1
  Si  Si85  1  0.001875  0.000000  0.503701  1
  Si  Si86  1  0.501885  0.499800  0.126300  1
  H  H87  1  0.503359  0.324988  0.091606  1
  H  H88  1  0.503665  0.667967  0.090583  1
  H  H89  1  0.003102  0.325098  0.727226  1
  H  H90  1  0.001323  0.668072  0.728250  1
