# generated using pymatgen
data_Si107(HO54)4
_symmetry_space_group_name_H-M   'P 1'
_cell_length_a   7.16200173
_cell_length_b   7.16174636
_cell_length_c   144.79132649
_cell_angle_alpha   90.00000000
_cell_angle_beta   90.00000000
_cell_angle_gamma   90.00000000
_symmetry_Int_Tables_number   1
_chemical_formula_structural   Si107(HO54)4
_chemical_formula_sum   'Si107 H4 O216'
_cell_volume   7426.70040066
_cell_formula_units_Z   1
loop_
 _symmetry_equiv_pos_site_id
 _symmetry_equiv_pos_as_xyz
  1  'x, y, z'
loop_
 _atom_site_type_symbol
 _atom_site_label
 _atom_site_symmetry_multiplicity
 _atom_site_fract_x
 _atom_site_fract_y
 _atom_site_fract_z
 _atom_site_occupancy
  O  O1  1  0.326506  0.997833  0.098728  1
  O  O2  1  0.829852  0.499302  0.242445  1
  O  O3  1  0.172877  0.502937  0.242395  1
  O  O4  1  0.669400  0.997966  0.098266  1
  O  O5  1  0.001597  0.831682  0.170222  1
  O  O6  1  0.503359  0.324988  0.314567  1
  O  O7  1  0.503665  0.667967  0.314177  1
  O  O8  1  0.003392  0.174634  0.170652  1
  O  O9  1  0.172775  0.996334  0.184882  1
  O  O10  1  0.669472  0.500711  0.041198  1
  O  O11  1  0.326566  0.500824  0.040748  1
  O  O12  1  0.829774  0.000000  0.184817  1
  O  O13  1  0.503965  0.831690  0.113124  1
  O  O14  1  0.003102  0.325098  0.256639  1
  O  O15  1  0.001323  0.668072  0.257029  1
  O  O16  1  0.503612  0.174641  0.112690  1
  O  O17  1  0.166960  0.817654  0.084853  1
  O  O18  1  0.677167  0.320875  0.228242  1
  O  O19  1  0.324078  0.680984  0.228189  1
  O  O20  1  0.814548  0.177846  0.083987  1
  O  O21  1  0.182506  0.686142  0.155976  1
  O  O22  1  0.683146  0.166594  0.300654  1
  O  O23  1  0.322945  0.814090  0.299948  1
  O  O24  1  0.822565  0.333684  0.156776  1
  O  O25  1  0.323810  0.819178  0.199119  1
  O  O26  1  0.814815  0.319900  0.055451  1
  O  O27  1  0.167236  0.680112  0.054650  1
  O  O28  1  0.676819  0.179426  0.198975  1
  O  O29  1  0.323718  0.686205  0.127373  1
  O  O30  1  0.821810  0.166695  0.270518  1
  O  O31  1  0.181776  0.814211  0.271274  1
  O  O32  1  0.683875  0.333723  0.126577  1
  O  O33  1  0.814735  0.679531  0.055475  1
  O  O34  1  0.324244  0.179498  0.198843  1
  O  O35  1  0.676454  0.819050  0.198786  1
  O  O36  1  0.167217  0.319360  0.054625  1
  O  O37  1  0.822119  0.814200  0.271286  1
  O  O38  1  0.323141  0.333682  0.126592  1
  O  O39  1  0.683333  0.686142  0.127398  1
  O  O40  1  0.182575  0.166712  0.270575  1
  O  O41  1  0.676754  0.681101  0.228504  1
  O  O42  1  0.166998  0.178399  0.084832  1
  O  O43  1  0.814508  0.818212  0.084010  1
  O  O44  1  0.324456  0.320785  0.228390  1
  O  O45  1  0.682580  0.814113  0.299900  1
  O  O46  1  0.183311  0.333697  0.156742  1
  O  O47  1  0.822891  0.686164  0.155940  1
  O  O48  1  0.322362  0.166590  0.300667  1
  O  O49  1  0.489710  0.997954  0.083835  1
  O  O50  1  0.000000  0.500997  0.227751  1
  O  O51  1  0.002817  0.010880  0.155774  1
  O  O52  1  0.502807  0.489533  0.299708  1
  O  O53  1  0.000000  0.000000  0.199518  1
  O  O54  1  0.490000  0.499722  0.055636  1
  O  O55  1  0.503605  0.010900  0.127570  1
  O  O56  1  0.002026  0.489629  0.271498  1
  O  O57  1  0.991848  0.000000  0.057138  1
  O  O58  1  0.500497  0.499386  0.201054  1
  O  O59  1  0.003420  0.509124  0.129076  1
  O  O60  1  0.502053  0.991162  0.273004  1
  O  O61  1  0.500765  0.000000  0.226267  1
  O  O62  1  0.991644  0.498137  0.082333  1
  O  O63  1  0.502841  0.509110  0.154269  1
  O  O64  1  0.002677  0.991054  0.298200  1
  O  O65  1  0.006608  0.249063  0.069726  1
  O  O66  1  0.507956  0.750072  0.213651  1
  O  O67  1  0.495889  0.248778  0.213618  1
  O  O68  1  0.006377  0.749057  0.069745  1
  O  O69  1  0.753150  0.494421  0.141676  1
  O  O70  1  0.252609  0.003856  0.285617  1
  O  O71  1  0.752596  0.004843  0.285589  1
  O  O72  1  0.253191  0.495346  0.141669  1
  O  O73  1  0.326506  0.997833  0.386538  1
  O  O74  1  0.829852  0.499302  0.530255  1
  O  O75  1  0.172877  0.502937  0.530205  1
  O  O76  1  0.669400  0.997966  0.386076  1
  O  O77  1  0.001597  0.831682  0.458032  1
  O  O78  1  0.503359  0.324988  0.602377  1
  O  O79  1  0.503665  0.667967  0.601987  1
  O  O80  1  0.003392  0.174634  0.458462  1
  O  O81  1  0.172775  0.996334  0.472692  1
  O  O82  1  0.669472  0.500711  0.329008  1
  O  O83  1  0.326566  0.500824  0.328558  1
  O  O84  1  0.829774  0.000000  0.472627  1
  O  O85  1  0.503965  0.831690  0.400934  1
  O  O86  1  0.003102  0.325098  0.544448  1
  O  O87  1  0.001323  0.668072  0.544839  1
  O  O88  1  0.503612  0.174641  0.400500  1
  O  O89  1  0.166960  0.817654  0.372663  1
  O  O90  1  0.677167  0.320875  0.516052  1
  O  O91  1  0.324078  0.680984  0.515999  1
  O  O92  1  0.814548  0.177846  0.371797  1
  O  O93  1  0.182506  0.686142  0.443786  1
  O  O94  1  0.683146  0.166594  0.588464  1
  O  O95  1  0.322945  0.814090  0.587758  1
  O  O96  1  0.822565  0.333684  0.444586  1
  O  O97  1  0.323810  0.819178  0.486929  1
  O  O98  1  0.814815  0.319900  0.343261  1
  O  O99  1  0.167236  0.680112  0.342459  1
  O  O100  1  0.676819  0.179426  0.486785  1
  O  O101  1  0.323718  0.686205  0.415183  1
  O  O102  1  0.821810  0.166695  0.558328  1
  O  O103  1  0.181776  0.814211  0.559084  1
  O  O104  1  0.683875  0.333723  0.414387  1
  O  O105  1  0.814735  0.679531  0.343285  1
  O  O106  1  0.324244  0.179498  0.486653  1
  O  O107  1  0.676454  0.819050  0.486596  1
  O  O108  1  0.167217  0.319360  0.342435  1
  O  O109  1  0.822119  0.814200  0.559096  1
  O  O110  1  0.323141  0.333682  0.414402  1
  O  O111  1  0.683333  0.686142  0.415208  1
  O  O112  1  0.182575  0.166712  0.558385  1
  O  O113  1  0.676754  0.681101  0.516314  1
  O  O114  1  0.166998  0.178399  0.372642  1
  O  O115  1  0.814508  0.818212  0.371820  1
  O  O116  1  0.324456  0.320785  0.516200  1
  O  O117  1  0.682580  0.814113  0.587710  1
  O  O118  1  0.183311  0.333697  0.444552  1
  O  O119  1  0.822891  0.686164  0.443750  1
  O  O120  1  0.322362  0.166590  0.588477  1
  O  O121  1  0.489710  0.997954  0.371645  1
  O  O122  1  -0.000000  0.500997  0.515561  1
  O  O123  1  0.002817  0.010880  0.443584  1
  O  O124  1  0.502807  0.489533  0.587518  1
  O  O125  1  0.000000  0.000000  0.487328  1
  O  O126  1  0.490000  0.499722  0.343446  1
  O  O127  1  0.503605  0.010900  0.415380  1
  O  O128  1  0.002026  0.489629  0.559308  1
  O  O129  1  0.991848  -0.000000  0.344948  1
  O  O130  1  0.500497  0.499386  0.488863  1
  O  O131  1  0.003420  0.509124  0.416886  1
  O  O132  1  0.502053  0.991162  0.560814  1
  O  O133  1  0.500765  0.000000  0.514076  1
  O  O134  1  0.991644  0.498137  0.370143  1
  O  O135  1  0.502841  0.509110  0.442079  1
  O  O136  1  0.002677  0.991054  0.586010  1
  O  O137  1  0.006608  0.249063  0.357536  1
  O  O138  1  0.507956  0.750072  0.501461  1
  O  O139  1  0.495889  0.248778  0.501428  1
  O  O140  1  0.006377  0.749057  0.357555  1
  O  O141  1  0.753150  0.494421  0.429486  1
  O  O142  1  0.252609  0.003856  0.573427  1
  O  O143  1  0.752596  0.004843  0.573399  1
  O  O144  1  0.253191  0.495346  0.429478  1
  O  O145  1  0.326506  0.997833  0.674348  1
  O  O146  1  0.829852  0.499302  0.818065  1
  O  O147  1  0.172877  0.502937  0.818015  1
  O  O148  1  0.669400  0.997966  0.673886  1
  O  O149  1  0.001597  0.831682  0.745841  1
  O  O150  1  0.503359  0.324988  0.890187  1
  O  O151  1  0.503665  0.667967  0.889797  1
  O  O152  1  0.003392  0.174634  0.746272  1
  O  O153  1  0.172775  0.996334  0.760502  1
  O  O154  1  0.669472  0.500711  0.616817  1
  O  O155  1  0.326566  0.500824  0.616368  1
  O  O156  1  0.829774  0.000000  0.760437  1
  O  O157  1  0.503965  0.831690  0.688743  1
  O  O158  1  0.003102  0.325098  0.832258  1
  O  O159  1  0.001323  0.668072  0.832649  1
  O  O160  1  0.503612  0.174641  0.688310  1
  O  O161  1  0.166960  0.817654  0.660472  1
  O  O162  1  0.677167  0.320875  0.803862  1
  O  O163  1  0.324078  0.680984  0.803809  1
  O  O164  1  0.814548  0.177846  0.659607  1
  O  O165  1  0.182506  0.686142  0.731596  1
  O  O166  1  0.683146  0.166594  0.876274  1
  O  O167  1  0.322945  0.814090  0.875568  1
  O  O168  1  0.822565  0.333684  0.732396  1
  O  O169  1  0.323810  0.819178  0.774738  1
  O  O170  1  0.814815  0.319900  0.631071  1
  O  O171  1  0.167236  0.680112  0.630269  1
  O  O172  1  0.676819  0.179426  0.774595  1
  O  O173  1  0.323718  0.686205  0.702993  1
  O  O174  1  0.821810  0.166695  0.846138  1
  O  O175  1  0.181776  0.814211  0.846894  1
  O  O176  1  0.683875  0.333723  0.702197  1
  O  O177  1  0.814735  0.679531  0.631095  1
  O  O178  1  0.324244  0.179498  0.774463  1
  O  O179  1  0.676454  0.819050  0.774406  1
  O  O180  1  0.167217  0.319360  0.630245  1
  O  O181  1  0.822119  0.814200  0.846906  1
  O  O182  1  0.323141  0.333682  0.702212  1
  O  O183  1  0.683333  0.686142  0.703018  1
  O  O184  1  0.182575  0.166712  0.846195  1
  O  O185  1  0.676754  0.681101  0.804124  1
  O  O186  1  0.166998  0.178399  0.660452  1
  O  O187  1  0.814508  0.818212  0.659629  1
  O  O188  1  0.324456  0.320785  0.804010  1
  O  O189  1  0.682580  0.814113  0.875520  1
  O  O190  1  0.183311  0.333697  0.732362  1
  O  O191  1  0.822891  0.686164  0.731559  1
  O  O192  1  0.322362  0.166590  0.876287  1
  O  O193  1  0.489710  0.997954  0.659454  1
  O  O194  1  0.000000  0.500997  0.803371  1
  O  O195  1  0.002817  0.010880  0.731394  1
  O  O196  1  0.502807  0.489533  0.875328  1
  O  O197  1  0.000000  0.000000  0.775138  1
  O  O198  1  0.490000  0.499722  0.631256  1
  O  O199  1  0.503605  0.010900  0.703190  1
  O  O200  1  0.002026  0.489629  0.847118  1
  O  O201  1  0.991848  -0.000000  0.632758  1
  O  O202  1  0.500497  0.499386  0.776673  1
  O  O203  1  0.003420  0.509124  0.704696  1
  O  O204  1  0.502053  0.991162  0.848624  1
  O  O205  1  0.500765  0.000000  0.801886  1
  O  O206  1  0.991644  0.498137  0.657953  1
  O  O207  1  0.502841  0.509110  0.729889  1
  O  O208  1  0.002677  0.991054  0.873820  1
  O  O209  1  0.006608  0.249063  0.645346  1
  O  O210  1  0.507956  0.750072  0.789271  1
  O  O211  1  0.495889  0.248778  0.789238  1
  O  O212  1  0.006377  0.749057  0.645365  1
  O  O213  1  0.753150  0.494421  0.717296  1
  O  O214  1  0.252609  0.003856  0.861237  1
  O  O215  1  0.752596  0.004843  0.861209  1
  O  O216  1  0.253191  0.495346  0.717288  1
  Si  Si217  1  0.279257  0.998046  0.087829  1
  Si  Si218  1  0.788200  0.500209  0.231483  1
  Si  Si219  1  0.213190  0.501529  0.231419  1
  Si  Si220  1  0.704136  0.998088  0.087237  1
  Si  Si221  1  0.002533  0.796579  0.159195  1
  Si  Si222  1  0.502829  0.278744  0.303657  1
  Si  Si223  1  0.502979  0.703656  0.303156  1
  Si  Si224  1  0.003063  0.221456  0.159750  1
  Si  Si225  1  0.212922  0.998431  0.195858  1
  Si  Si226  1  0.704361  0.499823  0.052225  1
  Si  Si227  1  0.279501  0.499869  0.051649  1
  Si  Si228  1  0.787930  -0.000000  0.195777  1
  Si  Si229  1  0.503668  0.796593  0.124150  1
  Si  Si230  1  0.002410  0.278839  0.267549  1
  Si  Si231  1  0.001879  0.703760  0.268050  1
  Si  Si232  1  0.503495  0.221487  0.123594  1
  Si  Si233  1  0.994710  0.215812  0.059084  1
  Si  Si234  1  0.501585  0.715561  0.203011  1
  Si  Si235  1  0.500007  0.283124  0.202977  1
  Si  Si236  1  0.994658  0.783425  0.059110  1
  Si  Si237  1  0.787262  0.506263  0.131039  1
  Si  Si238  1  0.285920  0.993483  0.274973  1
  Si  Si239  1  0.718278  0.993908  0.274953  1
  Si  Si240  1  0.219620  0.506488  0.131026  1
  Si  Si241  1  0.500219  0.216919  0.224278  1
  Si  Si242  1  0.994496  0.714357  0.080378  1
  Si  Si243  1  0.994540  0.281965  0.080370  1
  Si  Si244  1  0.501789  0.784656  0.224292  1
  Si  Si245  1  0.719023  0.506140  0.152312  1
  Si  Si246  1  0.218898  0.993497  0.296257  1
  Si  Si247  1  0.786548  0.993695  0.296228  1
  Si  Si248  1  0.286659  0.506560  0.152309  1
  Si  Si249  1  0.501937  0.000000  0.105703  1
  Si  Si250  1  0.001827  0.499913  0.249629  1
  Si  Si251  1  0.001875  -0.000000  0.177641  1
  Si  Si252  1  0.279257  0.998046  0.375639  1
  Si  Si253  1  0.788200  0.500209  0.519293  1
  Si  Si254  1  0.213190  0.501529  0.519229  1
  Si  Si255  1  0.704136  0.998088  0.375047  1
  Si  Si256  1  0.002533  0.796579  0.447005  1
  Si  Si257  1  0.502829  0.278744  0.591467  1
  Si  Si258  1  0.502979  0.703656  0.590966  1
  Si  Si259  1  0.003063  0.221456  0.447560  1
  Si  Si260  1  0.212922  0.998431  0.483668  1
  Si  Si261  1  0.704361  0.499823  0.340035  1
  Si  Si262  1  0.279501  0.499869  0.339459  1
  Si  Si263  1  0.787930  0.000000  0.483587  1
  Si  Si264  1  0.503668  0.796593  0.411960  1
  Si  Si265  1  0.002410  0.278839  0.555359  1
  Si  Si266  1  0.001879  0.703760  0.555860  1
  Si  Si267  1  0.503495  0.221487  0.411404  1
  Si  Si268  1  0.994710  0.215812  0.346894  1
  Si  Si269  1  0.501585  0.715561  0.490821  1
  Si  Si270  1  0.500007  0.283124  0.490787  1
  Si  Si271  1  0.994658  0.783425  0.346920  1
  Si  Si272  1  0.787262  0.506263  0.418849  1
  Si  Si273  1  0.285920  0.993483  0.562783  1
  Si  Si274  1  0.718278  0.993908  0.562763  1
  Si  Si275  1  0.219620  0.506488  0.418836  1
  Si  Si276  1  0.500219  0.216919  0.512088  1
  Si  Si277  1  0.994496  0.714357  0.368188  1
  Si  Si278  1  0.994540  0.281965  0.368180  1
  Si  Si279  1  0.501789  0.784656  0.512102  1
  Si  Si280  1  0.719023  0.506140  0.440122  1
  Si  Si281  1  0.218898  0.993497  0.584067  1
  Si  Si282  1  0.786548  0.993695  0.584038  1
  Si  Si283  1  0.286659  0.506560  0.440119  1
  Si  Si284  1  0.501937  -0.000000  0.393513  1
  Si  Si285  1  0.001827  0.499913  0.537439  1
  Si  Si286  1  0.001875  0.000000  0.465451  1
  Si  Si287  1  0.501885  0.499800  0.321577  1
  Si  Si288  1  0.279257  0.998046  0.663449  1
  Si  Si289  1  0.788200  0.500209  0.807103  1
  Si  Si290  1  0.213190  0.501529  0.807039  1
  Si  Si291  1  0.704136  0.998088  0.662857  1
  Si  Si292  1  0.002533  0.796579  0.734815  1
  Si  Si293  1  0.502829  0.278744  0.879277  1
  Si  Si294  1  0.502979  0.703656  0.878776  1
  Si  Si295  1  0.003063  0.221456  0.735370  1
  Si  Si296  1  0.212922  0.998431  0.771478  1
  Si  Si297  1  0.704361  0.499823  0.627845  1
  Si  Si298  1  0.279501  0.499869  0.627269  1
  Si  Si299  1  0.787930  0.000000  0.771397  1
  Si  Si300  1  0.503668  0.796593  0.699770  1
  Si  Si301  1  0.002410  0.278839  0.843168  1
  Si  Si302  1  0.001879  0.703760  0.843670  1
  Si  Si303  1  0.503495  0.221487  0.699214  1
  Si  Si304  1  0.994710  0.215812  0.634704  1
  Si  Si305  1  0.501585  0.715561  0.778631  1
  Si  Si306  1  0.500007  0.283124  0.778597  1
  Si  Si307  1  0.994658  0.783425  0.634730  1
  Si  Si308  1  0.787262  0.506263  0.706659  1
  Si  Si309  1  0.285920  0.993483  0.850593  1
  Si  Si310  1  0.718278  0.993908  0.850573  1
  Si  Si311  1  0.219620  0.506488  0.706646  1
  Si  Si312  1  0.500219  0.216919  0.799898  1
  Si  Si313  1  0.994496  0.714357  0.655998  1
  Si  Si314  1  0.994540  0.281965  0.655990  1
  Si  Si315  1  0.501789  0.784656  0.799912  1
  Si  Si316  1  0.719023  0.506140  0.727932  1
  Si  Si317  1  0.218898  0.993497  0.871877  1
  Si  Si318  1  0.786548  0.993695  0.871848  1
  Si  Si319  1  0.286659  0.506560  0.727929  1
  Si  Si320  1  0.501937  0.000000  0.681323  1
  Si  Si321  1  0.001827  0.499913  0.825249  1
  Si  Si322  1  0.001875  0.000000  0.753261  1
  Si  Si323  1  0.501885  0.499800  0.609387  1
  H  H324  1  0.669472  0.500711  0.034982  1
  H  H325  1  0.326566  0.500824  0.034532  1
  H  H326  1  0.503359  0.324988  0.896403  1
  H  H327  1  0.503665  0.667967  0.896013  1
