# generated using pymatgen
data_Si35(H4O37)2
_symmetry_space_group_name_H-M   'P 1'
_cell_length_a   10.10746610
_cell_length_b   18.51418868
_cell_length_c   59.41739911
_cell_angle_alpha   134.98382664
_cell_angle_beta   90.00000000
_cell_angle_gamma   90.00000000
_symmetry_Int_Tables_number   1
_chemical_formula_structural   Si35(H4O37)2
_chemical_formula_sum   'Si70 H16 O148'
_cell_volume   7864.44674024
_cell_formula_units_Z   2
loop_
 _symmetry_equiv_pos_site_id
 _symmetry_equiv_pos_as_xyz
  1  'x, y, z'
loop_
 _atom_site_type_symbol
 _atom_site_label
 _atom_site_symmetry_multiplicity
 _atom_site_fract_x
 _atom_site_fract_y
 _atom_site_fract_z
 _atom_site_occupancy
  O  O1  1  0.664970  0.977772  0.134120  1
  O  O2  1  0.835204  0.901458  0.143950  1
  O  O3  1  0.612944  0.238317  0.152651  1
  O  O4  1  0.164970  0.977772  0.134120  1
  O  O5  1  0.335204  0.901458  0.143950  1
  O  O6  1  0.112944  0.238317  0.152651  1
  O  O7  1  0.664970  0.977772  0.354389  1
  O  O8  1  0.835204  0.901458  0.364219  1
  O  O9  1  0.664970  0.022385  0.187396  1
  O  O10  1  0.835204  0.098699  0.177566  1
  O  O11  1  0.751847  0.883988  0.299650  1
  O  O12  1  0.748341  0.746708  0.350790  1
  O  O13  1  0.751847  0.116169  0.242135  1
  O  O14  1  0.748341  0.253448  0.190995  1
  O  O15  1  0.002370  0.898876  0.306828  1
  O  O16  1  0.497821  0.764440  0.351417  1
  O  O17  1  0.002370  0.101281  0.234957  1
  O  O18  1  0.497821  0.235717  0.190368  1
  O  O19  1  0.643139  0.050676  0.329884  1
  O  O20  1  0.857064  0.717313  0.307598  1
  O  O21  1  0.643139  0.949480  0.211900  1
  O  O22  1  0.857063  0.282844  0.234187  1
  O  O23  1  0.612944  0.761840  0.168865  1
  O  O24  1  0.887257  0.275127  0.273812  1
  O  O25  1  0.612944  0.238317  0.372920  1
  O  O26  1  0.887257  0.725030  0.267973  1
  O  O27  1  0.606272  0.594991  0.327584  1
  O  O28  1  0.893922  0.162546  0.285769  1
  O  O29  1  0.606272  0.405166  0.214201  1
  O  O30  1  0.893922  0.837611  0.256016  1
  O  O31  1  0.746899  0.846013  0.220830  1
  O  O32  1  0.753341  0.426880  0.288708  1
  O  O33  1  0.746898  0.154143  0.320955  1
  O  O34  1  0.753341  0.573277  0.253077  1
  O  O35  1  0.996782  0.864898  0.222472  1
  O  O36  1  0.503459  0.415433  0.282025  1
  O  O37  1  0.996782  0.135258  0.319312  1
  O  O38  1  0.503459  0.584724  0.259760  1
  O  O39  1  0.859389  0.000000  0.270892  1
  O  O40  1  0.640830  0.500078  0.270892  1
  O  O41  1  0.164970  0.977772  0.354389  1
  O  O42  1  0.335204  0.901458  0.364219  1
  O  O43  1  0.164970  0.022385  0.187396  1
  O  O44  1  0.335204  0.098699  0.177566  1
  O  O45  1  0.251847  0.883988  0.299650  1
  O  O46  1  0.248341  0.746708  0.350790  1
  O  O47  1  0.251847  0.116169  0.242135  1
  O  O48  1  0.248341  0.253448  0.190995  1
  O  O49  1  0.502370  0.898876  0.306828  1
  O  O50  1  0.997821  0.764440  0.351417  1
  O  O51  1  0.502370  0.101281  0.234957  1
  O  O52  1  0.997821  0.235717  0.190368  1
  O  O53  1  0.143139  0.050676  0.329884  1
  O  O54  1  0.357064  0.717312  0.307598  1
  O  O55  1  0.143139  0.949480  0.211900  1
  O  O56  1  0.357064  0.282844  0.234187  1
  O  O57  1  0.112944  0.761840  0.168865  1
  O  O58  1  0.387257  0.275127  0.273812  1
  O  O59  1  0.112944  0.238317  0.372920  1
  O  O60  1  0.387257  0.725030  0.267973  1
  O  O61  1  0.106272  0.594991  0.327584  1
  O  O62  1  0.393922  0.162546  0.285769  1
  O  O63  1  0.106272  0.405166  0.214201  1
  O  O64  1  0.393922  0.837611  0.256016  1
  O  O65  1  0.246898  0.846013  0.220830  1
  O  O66  1  0.253341  0.426880  0.288708  1
  O  O67  1  0.246898  0.154143  0.320954  1
  O  O68  1  0.253341  0.573277  0.253077  1
  O  O69  1  0.496782  0.864898  0.222472  1
  O  O70  1  0.003459  0.415433  0.282025  1
  O  O71  1  0.496782  0.135258  0.319312  1
  O  O72  1  0.003459  0.584724  0.259760  1
  O  O73  1  0.359389  0.000000  0.270892  1
  O  O74  1  0.140830  0.500079  0.270892  1
  O  O75  1  0.664970  0.977772  0.574658  1
  O  O76  1  0.835204  0.901458  0.584488  1
  O  O77  1  0.664970  0.022385  0.407665  1
  O  O78  1  0.835204  0.098699  0.397835  1
  O  O79  1  0.751847  0.883988  0.519919  1
  O  O80  1  0.748341  0.746708  0.571059  1
  O  O81  1  0.751847  0.116169  0.462404  1
  O  O82  1  0.748341  0.253448  0.411264  1
  O  O83  1  0.002370  0.898876  0.527097  1
  O  O84  1  0.497821  0.764440  0.571686  1
  O  O85  1  0.002370  0.101281  0.455226  1
  O  O86  1  0.497821  0.235717  0.410637  1
  O  O87  1  0.643139  0.050676  0.550153  1
  O  O88  1  0.857064  0.717313  0.527867  1
  O  O89  1  0.643139  0.949480  0.432169  1
  O  O90  1  0.857063  0.282844  0.454456  1
  O  O91  1  0.612944  0.761840  0.389134  1
  O  O92  1  0.887257  0.275127  0.494081  1
  O  O93  1  0.612944  0.238317  0.593189  1
  O  O94  1  0.887257  0.725030  0.488242  1
  O  O95  1  0.606272  0.594991  0.547853  1
  O  O96  1  0.893922  0.162546  0.506038  1
  O  O97  1  0.606272  0.405166  0.434470  1
  O  O98  1  0.893922  0.837611  0.476285  1
  O  O99  1  0.746899  0.846013  0.441099  1
  O  O100  1  0.753341  0.426880  0.508977  1
  O  O101  1  0.746898  0.154143  0.541224  1
  O  O102  1  0.753341  0.573277  0.473346  1
  O  O103  1  0.996782  0.864898  0.442741  1
  O  O104  1  0.503459  0.415433  0.502294  1
  O  O105  1  0.996782  0.135258  0.539581  1
  O  O106  1  0.503459  0.584724  0.480029  1
  O  O107  1  0.859389  0.000000  0.491161  1
  O  O108  1  0.640830  0.500078  0.491161  1
  O  O109  1  0.164970  0.977772  0.574658  1
  O  O110  1  0.335204  0.901458  0.584488  1
  O  O111  1  0.164970  0.022385  0.407665  1
  O  O112  1  0.335204  0.098699  0.397835  1
  O  O113  1  0.251847  0.883988  0.519919  1
  O  O114  1  0.248341  0.746708  0.571059  1
  O  O115  1  0.251847  0.116169  0.462404  1
  O  O116  1  0.248341  0.253448  0.411264  1
  O  O117  1  0.502370  0.898876  0.527097  1
  O  O118  1  0.997821  0.764440  0.571686  1
  O  O119  1  0.502370  0.101281  0.455226  1
  O  O120  1  0.997821  0.235717  0.410637  1
  O  O121  1  0.143139  0.050676  0.550153  1
  O  O122  1  0.357064  0.717312  0.527867  1
  O  O123  1  0.143139  0.949480  0.432169  1
  O  O124  1  0.357064  0.282844  0.454456  1
  O  O125  1  0.112944  0.761840  0.389134  1
  O  O126  1  0.387257  0.275127  0.494081  1
  O  O127  1  0.112944  0.238317  0.593189  1
  O  O128  1  0.387257  0.725030  0.488242  1
  O  O129  1  0.106272  0.594991  0.547853  1
  O  O130  1  0.393922  0.162546  0.506038  1
  O  O131  1  0.106272  0.405166  0.434470  1
  O  O132  1  0.393922  0.837611  0.476285  1
  O  O133  1  0.246898  0.846013  0.441099  1
  O  O134  1  0.253341  0.426880  0.508977  1
  O  O135  1  0.246898  0.154143  0.541223  1
  O  O136  1  0.253341  0.573277  0.473346  1
  O  O137  1  0.496782  0.864898  0.442741  1
  O  O138  1  0.003459  0.415433  0.502294  1
  O  O139  1  0.496782  0.135258  0.539581  1
  O  O140  1  0.003459  0.584724  0.480029  1
  O  O141  1  0.359389  0.000000  0.491161  1
  O  O142  1  0.140830  0.500079  0.491162  1
  O  O143  1  0.664970  0.022385  0.627934  1
  O  O144  1  0.835204  0.098699  0.618104  1
  O  O145  1  0.612944  0.761840  0.609403  1
  O  O146  1  0.164970  0.022385  0.627934  1
  O  O147  1  0.335204  0.098699  0.618104  1
  O  O148  1  0.112944  0.761840  0.609403  1
  Si  Si149  1  0.637536  0.953305  0.323422  1
  Si  Si150  1  0.862636  0.785398  0.344043  1
  Si  Si151  1  0.637536  0.046851  0.218363  1
  Si  Si152  1  0.862636  0.214758  0.197742  1
  Si  Si153  1  0.613469  0.714898  0.354367  1
  Si  Si154  1  0.886708  0.164259  0.259719  1
  Si  Si155  1  0.613469  0.285258  0.187418  1
  Si  Si156  1  0.886708  0.835898  0.282065  1
  Si  Si157  1  0.625786  0.853638  0.206058  1
  Si  Si158  1  0.874433  0.352216  0.270574  1
  Si  Si159  1  0.625786  0.146519  0.335727  1
  Si  Si160  1  0.874434  0.647941  0.271211  1
  Si  Si161  1  0.874266  0.882870  0.241709  1
  Si  Si162  1  0.625952  0.484804  0.293359  1
  Si  Si163  1  0.874266  0.117286  0.300075  1
  Si  Si164  1  0.625952  0.515352  0.248425  1
  Si  Si165  1  0.750145  0.000000  0.160758  1
  Si  Si166  1  0.137536  0.953306  0.323422  1
  Si  Si167  1  0.362636  0.785398  0.344043  1
  Si  Si168  1  0.137536  0.046851  0.218363  1
  Si  Si169  1  0.362636  0.214759  0.197742  1
  Si  Si170  1  0.113468  0.714898  0.354367  1
  Si  Si171  1  0.386708  0.164259  0.259719  1
  Si  Si172  1  0.113469  0.285258  0.187418  1
  Si  Si173  1  0.386708  0.835898  0.282065  1
  Si  Si174  1  0.125786  0.853638  0.206058  1
  Si  Si175  1  0.374433  0.352216  0.270574  1
  Si  Si176  1  0.125786  0.146519  0.335727  1
  Si  Si177  1  0.374434  0.647941  0.271211  1
  Si  Si178  1  0.374266  0.882870  0.241709  1
  Si  Si179  1  0.125952  0.484804  0.293359  1
  Si  Si180  1  0.374266  0.117286  0.300075  1
  Si  Si181  1  0.125952  0.515352  0.248425  1
  Si  Si182  1  0.250145  0.000000  0.160758  1
  Si  Si183  1  0.637536  0.953305  0.543691  1
  Si  Si184  1  0.862636  0.785398  0.564312  1
  Si  Si185  1  0.637536  0.046851  0.438632  1
  Si  Si186  1  0.862636  0.214758  0.418011  1
  Si  Si187  1  0.613469  0.714898  0.574636  1
  Si  Si188  1  0.886708  0.164259  0.479988  1
  Si  Si189  1  0.613469  0.285258  0.407687  1
  Si  Si190  1  0.886708  0.835898  0.502334  1
  Si  Si191  1  0.625786  0.853638  0.426327  1
  Si  Si192  1  0.874433  0.352216  0.490843  1
  Si  Si193  1  0.625786  0.146519  0.555996  1
  Si  Si194  1  0.874434  0.647941  0.491480  1
  Si  Si195  1  0.874266  0.882870  0.461978  1
  Si  Si196  1  0.625952  0.484804  0.513629  1
  Si  Si197  1  0.874266  0.117286  0.520345  1
  Si  Si198  1  0.625952  0.515352  0.468694  1
  Si  Si199  1  0.750145  0.000000  0.381027  1
  Si  Si200  1  0.137536  0.953306  0.543691  1
  Si  Si201  1  0.362636  0.785398  0.564312  1
  Si  Si202  1  0.137536  0.046851  0.438632  1
  Si  Si203  1  0.362636  0.214759  0.418011  1
  Si  Si204  1  0.113468  0.714898  0.574636  1
  Si  Si205  1  0.386708  0.164259  0.479988  1
  Si  Si206  1  0.113469  0.285258  0.407687  1
  Si  Si207  1  0.386708  0.835898  0.502334  1
  Si  Si208  1  0.125786  0.853638  0.426327  1
  Si  Si209  1  0.374433  0.352216  0.490843  1
  Si  Si210  1  0.125786  0.146519  0.555996  1
  Si  Si211  1  0.374434  0.647941  0.491480  1
  Si  Si212  1  0.374266  0.882870  0.461978  1
  Si  Si213  1  0.125952  0.484804  0.513629  1
  Si  Si214  1  0.374266  0.117286  0.520345  1
  Si  Si215  1  0.125952  0.515352  0.468694  1
  Si  Si216  1  0.250145  0.000000  0.381027  1
  Si  Si217  1  0.750145  0.000000  0.601296  1
  Si  Si218  1  0.250145  0.000000  0.601296  1
  H  H219  1  0.664970  0.977772  0.118973  1
  H  H220  1  0.835204  0.901458  0.128803  1
  H  H221  1  0.612944  0.238317  0.137504  1
  H  H222  1  0.164970  0.977772  0.118973  1
  H  H223  1  0.335204  0.901458  0.128803  1
  H  H224  1  0.112944  0.238317  0.137504  1
  H  H225  1  0.612944  0.761840  0.153718  1
  H  H226  1  0.112944  0.761840  0.153718  1
  H  H227  1  0.612944  0.238317  0.608336  1
  H  H228  1  0.112944  0.238317  0.608336  1
  H  H229  1  0.664970  0.022385  0.643081  1
  H  H230  1  0.835204  0.098699  0.633251  1
  H  H231  1  0.612944  0.761840  0.624550  1
  H  H232  1  0.164970  0.022385  0.643081  1
  H  H233  1  0.335204  0.098699  0.633251  1
  H  H234  1  0.112944  0.761840  0.624550  1
