# generated using pymatgen
data_Si3H2O7
_symmetry_space_group_name_H-M   'P 1'
_cell_length_a   10.10746610
_cell_length_b   18.51418868
_cell_length_c   42.20073528
_cell_angle_alpha   134.98382664
_cell_angle_beta   90.00000000
_cell_angle_gamma   90.00000000
_symmetry_Int_Tables_number   1
_chemical_formula_structural   Si3H2O7
_chemical_formula_sum   'Si24 H16 O56'
_cell_volume   5585.66076601
_cell_formula_units_Z   8
loop_
 _symmetry_equiv_pos_site_id
 _symmetry_equiv_pos_as_xyz
  1  'x, y, z'
loop_
 _atom_site_type_symbol
 _atom_site_label
 _atom_site_symmetry_multiplicity
 _atom_site_fract_x
 _atom_site_fract_y
 _atom_site_fract_z
 _atom_site_occupancy
  O  O1  1  0.664970  0.977772  0.450050  1
  O  O2  1  0.664970  0.022385  0.214928  1
  O  O3  1  0.751847  0.883988  0.372979  1
  O  O4  1  0.751847  0.116169  0.291999  1
  O  O5  1  0.002370  0.898876  0.383086  1
  O  O6  1  0.002370  0.101281  0.281893  1
  O  O7  1  0.643139  0.050676  0.415548  1
  O  O8  1  0.857064  0.717313  0.384170  1
  O  O9  1  0.643139  0.949480  0.249430  1
  O  O10  1  0.857063  0.282844  0.280809  1
  O  O11  1  0.612944  0.761840  0.188837  1
  O  O12  1  0.887257  0.275127  0.336600  1
  O  O13  1  0.612944  0.238317  0.476141  1
  O  O14  1  0.887257  0.725030  0.328379  1
  O  O15  1  0.606272  0.594991  0.412310  1
  O  O16  1  0.893922  0.162546  0.353435  1
  O  O17  1  0.606272  0.405166  0.252669  1
  O  O18  1  0.893922  0.837611  0.311543  1
  O  O19  1  0.746899  0.846013  0.262003  1
  O  O20  1  0.753341  0.426880  0.357573  1
  O  O21  1  0.746898  0.154143  0.402975  1
  O  O22  1  0.753341  0.573277  0.307406  1
  O  O23  1  0.996782  0.864898  0.264315  1
  O  O24  1  0.503459  0.415433  0.348163  1
  O  O25  1  0.996782  0.135258  0.400663  1
  O  O26  1  0.503459  0.584724  0.316815  1
  O  O27  1  0.859389  -0.000000  0.332489  1
  O  O28  1  0.640830  0.500078  0.332489  1
  O  O29  1  0.164970  0.977772  0.450050  1
  O  O30  1  0.164970  0.022385  0.214928  1
  O  O31  1  0.251847  0.883988  0.372979  1
  O  O32  1  0.251847  0.116169  0.291999  1
  O  O33  1  0.502370  0.898876  0.383086  1
  O  O34  1  0.502370  0.101281  0.281893  1
  O  O35  1  0.143139  0.050676  0.415548  1
  O  O36  1  0.357064  0.717312  0.384170  1
  O  O37  1  0.143139  0.949480  0.249430  1
  O  O38  1  0.357064  0.282844  0.280809  1
  O  O39  1  0.112944  0.761840  0.188837  1
  O  O40  1  0.387257  0.275127  0.336600  1
  O  O41  1  0.112944  0.238317  0.476141  1
  O  O42  1  0.387257  0.725030  0.328379  1
  O  O43  1  0.106272  0.594991  0.412309  1
  O  O44  1  0.393922  0.162546  0.353435  1
  O  O45  1  0.106272  0.405166  0.252669  1
  O  O46  1  0.393922  0.837611  0.311543  1
  O  O47  1  0.246898  0.846013  0.262003  1
  O  O48  1  0.253341  0.426880  0.357573  1
  O  O49  1  0.246898  0.154143  0.402975  1
  O  O50  1  0.253341  0.573277  0.307406  1
  O  O51  1  0.496782  0.864898  0.264315  1
  O  O52  1  0.003459  0.415433  0.348163  1
  O  O53  1  0.496782  0.135258  0.400663  1
  O  O54  1  0.003459  0.584724  0.316815  1
  O  O55  1  0.359389  -0.000000  0.332489  1
  O  O56  1  0.140830  0.500079  0.332489  1
  Si  Si57  1  0.637536  0.953305  0.406449  1
  Si  Si58  1  0.637536  0.046851  0.258529  1
  Si  Si59  1  0.886708  0.164259  0.316758  1
  Si  Si60  1  0.886708  0.835898  0.348221  1
  Si  Si61  1  0.625786  0.853638  0.241204  1
  Si  Si62  1  0.874433  0.352216  0.332041  1
  Si  Si63  1  0.625786  0.146519  0.423774  1
  Si  Si64  1  0.874434  0.647941  0.332938  1
  Si  Si65  1  0.874266  0.882870  0.291400  1
  Si  Si66  1  0.625952  0.484804  0.364122  1
  Si  Si67  1  0.874266  0.117286  0.373578  1
  Si  Si68  1  0.625952  0.515352  0.300856  1
  Si  Si69  1  0.137536  0.953306  0.406449  1
  Si  Si70  1  0.137536  0.046851  0.258529  1
  Si  Si71  1  0.386708  0.164259  0.316758  1
  Si  Si72  1  0.386708  0.835898  0.348221  1
  Si  Si73  1  0.125786  0.853638  0.241204  1
  Si  Si74  1  0.374433  0.352216  0.332041  1
  Si  Si75  1  0.125786  0.146519  0.423775  1
  Si  Si76  1  0.374434  0.647941  0.332938  1
  Si  Si77  1  0.374266  0.882870  0.291400  1
  Si  Si78  1  0.125952  0.484804  0.364122  1
  Si  Si79  1  0.374266  0.117286  0.373578  1
  Si  Si80  1  0.125952  0.515352  0.300856  1
  H  H81  1  0.664970  0.977772  0.471377  1
  H  H82  1  0.664970  0.022385  0.193601  1
  H  H83  1  0.857064  0.717313  0.405496  1
  H  H84  1  0.857063  0.282844  0.259482  1
  H  H85  1  0.612944  0.761840  0.167511  1
  H  H86  1  0.612944  0.238317  0.497468  1
  H  H87  1  0.606272  0.594991  0.433636  1
  H  H88  1  0.606272  0.405166  0.231342  1
  H  H89  1  0.164970  0.977772  0.471377  1
  H  H90  1  0.164970  0.022385  0.193601  1
  H  H91  1  0.357064  0.717312  0.405496  1
  H  H92  1  0.357064  0.282844  0.259482  1
  H  H93  1  0.112944  0.761840  0.167511  1
  H  H94  1  0.112944  0.238317  0.497468  1
  H  H95  1  0.106272  0.594991  0.433636  1
  H  H96  1  0.106272  0.405166  0.231342  1
