# generated using pymatgen
data_Si9H2O19
_symmetry_space_group_name_H-M   'P 1'
_cell_length_a   18.63077127
_cell_length_b   8.35219177
_cell_length_c   43.53123094
_cell_angle_alpha   90.00000000
_cell_angle_beta   120.00000000
_cell_angle_gamma   90.00000000
_symmetry_Int_Tables_number   1
_chemical_formula_structural   Si9H2O19
_chemical_formula_sum   'Si36 H8 O76'
_cell_volume   5866.28111849
_cell_formula_units_Z   4
loop_
 _symmetry_equiv_pos_site_id
 _symmetry_equiv_pos_as_xyz
  1  'x, y, z'
loop_
 _atom_site_type_symbol
 _atom_site_label
 _atom_site_symmetry_multiplicity
 _atom_site_fract_x
 _atom_site_fract_y
 _atom_site_fract_z
 _atom_site_occupancy
  O  O1  1  0.597513  0.012867  0.199511  1
  O  O2  1  0.598090  0.013240  0.288263  1
  O  O3  1  0.804128  0.006561  0.287652  1
  O  O4  1  0.401697  0.487048  0.460159  1
  O  O5  1  0.402253  0.487438  0.371650  1
  O  O6  1  0.195648  0.493662  0.371391  1
  O  O7  1  0.804128  0.493704  0.287658  1
  O  O8  1  0.598087  0.487049  0.288267  1
  O  O9  1  0.597516  0.487427  0.199516  1
  O  O10  1  0.195648  0.006603  0.371385  1
  O  O11  1  0.402255  0.012857  0.371646  1
  O  O12  1  0.401695  0.013241  0.460155  1
  O  O13  1  0.753173  0.991293  0.221365  1
  O  O14  1  0.494064  0.990680  0.221650  1
  O  O15  1  0.753080  0.991225  0.332552  1
  O  O16  1  0.246724  0.509108  0.438135  1
  O  O17  1  0.505717  0.509569  0.438061  1
  O  O18  1  0.246580  0.509012  0.326898  1
  O  O19  1  0.753175  0.508999  0.221370  1
  O  O20  1  0.753079  0.509066  0.332556  1
  O  O21  1  0.494061  0.509593  0.221655  1
  O  O22  1  0.246723  0.991184  0.438130  1
  O  O23  1  0.246581  0.991280  0.326894  1
  O  O24  1  0.505714  0.990704  0.438055  1
  O  O25  1  0.643913  0.986979  0.153304  1
  O  O26  1  0.443670  0.987000  0.268204  1
  O  O27  1  0.911811  0.996674  0.353413  1
  O  O28  1  0.355143  0.499252  0.506208  1
  O  O29  1  0.556497  0.498927  0.391739  1
  O  O30  1  0.087391  0.488938  0.304822  1
  O  O31  1  0.912358  0.488929  0.267391  1
  O  O32  1  0.644652  0.499260  0.354236  1
  O  O33  1  0.443283  0.498916  0.153600  1
  O  O34  1  0.087995  0.996684  0.391090  1
  O  O35  1  0.355847  0.986989  0.305585  1
  O  O36  1  0.556102  0.986987  0.506177  1
  O  O37  1  0.355141  0.001022  0.506204  1
  O  O38  1  0.556498  0.001369  0.391736  1
  O  O39  1  0.087393  0.011345  0.304818  1
  O  O40  1  0.643916  0.513295  0.153309  1
  O  O41  1  0.443669  0.513297  0.268209  1
  O  O42  1  0.911810  0.503609  0.353417  1
  O  O43  1  0.087997  0.503600  0.391095  1
  O  O44  1  0.355843  0.513285  0.305589  1
  O  O45  1  0.556103  0.513311  0.506181  1
  O  O46  1  0.912355  0.011354  0.267386  1
  O  O47  1  0.644654  0.001014  0.354232  1
  O  O48  1  0.443282  0.001379  0.153596  1
  O  O49  1  0.657010  0.750143  0.193513  1
  O  O50  1  0.524907  0.750144  0.262891  1
  O  O51  1  0.822376  0.750138  0.321655  1
  O  O52  1  0.323984  0.250142  0.466765  1
  O  O53  1  0.495045  0.250142  0.404997  1
  O  O54  1  0.184692  0.250142  0.334495  1
  O  O55  1  0.815071  0.250140  0.255459  1
  O  O56  1  0.675802  0.250140  0.328130  1
  O  O57  1  0.504729  0.250140  0.193163  1
  O  O58  1  0.177393  0.750136  0.397565  1
  O  O59  1  0.342744  0.750141  0.340184  1
  O  O60  1  0.474866  0.750142  0.466089  1
  O  O61  1  0.000000  0.985551  0.329211  1
  O  O62  1  0.499974  0.019873  0.543732  1
  O  O63  1  0.499805  0.019868  0.329776  1
  O  O64  1  -0.000000  0.514755  0.329216  1
  O  O65  1  0.499975  0.480406  0.543736  1
  O  O66  1  0.499803  0.480412  0.329781  1
  O  O67  1  -0.000000  0.250145  0.358727  1
  O  O68  1  0.589594  0.250141  0.543670  1
  O  O69  1  0.410177  0.250141  0.291365  1
  O  O70  1  -0.000000  0.750140  0.291956  1
  O  O71  1  0.434002  0.750141  0.543846  1
  O  O72  1  0.565787  0.750141  0.358121  1
  O  O73  1  0.643913  0.986979  0.581142  1
  O  O74  1  0.443283  0.498916  0.581438  1
  O  O75  1  0.643916  0.513295  0.581147  1
  O  O76  1  0.443282  0.001379  0.581434  1
  Si  Si77  1  0.664602  0.935392  0.192195  1
  Si  Si78  1  0.514103  0.935386  0.259501  1
  Si  Si79  1  0.821751  0.935737  0.324254  1
  Si  Si80  1  0.330405  0.435980  0.467536  1
  Si  Si81  1  0.490639  0.436003  0.402229  1
  Si  Si82  1  0.178674  0.435814  0.333960  1
  Si  Si83  1  0.821093  0.435815  0.257491  1
  Si  Si84  1  0.669393  0.435982  0.326152  1
  Si  Si85  1  0.509136  0.436003  0.192277  1
  Si  Si86  1  0.178033  0.935736  0.400445  1
  Si  Si87  1  0.335149  0.935394  0.335619  1
  Si  Si88  1  0.485673  0.935387  0.467327  1
  Si  Si89  1  0.330403  0.064301  0.467531  1
  Si  Si90  1  0.490639  0.064284  0.402225  1
  Si  Si91  1  0.178675  0.064464  0.333956  1
  Si  Si92  1  0.664603  0.564891  0.192199  1
  Si  Si93  1  0.514101  0.564900  0.259504  1
  Si  Si94  1  0.821750  0.564544  0.324258  1
  Si  Si95  1  0.178033  0.564546  0.400448  1
  Si  Si96  1  0.335149  0.564891  0.335623  1
  Si  Si97  1  0.485675  0.564901  0.467331  1
  Si  Si98  1  0.821093  0.064465  0.257488  1
  Si  Si99  1  0.669396  0.064301  0.326149  1
  Si  Si100  1  0.509136  0.064287  0.192273  1
  Si  Si101  1  0.000000  0.061870  0.361535  1
  Si  Si102  1  0.580458  0.062302  0.543676  1
  Si  Si103  1  0.419311  0.062304  0.295280  1
  Si  Si104  1  -0.000000  0.562279  0.295053  1
  Si  Si105  1  0.425574  0.562049  0.543814  1
  Si  Si106  1  0.574216  0.562051  0.361696  1
  Si  Si107  1  0.000000  0.938010  0.295049  1
  Si  Si108  1  0.425572  0.938233  0.543810  1
  Si  Si109  1  0.574217  0.938232  0.361693  1
  Si  Si110  1  -0.000000  0.438420  0.361539  1
  Si  Si111  1  0.580461  0.437981  0.543680  1
  Si  Si112  1  0.419309  0.437980  0.295283  1
  H  H113  1  0.643913  0.986979  0.132629  1
  H  H114  1  0.443283  0.498916  0.132925  1
  H  H115  1  0.643916  0.513295  0.132634  1
  H  H116  1  0.443282  0.001379  0.132921  1
  H  H117  1  0.643913  0.986979  0.601817  1
  H  H118  1  0.443283  0.498916  0.602113  1
  H  H119  1  0.643916  0.513295  0.601822  1
  H  H120  1  0.443282  0.001379  0.602109  1
