# generated using pymatgen
data_Si27H2O55
_symmetry_space_group_name_H-M   'P 1'
_cell_length_a   18.63077127
_cell_length_b   8.35219177
_cell_length_c   80.77989520
_cell_angle_alpha   90.00000000
_cell_angle_beta   120.00000000
_cell_angle_gamma   90.00000000
_symmetry_Int_Tables_number   1
_chemical_formula_structural   Si27H2O55
_chemical_formula_sum   'Si108 H8 O220'
_cell_volume   10885.9217568
_cell_formula_units_Z   4
loop_
 _symmetry_equiv_pos_site_id
 _symmetry_equiv_pos_as_xyz
  1  'x, y, z'
loop_
 _atom_site_type_symbol
 _atom_site_label
 _atom_site_symmetry_multiplicity
 _atom_site_fract_x
 _atom_site_fract_y
 _atom_site_fract_z
 _atom_site_occupancy
  O  O1  1  0.597513  0.012867  0.107514  1
  O  O2  1  0.598090  0.013240  0.155341  1
  O  O3  1  0.804128  0.006561  0.155012  1
  O  O4  1  0.401697  0.487048  0.247974  1
  O  O5  1  0.402253  0.487438  0.200277  1
  O  O6  1  0.195648  0.493662  0.200138  1
  O  O7  1  0.804128  0.493704  0.155015  1
  O  O8  1  0.598087  0.487049  0.155343  1
  O  O9  1  0.597516  0.487427  0.107517  1
  O  O10  1  0.195648  0.006603  0.200135  1
  O  O11  1  0.402255  0.012857  0.200275  1
  O  O12  1  0.401695  0.013241  0.247971  1
  O  O13  1  0.753173  0.991293  0.119291  1
  O  O14  1  0.494064  0.990680  0.119444  1
  O  O15  1  0.753080  0.991225  0.179208  1
  O  O16  1  0.246724  0.509108  0.236105  1
  O  O17  1  0.505717  0.509569  0.236065  1
  O  O18  1  0.246580  0.509012  0.176161  1
  O  O19  1  0.753175  0.508999  0.119294  1
  O  O20  1  0.753079  0.509066  0.179210  1
  O  O21  1  0.494061  0.509593  0.119447  1
  O  O22  1  0.246723  0.991184  0.236103  1
  O  O23  1  0.246581  0.991280  0.176159  1
  O  O24  1  0.505714  0.990704  0.236062  1
  O  O25  1  0.643913  0.986979  0.082613  1
  O  O26  1  0.443670  0.987000  0.144532  1
  O  O27  1  0.911811  0.996674  0.190450  1
  O  O28  1  0.355143  0.499252  0.272789  1
  O  O29  1  0.556497  0.498927  0.211103  1
  O  O30  1  0.087391  0.488938  0.164265  1
  O  O31  1  0.912358  0.488929  0.144094  1
  O  O32  1  0.644652  0.499260  0.190893  1
  O  O33  1  0.443283  0.498916  0.082773  1
  O  O34  1  0.087995  0.996684  0.210753  1
  O  O35  1  0.355847  0.986989  0.164676  1
  O  O36  1  0.556102  0.986987  0.272772  1
  O  O37  1  0.355141  0.001022  0.272787  1
  O  O38  1  0.556498  0.001369  0.211101  1
  O  O39  1  0.087393  0.011345  0.164262  1
  O  O40  1  0.643916  0.513295  0.082616  1
  O  O41  1  0.443669  0.513297  0.144534  1
  O  O42  1  0.911810  0.503609  0.190452  1
  O  O43  1  0.087997  0.503600  0.210756  1
  O  O44  1  0.355843  0.513285  0.164678  1
  O  O45  1  0.556103  0.513311  0.272774  1
  O  O46  1  0.912355  0.011354  0.144091  1
  O  O47  1  0.644654  0.001014  0.190891  1
  O  O48  1  0.443282  0.001379  0.082771  1
  O  O49  1  0.657010  0.750143  0.104282  1
  O  O50  1  0.524907  0.750144  0.141669  1
  O  O51  1  0.822376  0.750138  0.173336  1
  O  O52  1  0.323984  0.250142  0.251534  1
  O  O53  1  0.495045  0.250142  0.218248  1
  O  O54  1  0.184692  0.250142  0.180255  1
  O  O55  1  0.815071  0.250140  0.137664  1
  O  O56  1  0.675802  0.250140  0.176825  1
  O  O57  1  0.504729  0.250140  0.104093  1
  O  O58  1  0.177393  0.750136  0.214243  1
  O  O59  1  0.342744  0.750141  0.183321  1
  O  O60  1  0.474866  0.750142  0.251169  1
  O  O61  1  0.000000  0.985551  0.177408  1
  O  O62  1  0.499974  0.019873  0.293010  1
  O  O63  1  0.499805  0.019868  0.177712  1
  O  O64  1  -0.000000  0.514755  0.177410  1
  O  O65  1  0.499975  0.480406  0.293012  1
  O  O66  1  0.499803  0.480412  0.177715  1
  O  O67  1  -0.000000  0.250145  0.193314  1
  O  O68  1  0.589594  0.250141  0.292976  1
  O  O69  1  0.410177  0.250141  0.157013  1
  O  O70  1  -0.000000  0.750140  0.157331  1
  O  O71  1  0.434002  0.750141  0.293071  1
  O  O72  1  0.565787  0.750141  0.192987  1
  O  O73  1  0.597513  0.012867  0.338071  1
  O  O74  1  0.598090  0.013240  0.385898  1
  O  O75  1  0.804128  0.006561  0.385569  1
  O  O76  1  0.401697  0.487048  0.478530  1
  O  O77  1  0.402253  0.487438  0.430834  1
  O  O78  1  0.195648  0.493662  0.430694  1
  O  O79  1  0.804128  0.493704  0.385572  1
  O  O80  1  0.598087  0.487049  0.385900  1
  O  O81  1  0.597516  0.487427  0.338073  1
  O  O82  1  0.195648  0.006603  0.430691  1
  O  O83  1  0.402255  0.012857  0.430831  1
  O  O84  1  0.401695  0.013241  0.478528  1
  O  O85  1  0.753173  0.991293  0.349847  1
  O  O86  1  0.494064  0.990680  0.350001  1
  O  O87  1  0.753080  0.991225  0.409765  1
  O  O88  1  0.246724  0.509108  0.466662  1
  O  O89  1  0.505717  0.509569  0.466622  1
  O  O90  1  0.246580  0.509012  0.406718  1
  O  O91  1  0.753175  0.508999  0.349850  1
  O  O92  1  0.753079  0.509066  0.409767  1
  O  O93  1  0.494061  0.509593  0.350003  1
  O  O94  1  0.246723  0.991184  0.466659  1
  O  O95  1  0.246581  0.991280  0.406715  1
  O  O96  1  0.505714  0.990704  0.466619  1
  O  O97  1  0.643913  0.986979  0.313170  1
  O  O98  1  0.443670  0.987000  0.375088  1
  O  O99  1  0.911811  0.996674  0.421006  1
  O  O100  1  0.355143  0.499252  0.503346  1
  O  O101  1  0.556497  0.498927  0.441660  1
  O  O102  1  0.087391  0.488938  0.394821  1
  O  O103  1  0.912358  0.488929  0.374650  1
  O  O104  1  0.644652  0.499260  0.421450  1
  O  O105  1  0.443283  0.498916  0.313329  1
  O  O106  1  0.087995  0.996684  0.441310  1
  O  O107  1  0.355847  0.986989  0.395232  1
  O  O108  1  0.556102  0.986987  0.503329  1
  O  O109  1  0.355141  0.001022  0.503343  1
  O  O110  1  0.556498  0.001369  0.441658  1
  O  O111  1  0.087393  0.011345  0.394819  1
  O  O112  1  0.643916  0.513295  0.313173  1
  O  O113  1  0.443669  0.513297  0.375091  1
  O  O114  1  0.911810  0.503609  0.421008  1
  O  O115  1  0.087997  0.503600  0.441313  1
  O  O116  1  0.355843  0.513285  0.395234  1
  O  O117  1  0.556103  0.513311  0.503331  1
  O  O118  1  0.912355  0.011354  0.374647  1
  O  O119  1  0.644654  0.001014  0.421448  1
  O  O120  1  0.443282  0.001379  0.313327  1
  O  O121  1  0.657010  0.750143  0.334838  1
  O  O122  1  0.524907  0.750144  0.372225  1
  O  O123  1  0.822376  0.750138  0.403892  1
  O  O124  1  0.323984  0.250142  0.482090  1
  O  O125  1  0.495045  0.250142  0.448804  1
  O  O126  1  0.184692  0.250142  0.410811  1
  O  O127  1  0.815071  0.250140  0.368220  1
  O  O128  1  0.675802  0.250140  0.407382  1
  O  O129  1  0.504729  0.250140  0.334650  1
  O  O130  1  0.177393  0.750136  0.444799  1
  O  O131  1  0.342744  0.750141  0.413877  1
  O  O132  1  0.474866  0.750142  0.481726  1
  O  O133  1  0.000000  0.985551  0.407964  1
  O  O134  1  0.499974  0.019873  0.523567  1
  O  O135  1  0.499805  0.019868  0.408269  1
  O  O136  1  0.000000  0.514755  0.407967  1
  O  O137  1  0.499975  0.480406  0.523569  1
  O  O138  1  0.499803  0.480412  0.408271  1
  O  O139  1  0.000000  0.250145  0.423870  1
  O  O140  1  0.589594  0.250141  0.523533  1
  O  O141  1  0.410177  0.250141  0.387569  1
  O  O142  1  -0.000000  0.750140  0.387888  1
  O  O143  1  0.434002  0.750141  0.523628  1
  O  O144  1  0.565787  0.750141  0.423543  1
  O  O145  1  0.597513  0.012867  0.568627  1
  O  O146  1  0.598090  0.013240  0.616454  1
  O  O147  1  0.804128  0.006561  0.616125  1
  O  O148  1  0.401697  0.487048  0.709087  1
  O  O149  1  0.402253  0.487438  0.661390  1
  O  O150  1  0.195648  0.493662  0.661251  1
  O  O151  1  0.804128  0.493704  0.616128  1
  O  O152  1  0.598087  0.487049  0.616456  1
  O  O153  1  0.597516  0.487427  0.568630  1
  O  O154  1  0.195648  0.006603  0.661248  1
  O  O155  1  0.402255  0.012857  0.661388  1
  O  O156  1  0.401695  0.013241  0.709084  1
  O  O157  1  0.753173  0.991293  0.580404  1
  O  O158  1  0.494064  0.990680  0.580557  1
  O  O159  1  0.753080  0.991225  0.640321  1
  O  O160  1  0.246724  0.509108  0.697218  1
  O  O161  1  0.505717  0.509569  0.697178  1
  O  O162  1  0.246580  0.509012  0.637274  1
  O  O163  1  0.753175  0.508999  0.580407  1
  O  O164  1  0.753079  0.509066  0.640323  1
  O  O165  1  0.494061  0.509593  0.580560  1
  O  O166  1  0.246723  0.991184  0.697216  1
  O  O167  1  0.246581  0.991280  0.637272  1
  O  O168  1  0.505714  0.990704  0.697175  1
  O  O169  1  0.643913  0.986979  0.543726  1
  O  O170  1  0.443670  0.987000  0.605645  1
  O  O171  1  0.911811  0.996674  0.651563  1
  O  O172  1  0.355143  0.499252  0.733902  1
  O  O173  1  0.556497  0.498927  0.672216  1
  O  O174  1  0.087391  0.488938  0.625378  1
  O  O175  1  0.912358  0.488929  0.605207  1
  O  O176  1  0.644652  0.499260  0.652006  1
  O  O177  1  0.443283  0.498916  0.543886  1
  O  O178  1  0.087995  0.996684  0.671866  1
  O  O179  1  0.355847  0.986989  0.625789  1
  O  O180  1  0.556102  0.986987  0.733885  1
  O  O181  1  0.355141  0.001022  0.733900  1
  O  O182  1  0.556498  0.001369  0.672214  1
  O  O183  1  0.087393  0.011345  0.625376  1
  O  O184  1  0.643916  0.513295  0.543729  1
  O  O185  1  0.443669  0.513297  0.605647  1
  O  O186  1  0.911810  0.503609  0.651565  1
  O  O187  1  0.087997  0.503600  0.671869  1
  O  O188  1  0.355843  0.513285  0.625791  1
  O  O189  1  0.556103  0.513311  0.733887  1
  O  O190  1  0.912355  0.011354  0.605204  1
  O  O191  1  0.644654  0.001014  0.652004  1
  O  O192  1  0.443282  0.001379  0.543884  1
  O  O193  1  0.657010  0.750143  0.565395  1
  O  O194  1  0.524907  0.750144  0.602782  1
  O  O195  1  0.822376  0.750138  0.634449  1
  O  O196  1  0.323984  0.250142  0.712647  1
  O  O197  1  0.495045  0.250142  0.679361  1
  O  O198  1  0.184692  0.250142  0.641368  1
  O  O199  1  0.815071  0.250140  0.598777  1
  O  O200  1  0.675802  0.250140  0.637938  1
  O  O201  1  0.504729  0.250140  0.565206  1
  O  O202  1  0.177393  0.750136  0.675356  1
  O  O203  1  0.342744  0.750141  0.644434  1
  O  O204  1  0.474866  0.750142  0.712282  1
  O  O205  1  -0.000000  0.985551  0.638521  1
  O  O206  1  0.499974  0.019873  0.754123  1
  O  O207  1  0.499805  0.019868  0.638825  1
  O  O208  1  0.000000  0.514755  0.638523  1
  O  O209  1  0.499975  0.480406  0.754125  1
  O  O210  1  0.499803  0.480412  0.638828  1
  O  O211  1  0.000000  0.250145  0.654427  1
  O  O212  1  0.589594  0.250141  0.754089  1
  O  O213  1  0.410177  0.250141  0.618126  1
  O  O214  1  -0.000000  0.750140  0.618445  1
  O  O215  1  0.434002  0.750141  0.754184  1
  O  O216  1  0.565787  0.750141  0.654100  1
  O  O217  1  0.643913  0.986979  0.774283  1
  O  O218  1  0.443283  0.498916  0.774443  1
  O  O219  1  0.643916  0.513295  0.774286  1
  O  O220  1  0.443282  0.001379  0.774440  1
  Si  Si221  1  0.664602  0.935392  0.103571  1
  Si  Si222  1  0.514103  0.935386  0.139841  1
  Si  Si223  1  0.821751  0.935737  0.174736  1
  Si  Si224  1  0.330405  0.435980  0.251949  1
  Si  Si225  1  0.490639  0.436003  0.216756  1
  Si  Si226  1  0.178674  0.435814  0.179967  1
  Si  Si227  1  0.821093  0.435815  0.138759  1
  Si  Si228  1  0.669393  0.435982  0.175759  1
  Si  Si229  1  0.509136  0.436003  0.103615  1
  Si  Si230  1  0.178033  0.935736  0.215794  1
  Si  Si231  1  0.335149  0.935394  0.180861  1
  Si  Si232  1  0.485673  0.935387  0.251836  1
  Si  Si233  1  0.330403  0.064301  0.251947  1
  Si  Si234  1  0.490639  0.064284  0.216754  1
  Si  Si235  1  0.178675  0.064464  0.179965  1
  Si  Si236  1  0.664603  0.564891  0.103574  1
  Si  Si237  1  0.514101  0.564900  0.139843  1
  Si  Si238  1  0.821750  0.564544  0.174738  1
  Si  Si239  1  0.178033  0.564546  0.215796  1
  Si  Si240  1  0.335149  0.564891  0.180863  1
  Si  Si241  1  0.485675  0.564901  0.251839  1
  Si  Si242  1  0.821093  0.064465  0.138757  1
  Si  Si243  1  0.669396  0.064301  0.175757  1
  Si  Si244  1  0.509136  0.064287  0.103613  1
  Si  Si245  1  0.000000  0.061870  0.194826  1
  Si  Si246  1  0.580458  0.062302  0.292980  1
  Si  Si247  1  0.419311  0.062304  0.159122  1
  Si  Si248  1  0.000000  0.562279  0.159000  1
  Si  Si249  1  0.425574  0.562049  0.293054  1
  Si  Si250  1  0.574216  0.562051  0.194913  1
  Si  Si251  1  -0.000000  0.938010  0.158998  1
  Si  Si252  1  0.425572  0.938233  0.293052  1
  Si  Si253  1  0.574217  0.938232  0.194912  1
  Si  Si254  1  -0.000000  0.438420  0.194829  1
  Si  Si255  1  0.580461  0.437981  0.292982  1
  Si  Si256  1  0.419309  0.437980  0.159124  1
  Si  Si257  1  0.664602  0.935392  0.334128  1
  Si  Si258  1  0.514103  0.935386  0.370398  1
  Si  Si259  1  0.821751  0.935737  0.405293  1
  Si  Si260  1  0.330405  0.435980  0.482505  1
  Si  Si261  1  0.490639  0.436003  0.447312  1
  Si  Si262  1  0.178674  0.435814  0.410523  1
  Si  Si263  1  0.821093  0.435815  0.369315  1
  Si  Si264  1  0.669393  0.435982  0.406315  1
  Si  Si265  1  0.509136  0.436003  0.334172  1
  Si  Si266  1  0.178033  0.935736  0.446351  1
  Si  Si267  1  0.335149  0.935394  0.411417  1
  Si  Si268  1  0.485673  0.935387  0.482393  1
  Si  Si269  1  0.330403  0.064301  0.482503  1
  Si  Si270  1  0.490639  0.064284  0.447310  1
  Si  Si271  1  0.178675  0.064464  0.410521  1
  Si  Si272  1  0.664603  0.564891  0.334130  1
  Si  Si273  1  0.514101  0.564900  0.370400  1
  Si  Si274  1  0.821750  0.564544  0.405295  1
  Si  Si275  1  0.178033  0.564546  0.446353  1
  Si  Si276  1  0.335149  0.564891  0.411419  1
  Si  Si277  1  0.485675  0.564901  0.482395  1
  Si  Si278  1  0.821093  0.064465  0.369313  1
  Si  Si279  1  0.669396  0.064301  0.406314  1
  Si  Si280  1  0.509136  0.064287  0.334170  1
  Si  Si281  1  -0.000000  0.061870  0.425383  1
  Si  Si282  1  0.580458  0.062302  0.523536  1
  Si  Si283  1  0.419311  0.062304  0.389679  1
  Si  Si284  1  0.000000  0.562279  0.389557  1
  Si  Si285  1  0.425574  0.562049  0.523611  1
  Si  Si286  1  0.574216  0.562051  0.425470  1
  Si  Si287  1  0.000000  0.938010  0.389555  1
  Si  Si288  1  0.425572  0.938233  0.523609  1
  Si  Si289  1  0.574217  0.938232  0.425468  1
  Si  Si290  1  0.000000  0.438420  0.425385  1
  Si  Si291  1  0.580461  0.437981  0.523539  1
  Si  Si292  1  0.419309  0.437980  0.389681  1
  Si  Si293  1  0.664602  0.935392  0.564684  1
  Si  Si294  1  0.514103  0.935386  0.600955  1
  Si  Si295  1  0.821751  0.935737  0.635849  1
  Si  Si296  1  0.330405  0.435980  0.713062  1
  Si  Si297  1  0.490639  0.436003  0.677869  1
  Si  Si298  1  0.178674  0.435814  0.641080  1
  Si  Si299  1  0.821093  0.435815  0.599872  1
  Si  Si300  1  0.669393  0.435982  0.636872  1
  Si  Si301  1  0.509136  0.436003  0.564729  1
  Si  Si302  1  0.178033  0.935736  0.676907  1
  Si  Si303  1  0.335149  0.935394  0.641974  1
  Si  Si304  1  0.485673  0.935387  0.712949  1
  Si  Si305  1  0.330403  0.064301  0.713060  1
  Si  Si306  1  0.490639  0.064284  0.677867  1
  Si  Si307  1  0.178675  0.064464  0.641078  1
  Si  Si308  1  0.664603  0.564891  0.564687  1
  Si  Si309  1  0.514101  0.564900  0.600956  1
  Si  Si310  1  0.821750  0.564544  0.635851  1
  Si  Si311  1  0.178033  0.564546  0.676910  1
  Si  Si312  1  0.335149  0.564891  0.641976  1
  Si  Si313  1  0.485675  0.564901  0.712952  1
  Si  Si314  1  0.821093  0.064465  0.599870  1
  Si  Si315  1  0.669396  0.064301  0.636870  1
  Si  Si316  1  0.509136  0.064287  0.564726  1
  Si  Si317  1  0.000000  0.061870  0.655939  1
  Si  Si318  1  0.580458  0.062302  0.754093  1
  Si  Si319  1  0.419311  0.062304  0.620235  1
  Si  Si320  1  -0.000000  0.562279  0.620114  1
  Si  Si321  1  0.425574  0.562049  0.754167  1
  Si  Si322  1  0.574216  0.562051  0.656026  1
  Si  Si323  1  -0.000000  0.938010  0.620111  1
  Si  Si324  1  0.425572  0.938233  0.754165  1
  Si  Si325  1  0.574217  0.938232  0.656025  1
  Si  Si326  1  0.000000  0.438420  0.655942  1
  Si  Si327  1  0.580461  0.437981  0.754095  1
  Si  Si328  1  0.419309  0.437980  0.620237  1
  H  H329  1  0.643913  0.986979  0.071472  1
  H  H330  1  0.443283  0.498916  0.071632  1
  H  H331  1  0.643916  0.513295  0.071475  1
  H  H332  1  0.443282  0.001379  0.071629  1
  H  H333  1  0.643913  0.986979  0.785424  1
  H  H334  1  0.443283  0.498916  0.785584  1
  H  H335  1  0.643916  0.513295  0.785427  1
  H  H336  1  0.443282  0.001379  0.785582  1
