# generated using pymatgen
data_Si15H2O31
_symmetry_space_group_name_H-M   'P 1'
_cell_length_a   18.63077127
_cell_length_b   8.35219177
_cell_length_c   52.95458426
_cell_angle_alpha   90.00000000
_cell_angle_beta   120.00000000
_cell_angle_gamma   90.00000000
_symmetry_Int_Tables_number   1
_chemical_formula_structural   Si15H2O31
_chemical_formula_sum   'Si60 H8 O124'
_cell_volume   7136.17490536
_cell_formula_units_Z   4
loop_
 _symmetry_equiv_pos_site_id
 _symmetry_equiv_pos_as_xyz
  1  'x, y, z'
loop_
 _atom_site_type_symbol
 _atom_site_label
 _atom_site_symmetry_multiplicity
 _atom_site_fract_x
 _atom_site_fract_y
 _atom_site_fract_z
 _atom_site_occupancy
  O  O1  1  0.598090  0.013240  0.181017  1
  O  O2  1  0.804128  0.006561  0.180514  1
  O  O3  1  0.401697  0.487048  0.322323  1
  O  O4  1  0.402253  0.487438  0.249564  1
  O  O5  1  0.195648  0.493662  0.249351  1
  O  O6  1  0.804128  0.493704  0.180519  1
  O  O7  1  0.598087  0.487049  0.181019  1
  O  O8  1  0.195648  0.006603  0.249347  1
  O  O9  1  0.402255  0.012857  0.249561  1
  O  O10  1  0.401695  0.013241  0.322320  1
  O  O11  1  0.753173  0.991293  0.126023  1
  O  O12  1  0.494064  0.990680  0.126257  1
  O  O13  1  0.753080  0.991225  0.217424  1
  O  O14  1  0.246724  0.509108  0.304218  1
  O  O15  1  0.505717  0.509569  0.304158  1
  O  O16  1  0.246580  0.509012  0.212777  1
  O  O17  1  0.753175  0.508999  0.126027  1
  O  O18  1  0.753079  0.509066  0.217427  1
  O  O19  1  0.494061  0.509593  0.126261  1
  O  O20  1  0.246723  0.991184  0.304215  1
  O  O21  1  0.246581  0.991280  0.212773  1
  O  O22  1  0.505714  0.990704  0.304153  1
  O  O23  1  0.443670  0.987000  0.164527  1
  O  O24  1  0.911811  0.996674  0.234573  1
  O  O25  1  0.355143  0.499252  0.360178  1
  O  O26  1  0.556497  0.498927  0.266079  1
  O  O27  1  0.087391  0.488938  0.194629  1
  O  O28  1  0.912358  0.488929  0.163859  1
  O  O29  1  0.644652  0.499260  0.235249  1
  O  O30  1  0.087995  0.996684  0.265545  1
  O  O31  1  0.355847  0.986989  0.195256  1
  O  O32  1  0.556102  0.986987  0.360152  1
  O  O33  1  0.355141  0.001022  0.360175  1
  O  O34  1  0.556498  0.001369  0.266076  1
  O  O35  1  0.087393  0.011345  0.194625  1
  O  O36  1  0.443669  0.513297  0.164531  1
  O  O37  1  0.911810  0.503609  0.234576  1
  O  O38  1  0.087997  0.503600  0.265549  1
  O  O39  1  0.355843  0.513285  0.195259  1
  O  O40  1  0.556103  0.513311  0.360156  1
  O  O41  1  0.912355  0.011354  0.163854  1
  O  O42  1  0.644654  0.001014  0.235246  1
  O  O43  1  0.524907  0.750144  0.160160  1
  O  O44  1  0.822376  0.750138  0.208466  1
  O  O45  1  0.323984  0.250142  0.327754  1
  O  O46  1  0.495045  0.250142  0.276977  1
  O  O47  1  0.184692  0.250142  0.219021  1
  O  O48  1  0.815071  0.250140  0.154050  1
  O  O49  1  0.675802  0.250140  0.213789  1
  O  O50  1  0.177393  0.750136  0.270868  1
  O  O51  1  0.342744  0.750141  0.223698  1
  O  O52  1  0.474866  0.750142  0.327198  1
  O  O53  1  0.000000  0.985551  0.214678  1
  O  O54  1  0.499974  0.019873  0.391024  1
  O  O55  1  0.499805  0.019868  0.215142  1
  O  O56  1  0.000000  0.514755  0.214682  1
  O  O57  1  0.499975  0.480406  0.391028  1
  O  O58  1  0.499803  0.480412  0.215146  1
  O  O59  1  0.000000  0.250145  0.238942  1
  O  O60  1  0.589594  0.250141  0.390973  1
  O  O61  1  0.410177  0.250141  0.183566  1
  O  O62  1  -0.000000  0.750140  0.184053  1
  O  O63  1  0.434002  0.750141  0.391118  1
  O  O64  1  0.565787  0.750141  0.238443  1
  O  O65  1  0.597513  0.012867  0.459762  1
  O  O66  1  0.598090  0.013240  0.532720  1
  O  O67  1  0.804128  0.006561  0.532218  1
  O  O68  1  0.402253  0.487438  0.601268  1
  O  O69  1  0.195648  0.493662  0.601055  1
  O  O70  1  0.804128  0.493704  0.532223  1
  O  O71  1  0.598087  0.487049  0.532723  1
  O  O72  1  0.597516  0.487427  0.459766  1
  O  O73  1  0.195648  0.006603  0.601051  1
  O  O74  1  0.402255  0.012857  0.601265  1
  O  O75  1  0.753173  0.991293  0.477727  1
  O  O76  1  0.494064  0.990680  0.477961  1
  O  O77  1  0.753080  0.991225  0.569128  1
  O  O78  1  0.246724  0.509108  0.655922  1
  O  O79  1  0.505717  0.509569  0.655861  1
  O  O80  1  0.246580  0.509012  0.564480  1
  O  O81  1  0.753175  0.508999  0.477731  1
  O  O82  1  0.753079  0.509066  0.569131  1
  O  O83  1  0.494061  0.509593  0.477965  1
  O  O84  1  0.246723  0.991184  0.655918  1
  O  O85  1  0.246581  0.991280  0.564477  1
  O  O86  1  0.505714  0.990704  0.655857  1
  O  O87  1  0.643913  0.986979  0.421777  1
  O  O88  1  0.443670  0.987000  0.516231  1
  O  O89  1  0.911811  0.996674  0.586277  1
  O  O90  1  0.556497  0.498927  0.617783  1
  O  O91  1  0.087391  0.488938  0.546333  1
  O  O92  1  0.912358  0.488929  0.515563  1
  O  O93  1  0.644652  0.499260  0.586953  1
  O  O94  1  0.443283  0.498916  0.422021  1
  O  O95  1  0.087995  0.996684  0.617249  1
  O  O96  1  0.355847  0.986989  0.546960  1
  O  O97  1  0.556498  0.001369  0.617780  1
  O  O98  1  0.087393  0.011345  0.546329  1
  O  O99  1  0.643916  0.513295  0.421781  1
  O  O100  1  0.443669  0.513297  0.516235  1
  O  O101  1  0.911810  0.503609  0.586280  1
  O  O102  1  0.087997  0.503600  0.617253  1
  O  O103  1  0.355843  0.513285  0.546963  1
  O  O104  1  0.912355  0.011354  0.515558  1
  O  O105  1  0.644654  0.001014  0.586950  1
  O  O106  1  0.443282  0.001379  0.422017  1
  O  O107  1  0.657010  0.750143  0.454831  1
  O  O108  1  0.524907  0.750144  0.511863  1
  O  O109  1  0.822376  0.750138  0.560170  1
  O  O110  1  0.495045  0.250142  0.628681  1
  O  O111  1  0.184692  0.250142  0.570725  1
  O  O112  1  0.815071  0.250140  0.505754  1
  O  O113  1  0.675802  0.250140  0.565493  1
  O  O114  1  0.504729  0.250140  0.454543  1
  O  O115  1  0.177393  0.750136  0.622572  1
  O  O116  1  0.342744  0.750141  0.575402  1
  O  O117  1  0.000000  0.985551  0.566382  1
  O  O118  1  0.499805  0.019868  0.566846  1
  O  O119  1  -0.000000  0.514755  0.566386  1
  O  O120  1  0.499803  0.480412  0.566850  1
  O  O121  1  -0.000000  0.250145  0.590645  1
  O  O122  1  0.410177  0.250141  0.535270  1
  O  O123  1  0.000000  0.750140  0.535756  1
  O  O124  1  0.565787  0.750141  0.590147  1
  Si  Si125  1  0.514103  0.935386  0.157372  1
  Si  Si126  1  0.821751  0.935737  0.210603  1
  Si  Si127  1  0.330405  0.435980  0.328387  1
  Si  Si128  1  0.490639  0.436003  0.274702  1
  Si  Si129  1  0.178674  0.435814  0.218581  1
  Si  Si130  1  0.821093  0.435815  0.155721  1
  Si  Si131  1  0.669393  0.435982  0.212163  1
  Si  Si132  1  0.178033  0.935736  0.273235  1
  Si  Si133  1  0.335149  0.935394  0.219945  1
  Si  Si134  1  0.485673  0.935387  0.328216  1
  Si  Si135  1  0.330403  0.064301  0.328384  1
  Si  Si136  1  0.490639  0.064284  0.274699  1
  Si  Si137  1  0.178675  0.064464  0.218579  1
  Si  Si138  1  0.514101  0.564900  0.157375  1
  Si  Si139  1  0.821750  0.564544  0.210606  1
  Si  Si140  1  0.178033  0.564546  0.273238  1
  Si  Si141  1  0.335149  0.564891  0.219948  1
  Si  Si142  1  0.485675  0.564901  0.328219  1
  Si  Si143  1  0.821093  0.064465  0.155717  1
  Si  Si144  1  0.669396  0.064301  0.212160  1
  Si  Si145  1  -0.000000  0.061870  0.241249  1
  Si  Si146  1  0.580458  0.062302  0.390978  1
  Si  Si147  1  0.419311  0.062304  0.186785  1
  Si  Si148  1  0.000000  0.562279  0.186598  1
  Si  Si149  1  0.425574  0.562049  0.391092  1
  Si  Si150  1  0.574216  0.562051  0.241382  1
  Si  Si151  1  0.000000  0.938010  0.186595  1
  Si  Si152  1  0.425572  0.938233  0.391088  1
  Si  Si153  1  0.574217  0.938232  0.241380  1
  Si  Si154  1  0.000000  0.438420  0.241253  1
  Si  Si155  1  0.580461  0.437981  0.390982  1
  Si  Si156  1  0.419309  0.437980  0.186787  1
  Si  Si157  1  0.664602  0.935392  0.453747  1
  Si  Si158  1  0.514103  0.935386  0.509076  1
  Si  Si159  1  0.821751  0.935737  0.562307  1
  Si  Si160  1  0.490639  0.436003  0.626406  1
  Si  Si161  1  0.178674  0.435814  0.570285  1
  Si  Si162  1  0.821093  0.435815  0.507425  1
  Si  Si163  1  0.669393  0.435982  0.563867  1
  Si  Si164  1  0.509136  0.436003  0.453815  1
  Si  Si165  1  0.178033  0.935736  0.624939  1
  Si  Si166  1  0.335149  0.935394  0.571649  1
  Si  Si167  1  0.490639  0.064284  0.626403  1
  Si  Si168  1  0.178675  0.064464  0.570282  1
  Si  Si169  1  0.664603  0.564891  0.453751  1
  Si  Si170  1  0.514101  0.564900  0.509079  1
  Si  Si171  1  0.821750  0.564544  0.562310  1
  Si  Si172  1  0.178033  0.564546  0.624942  1
  Si  Si173  1  0.335149  0.564891  0.571652  1
  Si  Si174  1  0.821093  0.064465  0.507421  1
  Si  Si175  1  0.669396  0.064301  0.563864  1
  Si  Si176  1  0.509136  0.064287  0.453812  1
  Si  Si177  1  0.000000  0.061870  0.592953  1
  Si  Si178  1  0.419311  0.062304  0.538488  1
  Si  Si179  1  0.000000  0.562279  0.538302  1
  Si  Si180  1  0.574216  0.562051  0.593086  1
  Si  Si181  1  -0.000000  0.938010  0.538299  1
  Si  Si182  1  0.574217  0.938232  0.593083  1
  Si  Si183  1  0.000000  0.438420  0.592956  1
  Si  Si184  1  0.419309  0.437980  0.538491  1
  H  H185  1  0.753173  0.991293  0.109027  1
  H  H186  1  0.494064  0.990680  0.109262  1
  H  H187  1  0.753175  0.508999  0.109032  1
  H  H188  1  0.494061  0.509593  0.109266  1
  H  H189  1  0.246724  0.509108  0.672918  1
  H  H190  1  0.505717  0.509569  0.672857  1
  H  H191  1  0.246723  0.991184  0.672914  1
  H  H192  1  0.505714  0.990704  0.672852  1
