# generated using pymatgen
data_Si86H18O181
_symmetry_space_group_name_H-M   'P 1'
_cell_length_a   14.20306309
_cell_length_b   35.25439057
_cell_length_c   62.78302598
_cell_angle_alpha   90.00000000
_cell_angle_beta   45.05152913
_cell_angle_gamma   78.35781339
_symmetry_Int_Tables_number   1
_chemical_formula_structural   Si86H18O181
_chemical_formula_sum   'Si172 H36 O362'
_cell_volume   21325.5221748
_cell_formula_units_Z   2
loop_
 _symmetry_equiv_pos_site_id
 _symmetry_equiv_pos_as_xyz
  1  'x, y, z'
loop_
 _atom_site_type_symbol
 _atom_site_label
 _atom_site_symmetry_multiplicity
 _atom_site_fract_x
 _atom_site_fract_y
 _atom_site_fract_z
 _atom_site_occupancy
  O  O1  1  0.306884  0.261658  0.136137  1
  O  O2  1  0.489287  0.261530  0.135846  1
  O  O3  1  0.849964  0.900067  0.129319  1
  O  O4  1  0.348831  0.901186  0.129494  1
  O  O5  1  0.920619  0.078934  0.188508  1
  O  O6  1  0.421610  0.078908  0.287108  1
  O  O7  1  0.728896  0.078968  0.188593  1
  O  O8  1  0.613305  0.079002  0.287009  1
  O  O9  1  0.910462  0.133390  0.216910  1
  O  O10  1  0.322863  0.133322  0.276101  1
  O  O11  1  0.507593  0.133824  0.217210  1
  O  O12  1  0.724787  0.133894  0.275956  1
  O  O13  1  0.034010  0.063530  0.206558  1
  O  O14  1  0.339069  0.063464  0.264132  1
  O  O15  1  0.516280  0.064614  0.206660  1
  O  O16  1  0.854578  0.064687  0.264380  1
  O  O17  1  0.151204  0.098814  0.161078  1
  O  O18  1  0.650085  0.099927  0.161250  1
  O  O19  1  0.307160  0.037134  0.231293  1
  O  O20  1  0.118642  0.037113  0.230954  1
  O  O21  1  0.996489  0.000000  0.226316  1
  O  O22  1  0.816435  0.018470  0.200909  1
  O  O23  1  0.646763  0.018475  0.255369  1
  O  O24  1  0.670038  0.079999  0.237970  1
  O  O25  1  0.748163  0.248425  0.186028  1
  O  O26  1  0.254954  0.248461  0.183985  1
  O  O27  1  0.244993  0.251562  0.265490  1
  O  O28  1  0.751776  0.251642  0.265355  1
  O  O29  1  0.669657  0.261738  0.238113  1
  O  O30  1  0.306884  0.261658  0.295958  1
  O  O31  1  0.487679  0.261451  0.238334  1
  O  O32  1  0.489287  0.261530  0.295667  1
  O  O33  1  0.010796  0.238412  0.292338  1
  O  O34  1  0.012272  0.238526  0.234300  1
  O  O35  1  0.192357  0.238420  0.234345  1
  O  O36  1  0.830787  0.238450  0.292280  1
  O  O37  1  0.622697  0.316822  0.215143  1
  O  O38  1  0.243290  0.316847  0.176711  1
  O  O39  1  0.256353  0.183169  0.254600  1
  O  O40  1  0.877333  0.183247  0.254336  1
  O  O41  1  0.410881  0.196712  0.256978  1
  O  O42  1  0.695643  0.196793  0.256315  1
  O  O43  1  0.805410  0.303276  0.159046  1
  O  O44  1  0.088299  0.303324  0.228488  1
  O  O45  1  0.887552  0.420965  0.163269  1
  O  O46  1  0.770652  0.421141  0.261917  1
  O  O47  1  0.078903  0.421005  0.261923  1
  O  O48  1  0.579149  0.421176  0.163303  1
  O  O49  1  0.774054  0.366551  0.188288  1
  O  O50  1  0.991841  0.366319  0.219580  1
  O  O51  1  0.176373  0.366625  0.219502  1
  O  O52  1  0.590442  0.366292  0.188046  1
  O  O53  1  0.645864  0.436382  0.217496  1
  O  O54  1  0.982925  0.435658  0.212046  1
  O  O55  1  0.161109  0.436455  0.212618  1
  O  O56  1  0.464847  0.435552  0.217842  1
  O  O57  1  0.848204  0.400695  0.209523  1
  O  O58  1  0.349333  0.400689  0.209151  1
  O  O59  1  0.382285  0.462918  0.268880  1
  O  O60  1  0.192796  0.462849  0.169639  1
  O  O61  1  0.853896  0.481529  0.302182  1
  O  O62  1  0.683543  0.481574  0.302171  1
  O  O63  1  0.830088  0.420022  0.292344  1
  O  O64  1  0.112990  0.578833  0.287128  1
  O  O65  1  0.229645  0.578967  0.188522  1
  O  O66  1  0.921516  0.578853  0.188523  1
  O  O67  1  0.420982  0.579000  0.287162  1
  O  O68  1  0.223966  0.633770  0.262457  1
  O  O69  1  0.007668  0.633512  0.230818  1
  O  O70  1  0.823172  0.633823  0.230753  1
  O  O71  1  0.409342  0.633481  0.262219  1
  O  O72  1  0.354331  0.564569  0.232569  1
  O  O73  1  0.018221  0.563817  0.237951  1
  O  O74  1  0.835626  0.564637  0.238539  1
  O  O75  1  0.534079  0.563716  0.232899  1
  O  O76  1  0.149513  0.599437  0.241290  1
  O  O77  1  0.650628  0.599439  0.240919  1
  O  O78  1  0.618526  0.537110  0.181516  1
  O  O79  1  0.808195  0.537038  0.280723  1
  O  O80  1  0.496807  0.500073  0.225238  1
  O  O81  1  0.997564  0.500216  0.225024  1
  O  O82  1  0.754830  0.748397  0.185018  1
  O  O83  1  0.248586  0.748472  0.184953  1
  O  O84  1  0.251685  0.751599  0.264369  1
  O  O85  1  0.745396  0.751636  0.266436  1
  O  O86  1  0.989041  0.761651  0.158116  1
  O  O87  1  0.987884  0.761730  0.216085  1
  O  O88  1  0.807704  0.761599  0.216103  1
  O  O89  1  0.169361  0.761652  0.158074  1
  O  O90  1  0.331372  0.738534  0.212085  1
  O  O91  1  0.691836  0.738491  0.154718  1
  O  O92  1  0.512397  0.738217  0.212265  1
  O  O93  1  0.511299  0.738332  0.154458  1
  O  O94  1  0.742851  0.816816  0.196048  1
  O  O95  1  0.123715  0.816884  0.195785  1
  O  O96  1  0.376551  0.683176  0.235304  1
  O  O97  1  0.756955  0.683218  0.273642  1
  O  O98  1  0.194650  0.696799  0.291403  1
  O  O99  1  0.912269  0.696823  0.221893  1
  O  O100  1  0.587085  0.803207  0.194090  1
  O  O101  1  0.306585  0.803289  0.193432  1
  O  O102  1  0.078853  0.921104  0.261794  1
  O  O103  1  0.579052  0.921070  0.163385  1
  O  O104  1  0.269989  0.921126  0.261891  1
  O  O105  1  0.387914  0.921159  0.163271  1
  O  O106  1  0.091640  0.866204  0.233181  1
  O  O107  1  0.676114  0.866133  0.174440  1
  O  O108  1  0.491872  0.866623  0.233489  1
  O  O109  1  0.274983  0.866691  0.174282  1
  O  O110  1  0.964857  0.935363  0.243726  1
  O  O111  1  0.664566  0.935295  0.186007  1
  O  O112  1  0.481056  0.936447  0.243827  1
  O  O113  1  0.146140  0.936511  0.186258  1
  O  O114  1  0.849964  0.900067  0.289140  1
  O  O115  1  0.348831  0.901186  0.289315  1
  O  O116  1  0.691774  0.962948  0.219437  1
  O  O117  1  0.882419  0.962926  0.219099  1
  O  O118  1  0.182929  0.981587  0.249480  1
  O  O119  1  0.354027  0.981587  0.195017  1
  O  O120  1  0.329979  0.920063  0.212417  1
  O  O121  1  0.503360  -0.000000  0.224070  1
  O  O122  1  0.920619  0.078934  0.348329  1
  O  O123  1  0.421610  0.078908  0.446929  1
  O  O124  1  0.728896  0.078968  0.348414  1
  O  O125  1  0.613305  0.079002  0.446830  1
  O  O126  1  0.910462  0.133390  0.376731  1
  O  O127  1  0.322863  0.133322  0.435922  1
  O  O128  1  0.507593  0.133824  0.377031  1
  O  O129  1  0.724787  0.133894  0.435777  1
  O  O130  1  0.034010  0.063530  0.366379  1
  O  O131  1  0.339069  0.063464  0.423953  1
  O  O132  1  0.516280  0.064614  0.366481  1
  O  O133  1  0.854578  0.064687  0.424201  1
  O  O134  1  0.151204  0.098814  0.320899  1
  O  O135  1  0.650085  0.099927  0.321071  1
  O  O136  1  0.307160  0.037134  0.391114  1
  O  O137  1  0.118642  0.037113  0.390775  1
  O  O138  1  0.996489  0.000000  0.386137  1
  O  O139  1  0.816435  0.018470  0.360730  1
  O  O140  1  0.646763  0.018475  0.415190  1
  O  O141  1  0.670038  0.079999  0.397791  1
  O  O142  1  0.748163  0.248425  0.345849  1
  O  O143  1  0.254954  0.248461  0.343806  1
  O  O144  1  0.244993  0.251562  0.425310  1
  O  O145  1  0.751776  0.251642  0.425176  1
  O  O146  1  0.669657  0.261738  0.397934  1
  O  O147  1  0.306884  0.261658  0.455779  1
  O  O148  1  0.487679  0.261451  0.398155  1
  O  O149  1  0.489287  0.261530  0.455488  1
  O  O150  1  0.010796  0.238412  0.452159  1
  O  O151  1  0.012272  0.238526  0.394121  1
  O  O152  1  0.192357  0.238420  0.394166  1
  O  O153  1  0.830787  0.238450  0.452101  1
  O  O154  1  0.622697  0.316822  0.374964  1
  O  O155  1  0.243290  0.316847  0.336532  1
  O  O156  1  0.256353  0.183169  0.414421  1
  O  O157  1  0.877333  0.183247  0.414157  1
  O  O158  1  0.410881  0.196712  0.416799  1
  O  O159  1  0.695643  0.196793  0.416136  1
  O  O160  1  0.805410  0.303276  0.318867  1
  O  O161  1  0.088299  0.303324  0.388309  1
  O  O162  1  0.887552  0.420965  0.323090  1
  O  O163  1  0.770652  0.421141  0.421738  1
  O  O164  1  0.078903  0.421005  0.421744  1
  O  O165  1  0.579149  0.421176  0.323124  1
  O  O166  1  0.774054  0.366551  0.348109  1
  O  O167  1  0.991841  0.366319  0.379401  1
  O  O168  1  0.176373  0.366625  0.379323  1
  O  O169  1  0.590442  0.366292  0.347867  1
  O  O170  1  0.645864  0.436382  0.377317  1
  O  O171  1  0.982925  0.435658  0.371867  1
  O  O172  1  0.161109  0.436455  0.372439  1
  O  O173  1  0.464847  0.435552  0.377663  1
  O  O174  1  0.848204  0.400695  0.369344  1
  O  O175  1  0.349333  0.400689  0.368972  1
  O  O176  1  0.382285  0.462918  0.428701  1
  O  O177  1  0.192796  0.462849  0.329460  1
  O  O178  1  0.853896  0.481529  0.462003  1
  O  O179  1  0.683543  0.481574  0.461992  1
  O  O180  1  0.830088  0.420022  0.452165  1
  O  O181  1  0.112990  0.578833  0.446949  1
  O  O182  1  0.229645  0.578967  0.348343  1
  O  O183  1  0.921516  0.578853  0.348344  1
  O  O184  1  0.420982  0.579000  0.446983  1
  O  O185  1  0.223966  0.633770  0.422278  1
  O  O186  1  0.007668  0.633512  0.390639  1
  O  O187  1  0.823172  0.633823  0.390574  1
  O  O188  1  0.409342  0.633481  0.422040  1
  O  O189  1  0.354331  0.564569  0.392390  1
  O  O190  1  0.018221  0.563817  0.397772  1
  O  O191  1  0.835626  0.564637  0.398360  1
  O  O192  1  0.534079  0.563716  0.392720  1
  O  O193  1  0.149513  0.599437  0.401111  1
  O  O194  1  0.650628  0.599439  0.400740  1
  O  O195  1  0.618526  0.537110  0.341337  1
  O  O196  1  0.808195  0.537038  0.440544  1
  O  O197  1  0.496807  0.500073  0.385059  1
  O  O198  1  0.997564  0.500216  0.384845  1
  O  O199  1  0.146660  0.518426  0.308076  1
  O  O200  1  0.317093  0.518449  0.308063  1
  O  O201  1  0.170214  0.579959  0.317911  1
  O  O202  1  0.754830  0.748397  0.344839  1
  O  O203  1  0.248586  0.748472  0.344774  1
  O  O204  1  0.251685  0.751599  0.424190  1
  O  O205  1  0.745396  0.751636  0.426257  1
  O  O206  1  0.989041  0.761651  0.317937  1
  O  O207  1  0.987884  0.761730  0.375906  1
  O  O208  1  0.807704  0.761599  0.375924  1
  O  O209  1  0.169361  0.761652  0.317895  1
  O  O210  1  0.331372  0.738534  0.371906  1
  O  O211  1  0.691836  0.738491  0.314539  1
  O  O212  1  0.512397  0.738217  0.372086  1
  O  O213  1  0.511299  0.738332  0.314279  1
  O  O214  1  0.742851  0.816816  0.355869  1
  O  O215  1  0.123715  0.816884  0.355606  1
  O  O216  1  0.376551  0.683176  0.395125  1
  O  O217  1  0.756955  0.683218  0.433463  1
  O  O218  1  0.194650  0.696799  0.451224  1
  O  O219  1  0.912269  0.696823  0.381714  1
  O  O220  1  0.587085  0.803207  0.353911  1
  O  O221  1  0.306585  0.803289  0.353253  1
  O  O222  1  0.078853  0.921104  0.421615  1
  O  O223  1  0.579052  0.921070  0.323206  1
  O  O224  1  0.269989  0.921126  0.421712  1
  O  O225  1  0.387914  0.921159  0.323092  1
  O  O226  1  0.091640  0.866204  0.393002  1
  O  O227  1  0.676114  0.866133  0.334261  1
  O  O228  1  0.491872  0.866623  0.393310  1
  O  O229  1  0.274983  0.866691  0.334103  1
  O  O230  1  0.964857  0.935363  0.403547  1
  O  O231  1  0.664566  0.935295  0.345828  1
  O  O232  1  0.481056  0.936447  0.403648  1
  O  O233  1  0.146140  0.936511  0.346079  1
  O  O234  1  0.849964  0.900067  0.448961  1
  O  O235  1  0.348831  0.901186  0.449136  1
  O  O236  1  0.691774  0.962948  0.379258  1
  O  O237  1  0.882419  0.962926  0.378920  1
  O  O238  1  0.182929  0.981587  0.409301  1
  O  O239  1  0.354027  0.981587  0.354838  1
  O  O240  1  0.329979  0.920063  0.372238  1
  O  O241  1  0.503360  -0.000000  0.383891  1
  O  O242  1  0.920619  0.078934  0.508150  1
  O  O243  1  0.421610  0.078908  0.606750  1
  O  O244  1  0.728896  0.078968  0.508235  1
  O  O245  1  0.613305  0.079002  0.606651  1
  O  O246  1  0.910462  0.133390  0.536552  1
  O  O247  1  0.322863  0.133322  0.595743  1
  O  O248  1  0.507593  0.133824  0.536852  1
  O  O249  1  0.724787  0.133894  0.595598  1
  O  O250  1  0.034010  0.063530  0.526200  1
  O  O251  1  0.339069  0.063464  0.583773  1
  O  O252  1  0.516280  0.064614  0.526302  1
  O  O253  1  0.854578  0.064687  0.584022  1
  O  O254  1  0.151204  0.098814  0.480720  1
  O  O255  1  0.650085  0.099927  0.480892  1
  O  O256  1  0.307160  0.037134  0.550935  1
  O  O257  1  0.118642  0.037113  0.550596  1
  O  O258  1  0.996489  0.000000  0.545958  1
  O  O259  1  0.816435  0.018470  0.520551  1
  O  O260  1  0.646763  0.018475  0.575011  1
  O  O261  1  0.670038  0.079999  0.557612  1
  O  O262  1  0.748163  0.248425  0.505670  1
  O  O263  1  0.254954  0.248461  0.503627  1
  O  O264  1  0.244993  0.251562  0.585131  1
  O  O265  1  0.751776  0.251642  0.584997  1
  O  O266  1  0.669657  0.261738  0.557755  1
  O  O267  1  0.306884  0.261658  0.615600  1
  O  O268  1  0.487679  0.261451  0.557976  1
  O  O269  1  0.489287  0.261530  0.615309  1
  O  O270  1  0.010796  0.238412  0.611980  1
  O  O271  1  0.012272  0.238526  0.553942  1
  O  O272  1  0.192357  0.238420  0.553987  1
  O  O273  1  0.830787  0.238450  0.611922  1
  O  O274  1  0.622697  0.316822  0.534785  1
  O  O275  1  0.243290  0.316847  0.496353  1
  O  O276  1  0.256353  0.183169  0.574242  1
  O  O277  1  0.877333  0.183247  0.573978  1
  O  O278  1  0.410881  0.196712  0.576620  1
  O  O279  1  0.695643  0.196793  0.575957  1
  O  O280  1  0.805410  0.303276  0.478688  1
  O  O281  1  0.088299  0.303324  0.548130  1
  O  O282  1  0.887552  0.420965  0.482911  1
  O  O283  1  0.770652  0.421141  0.581559  1
  O  O284  1  0.078903  0.421005  0.581565  1
  O  O285  1  0.579149  0.421176  0.482945  1
  O  O286  1  0.774054  0.366551  0.507930  1
  O  O287  1  0.991841  0.366319  0.539222  1
  O  O288  1  0.176373  0.366625  0.539144  1
  O  O289  1  0.590442  0.366292  0.507688  1
  O  O290  1  0.645864  0.436382  0.537138  1
  O  O291  1  0.982925  0.435658  0.531688  1
  O  O292  1  0.161109  0.436455  0.532260  1
  O  O293  1  0.464847  0.435552  0.537484  1
  O  O294  1  0.848204  0.400695  0.529165  1
  O  O295  1  0.349333  0.400689  0.528793  1
  O  O296  1  0.382285  0.462918  0.588522  1
  O  O297  1  0.192796  0.462849  0.489281  1
  O  O298  1  0.112990  0.578833  0.606770  1
  O  O299  1  0.229645  0.578967  0.508164  1
  O  O300  1  0.921516  0.578853  0.508165  1
  O  O301  1  0.420982  0.579000  0.606804  1
  O  O302  1  0.223966  0.633770  0.582099  1
  O  O303  1  0.007668  0.633512  0.550460  1
  O  O304  1  0.823172  0.633823  0.550395  1
  O  O305  1  0.409342  0.633481  0.581861  1
  O  O306  1  0.354331  0.564569  0.552211  1
  O  O307  1  0.018221  0.563817  0.557593  1
  O  O308  1  0.835626  0.564637  0.558181  1
  O  O309  1  0.534079  0.563716  0.552541  1
  O  O310  1  0.149513  0.599437  0.560932  1
  O  O311  1  0.650628  0.599439  0.560561  1
  O  O312  1  0.618526  0.537110  0.501158  1
  O  O313  1  0.808195  0.537038  0.600365  1
  O  O314  1  0.496807  0.500073  0.544880  1
  O  O315  1  0.997564  0.500216  0.544666  1
  O  O316  1  0.146660  0.518426  0.467897  1
  O  O317  1  0.317093  0.518449  0.467884  1
  O  O318  1  0.170214  0.579959  0.477732  1
  O  O319  1  0.754830  0.748397  0.504660  1
  O  O320  1  0.248586  0.748472  0.504595  1
  O  O321  1  0.251685  0.751599  0.584011  1
  O  O322  1  0.745396  0.751636  0.586078  1
  O  O323  1  0.989041  0.761651  0.477758  1
  O  O324  1  0.987884  0.761730  0.535727  1
  O  O325  1  0.807704  0.761599  0.535745  1
  O  O326  1  0.169361  0.761652  0.477716  1
  O  O327  1  0.331372  0.738534  0.531727  1
  O  O328  1  0.691836  0.738491  0.474360  1
  O  O329  1  0.512397  0.738217  0.531907  1
  O  O330  1  0.511299  0.738332  0.474100  1
  O  O331  1  0.742851  0.816816  0.515690  1
  O  O332  1  0.123715  0.816884  0.515427  1
  O  O333  1  0.376551  0.683176  0.554946  1
  O  O334  1  0.756955  0.683218  0.593284  1
  O  O335  1  0.194650  0.696799  0.611045  1
  O  O336  1  0.912269  0.696823  0.541535  1
  O  O337  1  0.587085  0.803207  0.513732  1
  O  O338  1  0.306585  0.803289  0.513074  1
  O  O339  1  0.078853  0.921104  0.581436  1
  O  O340  1  0.579052  0.921070  0.483027  1
  O  O341  1  0.269989  0.921126  0.581533  1
  O  O342  1  0.387914  0.921159  0.482913  1
  O  O343  1  0.091640  0.866204  0.552823  1
  O  O344  1  0.676114  0.866133  0.494082  1
  O  O345  1  0.491872  0.866623  0.553131  1
  O  O346  1  0.274983  0.866691  0.493924  1
  O  O347  1  0.964857  0.935363  0.563368  1
  O  O348  1  0.664566  0.935295  0.505649  1
  O  O349  1  0.481056  0.936447  0.563469  1
  O  O350  1  0.146140  0.936511  0.505900  1
  O  O351  1  0.849964  0.900067  0.608782  1
  O  O352  1  0.348831  0.901186  0.608957  1
  O  O353  1  0.691774  0.962948  0.539079  1
  O  O354  1  0.882419  0.962926  0.538741  1
  O  O355  1  0.182929  0.981587  0.569122  1
  O  O356  1  0.354027  0.981587  0.514659  1
  O  O357  1  0.329979  0.920063  0.532059  1
  O  O358  1  0.503360  -0.000000  0.543712  1
  O  O359  1  0.151204  0.098814  0.640541  1
  O  O360  1  0.650085  0.099927  0.640713  1
  O  O361  1  0.691836  0.738491  0.634181  1
  O  O362  1  0.511299  0.738332  0.633921  1
  Si  Si363  1  0.237086  0.012947  0.227260  1
  Si  Si364  1  0.008579  0.093906  0.191710  1
  Si  Si365  1  0.303686  0.093851  0.288694  1
  Si  Si366  1  0.605970  0.094507  0.191846  1
  Si  Si367  1  0.705075  0.094563  0.288738  1
  Si  Si368  1  0.413659  0.041959  0.231732  1
  Si  Si369  1  0.002450  0.041995  0.232069  1
  Si  Si370  1  0.378379  0.159323  0.250883  1
  Si  Si371  1  0.802980  0.159401  0.250437  1
  Si  Si372  1  0.792013  0.065080  0.201266  1
  Si  Si373  1  0.577953  0.065085  0.269907  1
  Si  Si374  1  0.626738  0.272428  0.221051  1
  Si  Si375  1  0.328293  0.272445  0.156625  1
  Si  Si376  1  0.171496  0.227567  0.261629  1
  Si  Si377  1  0.873323  0.227644  0.261527  1
  Si  Si378  1  0.363022  0.244468  0.264464  1
  Si  Si379  1  0.647930  0.244552  0.264112  1
  Si  Si380  1  0.136529  0.255564  0.220687  1
  Si  Si381  1  0.794295  0.405920  0.194542  1
  Si  Si382  1  0.893232  0.405767  0.225857  1
  Si  Si383  1  0.196462  0.405970  0.225830  1
  Si  Si384  1  0.491471  0.405729  0.194426  1
  Si  Si385  1  0.496555  0.458070  0.232858  1
  Si  Si386  1  0.086309  0.458105  0.204145  1
  Si  Si387  1  0.697474  0.340667  0.187481  1
  Si  Si388  1  0.120851  0.340707  0.211992  1
  Si  Si389  1  0.922647  0.434906  0.294717  1
  Si  Si390  1  0.707789  0.434977  0.294743  1
  Si  Si391  1  0.263299  0.487077  0.303048  1
  Si  Si392  1  0.204592  0.594317  0.256026  1
  Si  Si393  1  0.106284  0.594138  0.224595  1
  Si  Si394  1  0.802881  0.594389  0.224578  1
  Si  Si395  1  0.508322  0.594133  0.255912  1
  Si  Si396  1  0.502446  0.542034  0.217545  1
  Si  Si397  1  0.912562  0.542066  0.246301  1
  Si  Si398  1  0.301927  0.659374  0.262996  1
  Si  Si399  1  0.879172  0.659406  0.238346  1
  Si  Si400  1  0.828359  0.772435  0.188847  1
  Si  Si401  1  0.127016  0.772502  0.188795  1
  Si  Si402  1  0.373356  0.727554  0.229357  1
  Si  Si403  1  0.671685  0.727599  0.293767  1
  Si  Si404  1  0.147462  0.744561  0.298821  1
  Si  Si405  1  0.863760  0.744584  0.229733  1
  Si  Si406  1  0.636061  0.755445  0.186279  1
  Si  Si407  1  0.353195  0.755529  0.185961  1
  Si  Si408  1  0.991791  0.905500  0.258568  1
  Si  Si409  1  0.697312  0.905441  0.161625  1
  Si  Si410  1  0.392995  0.906127  0.258667  1
  Si  Si411  1  0.294827  0.906182  0.161716  1
  Si  Si412  1  0.587428  0.958002  0.218343  1
  Si  Si413  1  0.996594  0.958035  0.218631  1
  Si  Si414  1  0.620168  0.840627  0.199965  1
  Si  Si415  1  0.198693  0.840702  0.199500  1
  Si  Si416  1  0.207288  0.934979  0.249120  1
  Si  Si417  1  0.422896  0.934979  0.180480  1
  Si  Si418  1  0.762941  0.987112  0.223128  1
  Si  Si419  1  0.237086  0.012947  0.387081  1
  Si  Si420  1  0.008579  0.093906  0.351531  1
  Si  Si421  1  0.303686  0.093851  0.448515  1
  Si  Si422  1  0.605970  0.094507  0.351667  1
  Si  Si423  1  0.705075  0.094563  0.448559  1
  Si  Si424  1  0.413659  0.041959  0.391553  1
  Si  Si425  1  0.002450  0.041995  0.391890  1
  Si  Si426  1  0.378379  0.159323  0.410704  1
  Si  Si427  1  0.802980  0.159401  0.410258  1
  Si  Si428  1  0.792013  0.065080  0.361087  1
  Si  Si429  1  0.577953  0.065085  0.429728  1
  Si  Si430  1  0.626738  0.272428  0.380872  1
  Si  Si431  1  0.328293  0.272445  0.316446  1
  Si  Si432  1  0.171496  0.227567  0.421450  1
  Si  Si433  1  0.873323  0.227644  0.421348  1
  Si  Si434  1  0.363022  0.244468  0.424285  1
  Si  Si435  1  0.647930  0.244552  0.423933  1
  Si  Si436  1  0.852464  0.255515  0.311414  1
  Si  Si437  1  0.136529  0.255564  0.380508  1
  Si  Si438  1  0.794295  0.405920  0.354363  1
  Si  Si439  1  0.893232  0.405767  0.385678  1
  Si  Si440  1  0.196462  0.405970  0.385651  1
  Si  Si441  1  0.491471  0.405729  0.354247  1
  Si  Si442  1  0.496555  0.458070  0.392679  1
  Si  Si443  1  0.086309  0.458105  0.363966  1
  Si  Si444  1  0.697474  0.340667  0.347302  1
  Si  Si445  1  0.120851  0.340707  0.371813  1
  Si  Si446  1  0.922647  0.434906  0.454538  1
  Si  Si447  1  0.707789  0.434977  0.454564  1
  Si  Si448  1  0.263299  0.487077  0.462869  1
  Si  Si449  1  0.204592  0.594317  0.415847  1
  Si  Si450  1  0.106284  0.594138  0.384416  1
  Si  Si451  1  0.802881  0.594389  0.384399  1
  Si  Si452  1  0.508322  0.594133  0.415733  1
  Si  Si453  1  0.502446  0.542034  0.377366  1
  Si  Si454  1  0.912562  0.542066  0.406122  1
  Si  Si455  1  0.301927  0.659374  0.422817  1
  Si  Si456  1  0.879172  0.659406  0.398167  1
  Si  Si457  1  0.077754  0.565024  0.315546  1
  Si  Si458  1  0.292591  0.565068  0.315509  1
  Si  Si459  1  0.737441  0.512911  0.307180  1
  Si  Si460  1  0.828359  0.772435  0.348668  1
  Si  Si461  1  0.127016  0.772502  0.348616  1
  Si  Si462  1  0.373356  0.727554  0.389178  1
  Si  Si463  1  0.671685  0.727599  0.453588  1
  Si  Si464  1  0.147462  0.744561  0.458642  1
  Si  Si465  1  0.863760  0.744584  0.389554  1
  Si  Si466  1  0.636061  0.755445  0.346100  1
  Si  Si467  1  0.353195  0.755529  0.345782  1
  Si  Si468  1  0.991791  0.905500  0.418389  1
  Si  Si469  1  0.697312  0.905441  0.321446  1
  Si  Si470  1  0.392995  0.906127  0.418488  1
  Si  Si471  1  0.294827  0.906182  0.321537  1
  Si  Si472  1  0.587428  0.958002  0.378164  1
  Si  Si473  1  0.996594  0.958035  0.378452  1
  Si  Si474  1  0.620168  0.840627  0.359786  1
  Si  Si475  1  0.198693  0.840702  0.359321  1
  Si  Si476  1  0.207288  0.934979  0.408941  1
  Si  Si477  1  0.422896  0.934979  0.340301  1
  Si  Si478  1  0.762941  0.987112  0.382949  1
  Si  Si479  1  0.237086  0.012947  0.546902  1
  Si  Si480  1  0.008579  0.093906  0.511352  1
  Si  Si481  1  0.303686  0.093851  0.608336  1
  Si  Si482  1  0.605970  0.094507  0.511488  1
  Si  Si483  1  0.705075  0.094563  0.608380  1
  Si  Si484  1  0.413659  0.041959  0.551374  1
  Si  Si485  1  0.002450  0.041995  0.551711  1
  Si  Si486  1  0.378379  0.159323  0.570525  1
  Si  Si487  1  0.802980  0.159401  0.570079  1
  Si  Si488  1  0.792013  0.065080  0.520908  1
  Si  Si489  1  0.577953  0.065085  0.589549  1
  Si  Si490  1  0.626738  0.272428  0.540693  1
  Si  Si491  1  0.328293  0.272445  0.476267  1
  Si  Si492  1  0.171496  0.227567  0.581271  1
  Si  Si493  1  0.873323  0.227644  0.581169  1
  Si  Si494  1  0.363022  0.244468  0.584106  1
  Si  Si495  1  0.647930  0.244552  0.583754  1
  Si  Si496  1  0.852464  0.255515  0.471235  1
  Si  Si497  1  0.136529  0.255564  0.540329  1
  Si  Si498  1  0.794295  0.405920  0.514184  1
  Si  Si499  1  0.893232  0.405767  0.545499  1
  Si  Si500  1  0.196462  0.405970  0.545472  1
  Si  Si501  1  0.491471  0.405729  0.514068  1
  Si  Si502  1  0.496555  0.458070  0.552500  1
  Si  Si503  1  0.086309  0.458105  0.523787  1
  Si  Si504  1  0.697474  0.340667  0.507123  1
  Si  Si505  1  0.120851  0.340707  0.531634  1
  Si  Si506  1  0.204592  0.594317  0.575668  1
  Si  Si507  1  0.106284  0.594138  0.544237  1
  Si  Si508  1  0.802881  0.594389  0.544220  1
  Si  Si509  1  0.508322  0.594133  0.575554  1
  Si  Si510  1  0.502446  0.542034  0.537187  1
  Si  Si511  1  0.912562  0.542066  0.565943  1
  Si  Si512  1  0.301927  0.659374  0.582638  1
  Si  Si513  1  0.879172  0.659406  0.557988  1
  Si  Si514  1  0.077754  0.565024  0.475367  1
  Si  Si515  1  0.292591  0.565068  0.475330  1
  Si  Si516  1  0.737441  0.512911  0.467001  1
  Si  Si517  1  0.828359  0.772435  0.508489  1
  Si  Si518  1  0.127016  0.772502  0.508437  1
  Si  Si519  1  0.373356  0.727554  0.548999  1
  Si  Si520  1  0.671685  0.727599  0.613409  1
  Si  Si521  1  0.863760  0.744584  0.549375  1
  Si  Si522  1  0.636061  0.755445  0.505921  1
  Si  Si523  1  0.353195  0.755529  0.505603  1
  Si  Si524  1  0.991791  0.905500  0.578210  1
  Si  Si525  1  0.697312  0.905441  0.481267  1
  Si  Si526  1  0.392995  0.906127  0.578309  1
  Si  Si527  1  0.294827  0.906182  0.481358  1
  Si  Si528  1  0.587428  0.958002  0.537985  1
  Si  Si529  1  0.996594  0.958035  0.538273  1
  Si  Si530  1  0.620168  0.840627  0.519607  1
  Si  Si531  1  0.198693  0.840702  0.519142  1
  Si  Si532  1  0.207288  0.934979  0.568762  1
  Si  Si533  1  0.422896  0.934979  0.500122  1
  Si  Si534  1  0.762941  0.987112  0.542770  1
  H  H535  1  0.306884  0.261658  0.121802  1
  H  H536  1  0.489287  0.261530  0.121510  1
  H  H537  1  0.849964  0.900067  0.114984  1
  H  H538  1  0.348831  0.901186  0.115159  1
  H  H539  1  0.151204  0.098814  0.146743  1
  H  H540  1  0.650085  0.099927  0.146915  1
  H  H541  1  0.748163  0.248425  0.171693  1
  H  H542  1  0.805410  0.303276  0.144711  1
  H  H543  1  0.887552  0.420965  0.148934  1
  H  H544  1  0.579149  0.421176  0.148968  1
  H  H545  1  0.192796  0.462849  0.155304  1
  H  H546  1  0.229645  0.578967  0.174187  1
  H  H547  1  0.921516  0.578853  0.174188  1
  H  H548  1  0.618526  0.537110  0.167181  1
  H  H549  1  0.989041  0.761651  0.143781  1
  H  H550  1  0.169361  0.761652  0.143739  1
  H  H551  1  0.691836  0.738491  0.140383  1
  H  H552  1  0.511299  0.738332  0.140123  1
  H  H553  1  0.306884  0.261658  0.629935  1
  H  H554  1  0.489287  0.261530  0.629644  1
  H  H555  1  0.010796  0.238412  0.626315  1
  H  H556  1  0.830787  0.238450  0.626257  1
  H  H557  1  0.770652  0.421141  0.595894  1
  H  H558  1  0.078903  0.421005  0.595900  1
  H  H559  1  0.382285  0.462918  0.602857  1
  H  H560  1  0.112990  0.578833  0.621105  1
  H  H561  1  0.420982  0.579000  0.621139  1
  H  H562  1  0.808195  0.537038  0.614700  1
  H  H563  1  0.251685  0.751599  0.598347  1
  H  H564  1  0.194650  0.696799  0.625380  1
  H  H565  1  0.849964  0.900067  0.623117  1
  H  H566  1  0.348831  0.901186  0.623292  1
  H  H567  1  0.151204  0.098814  0.654876  1
  H  H568  1  0.650085  0.099927  0.655048  1
  H  H569  1  0.691836  0.738491  0.648516  1
  H  H570  1  0.511299  0.738332  0.648256  1
