# generated using pymatgen
data_Si4H2O9
_symmetry_space_group_name_H-M   'P 1'
_cell_length_a   10.10746610
_cell_length_b   18.51418868
_cell_length_c   44.12747067
_cell_angle_alpha   134.98382664
_cell_angle_beta   90.00000000
_cell_angle_gamma   90.00000000
_symmetry_Int_Tables_number   1
_chemical_formula_structural   Si4H2O9
_chemical_formula_sum   'Si32 H16 O72'
_cell_volume   5840.6821583
_cell_formula_units_Z   8
loop_
 _symmetry_equiv_pos_site_id
 _symmetry_equiv_pos_as_xyz
  1  'x, y, z'
loop_
 _atom_site_type_symbol
 _atom_site_label
 _atom_site_symmetry_multiplicity
 _atom_site_fract_x
 _atom_site_fract_y
 _atom_site_fract_z
 _atom_site_occupancy
  O  O1  1  0.612944  0.238317  0.180592  1
  O  O2  1  0.112944  0.238317  0.180592  1
  O  O3  1  0.664970  0.977772  0.452231  1
  O  O4  1  0.835204  0.901458  0.465467  1
  O  O5  1  0.664970  0.022385  0.227375  1
  O  O6  1  0.835204  0.098699  0.214139  1
  O  O7  1  0.751847  0.883988  0.378525  1
  O  O8  1  0.748341  0.746708  0.447384  1
  O  O9  1  0.751847  0.116169  0.301081  1
  O  O10  1  0.748341  0.253448  0.232222  1
  O  O11  1  0.002370  0.898876  0.388190  1
  O  O12  1  0.497821  0.764440  0.448229  1
  O  O13  1  0.002370  0.101281  0.291416  1
  O  O14  1  0.497821  0.235717  0.231377  1
  O  O15  1  0.643139  0.050676  0.419235  1
  O  O16  1  0.857064  0.717313  0.389227  1
  O  O17  1  0.643139  0.949480  0.260371  1
  O  O18  1  0.857063  0.282844  0.290379  1
  O  O19  1  0.612944  0.761840  0.202424  1
  O  O20  1  0.887257  0.275127  0.343734  1
  O  O21  1  0.612944  0.238317  0.477183  1
  O  O22  1  0.887257  0.725030  0.335872  1
  O  O23  1  0.606272  0.594991  0.416138  1
  O  O24  1  0.893922  0.162546  0.359835  1
  O  O25  1  0.606272  0.405166  0.263468  1
  O  O26  1  0.893922  0.837611  0.319772  1
  O  O27  1  0.746899  0.846013  0.272395  1
  O  O28  1  0.753341  0.426880  0.363792  1
  O  O29  1  0.746898  0.154143  0.407212  1
  O  O30  1  0.753341  0.573277  0.315815  1
  O  O31  1  0.996782  0.864898  0.274606  1
  O  O32  1  0.503459  0.415433  0.354793  1
  O  O33  1  0.996782  0.135258  0.405000  1
  O  O34  1  0.503459  0.584724  0.324814  1
  O  O35  1  0.859389  0.000000  0.339803  1
  O  O36  1  0.640830  0.500078  0.339803  1
  O  O37  1  0.164970  0.977772  0.452231  1
  O  O38  1  0.335204  0.901458  0.465467  1
  O  O39  1  0.164970  0.022385  0.227375  1
  O  O40  1  0.335204  0.098699  0.214139  1
  O  O41  1  0.251847  0.883988  0.378525  1
  O  O42  1  0.248341  0.746708  0.447384  1
  O  O43  1  0.251847  0.116169  0.301081  1
  O  O44  1  0.248341  0.253448  0.232222  1
  O  O45  1  0.502370  0.898876  0.388190  1
  O  O46  1  0.997821  0.764440  0.448229  1
  O  O47  1  0.502370  0.101281  0.291416  1
  O  O48  1  0.997821  0.235717  0.231377  1
  O  O49  1  0.143139  0.050676  0.419235  1
  O  O50  1  0.357064  0.717312  0.389227  1
  O  O51  1  0.143139  0.949480  0.260371  1
  O  O52  1  0.357064  0.282844  0.290379  1
  O  O53  1  0.112944  0.761840  0.202424  1
  O  O54  1  0.387257  0.275127  0.343734  1
  O  O55  1  0.112944  0.238317  0.477183  1
  O  O56  1  0.387257  0.725030  0.335872  1
  O  O57  1  0.106272  0.594991  0.416138  1
  O  O58  1  0.393922  0.162546  0.359835  1
  O  O59  1  0.106272  0.405166  0.263468  1
  O  O60  1  0.393922  0.837611  0.319772  1
  O  O61  1  0.246898  0.846013  0.272395  1
  O  O62  1  0.253341  0.426880  0.363792  1
  O  O63  1  0.246898  0.154143  0.407211  1
  O  O64  1  0.253341  0.573277  0.315815  1
  O  O65  1  0.496782  0.864898  0.274606  1
  O  O66  1  0.003459  0.415433  0.354793  1
  O  O67  1  0.496782  0.135258  0.405000  1
  O  O68  1  0.003459  0.584724  0.324814  1
  O  O69  1  0.359389  0.000000  0.339803  1
  O  O70  1  0.140830  0.500079  0.339803  1
  O  O71  1  0.612944  0.761840  0.499015  1
  O  O72  1  0.112944  0.761840  0.499015  1
  Si  Si73  1  0.637536  0.953305  0.410534  1
  Si  Si74  1  0.862636  0.785398  0.438300  1
  Si  Si75  1  0.637536  0.046851  0.269073  1
  Si  Si76  1  0.862636  0.214758  0.241306  1
  Si  Si77  1  0.613469  0.714898  0.452201  1
  Si  Si78  1  0.886708  0.164259  0.324759  1
  Si  Si79  1  0.613469  0.285258  0.227405  1
  Si  Si80  1  0.886708  0.835898  0.354848  1
  Si  Si81  1  0.625786  0.853638  0.252504  1
  Si  Si82  1  0.874433  0.352216  0.339374  1
  Si  Si83  1  0.625786  0.146519  0.427103  1
  Si  Si84  1  0.874434  0.647941  0.340232  1
  Si  Si85  1  0.874266  0.882870  0.300508  1
  Si  Si86  1  0.625952  0.484804  0.370055  1
  Si  Si87  1  0.874266  0.117286  0.379098  1
  Si  Si88  1  0.625952  0.515352  0.309551  1
  Si  Si89  1  0.137536  0.953306  0.410534  1
  Si  Si90  1  0.362636  0.785398  0.438300  1
  Si  Si91  1  0.137536  0.046851  0.269072  1
  Si  Si92  1  0.362636  0.214759  0.241307  1
  Si  Si93  1  0.113468  0.714898  0.452201  1
  Si  Si94  1  0.386708  0.164259  0.324759  1
  Si  Si95  1  0.113469  0.285258  0.227405  1
  Si  Si96  1  0.386708  0.835898  0.354848  1
  Si  Si97  1  0.125786  0.853638  0.252504  1
  Si  Si98  1  0.374433  0.352216  0.339374  1
  Si  Si99  1  0.125786  0.146519  0.427103  1
  Si  Si100  1  0.374434  0.647941  0.340232  1
  Si  Si101  1  0.374266  0.882870  0.300508  1
  Si  Si102  1  0.125952  0.484804  0.370055  1
  Si  Si103  1  0.374266  0.117286  0.379098  1
  Si  Si104  1  0.125952  0.515352  0.309551  1
  H  H105  1  0.612944  0.238317  0.160197  1
  H  H106  1  0.112944  0.238317  0.160197  1
  H  H107  1  0.664970  0.977772  0.472627  1
  H  H108  1  0.835204  0.901458  0.485863  1
  H  H109  1  0.664970  0.022385  0.206980  1
  H  H110  1  0.835204  0.098699  0.193744  1
  H  H111  1  0.612944  0.761840  0.182028  1
  H  H112  1  0.612944  0.238317  0.497579  1
  H  H113  1  0.164970  0.977772  0.472627  1
  H  H114  1  0.335204  0.901458  0.485863  1
  H  H115  1  0.164970  0.022385  0.206980  1
  H  H116  1  0.335204  0.098699  0.193744  1
  H  H117  1  0.112944  0.761840  0.182028  1
  H  H118  1  0.112944  0.238317  0.497579  1
  H  H119  1  0.612944  0.761840  0.519410  1
  H  H120  1  0.112944  0.761840  0.519410  1
