# generated using pymatgen
data_Si6H2O13
_symmetry_space_group_name_H-M   'P 1'
_cell_length_a   18.63077127
_cell_length_b   8.35219177
_cell_length_c   34.33025213
_cell_angle_alpha   90.00000000
_cell_angle_beta   120.00000000
_cell_angle_gamma   90.00000000
_symmetry_Int_Tables_number   1
_chemical_formula_structural   Si6H2O13
_chemical_formula_sum   'Si24 H8 O52'
_cell_volume   4626.35458623
_cell_formula_units_Z   4
loop_
 _symmetry_equiv_pos_site_id
 _symmetry_equiv_pos_as_xyz
  1  'x, y, z'
loop_
 _atom_site_type_symbol
 _atom_site_label
 _atom_site_symmetry_multiplicity
 _atom_site_fract_x
 _atom_site_fract_y
 _atom_site_fract_z
 _atom_site_occupancy
  O  O1  1  0.598090  0.013240  0.279219  1
  O  O2  1  0.804128  0.006561  0.278444  1
  O  O3  1  0.402253  0.487438  0.384954  1
  O  O4  1  0.195648  0.493662  0.384626  1
  O  O5  1  0.804128  0.493704  0.278451  1
  O  O6  1  0.598087  0.487049  0.279223  1
  O  O7  1  0.195648  0.006603  0.384619  1
  O  O8  1  0.402255  0.012857  0.384949  1
  O  O9  1  0.753173  0.991293  0.194391  1
  O  O10  1  0.494064  0.990680  0.194753  1
  O  O11  1  0.753080  0.991225  0.335378  1
  O  O12  1  0.246724  0.509108  0.469258  1
  O  O13  1  0.505717  0.509569  0.469165  1
  O  O14  1  0.246580  0.509012  0.328209  1
  O  O15  1  0.753175  0.508999  0.194398  1
  O  O16  1  0.753079  0.509066  0.335383  1
  O  O17  1  0.494061  0.509593  0.194759  1
  O  O18  1  0.246723  0.991184  0.469253  1
  O  O19  1  0.246581  0.991280  0.328203  1
  O  O20  1  0.505714  0.990704  0.469157  1
  O  O21  1  0.443670  0.987000  0.253784  1
  O  O22  1  0.911811  0.996674  0.361829  1
  O  O23  1  0.556497  0.498927  0.410428  1
  O  O24  1  0.087391  0.488938  0.300216  1
  O  O25  1  0.912358  0.488929  0.252753  1
  O  O26  1  0.644652  0.499260  0.362873  1
  O  O27  1  0.087995  0.996684  0.409605  1
  O  O28  1  0.355847  0.986989  0.301183  1
  O  O29  1  0.556498  0.001369  0.410424  1
  O  O30  1  0.087393  0.011345  0.300211  1
  O  O31  1  0.443669  0.513297  0.253790  1
  O  O32  1  0.911810  0.503609  0.361835  1
  O  O33  1  0.087997  0.503600  0.409611  1
  O  O34  1  0.355843  0.513285  0.301188  1
  O  O35  1  0.912355  0.011354  0.252746  1
  O  O36  1  0.644654  0.001014  0.362868  1
  O  O37  1  0.524907  0.750144  0.247047  1
  O  O38  1  0.822376  0.750138  0.321560  1
  O  O39  1  0.495045  0.250142  0.427239  1
  O  O40  1  0.184692  0.250142  0.337841  1
  O  O41  1  0.815071  0.250140  0.237623  1
  O  O42  1  0.675802  0.250140  0.329771  1
  O  O43  1  0.177393  0.750136  0.417815  1
  O  O44  1  0.342744  0.750141  0.345056  1
  O  O45  1  0.000000  0.985551  0.331142  1
  O  O46  1  0.499805  0.019868  0.331858  1
  O  O47  1  0.000000  0.514755  0.331148  1
  O  O48  1  0.499803  0.480412  0.331864  1
  O  O49  1  0.000000  0.250145  0.368568  1
  O  O50  1  0.410177  0.250141  0.283152  1
  O  O51  1  0.000000  0.750140  0.283902  1
  O  O52  1  0.565787  0.750141  0.367799  1
  Si  Si53  1  0.514103  0.935386  0.242747  1
  Si  Si54  1  0.821751  0.935737  0.324856  1
  Si  Si55  1  0.490639  0.436003  0.423729  1
  Si  Si56  1  0.178674  0.435814  0.337163  1
  Si  Si57  1  0.821093  0.435815  0.240200  1
  Si  Si58  1  0.669393  0.435982  0.327262  1
  Si  Si59  1  0.178033  0.935736  0.421467  1
  Si  Si60  1  0.335149  0.935394  0.339267  1
  Si  Si61  1  0.490639  0.064284  0.423724  1
  Si  Si62  1  0.178675  0.064464  0.337159  1
  Si  Si63  1  0.514101  0.564900  0.242751  1
  Si  Si64  1  0.821750  0.564544  0.324860  1
  Si  Si65  1  0.178033  0.564546  0.421471  1
  Si  Si66  1  0.335149  0.564891  0.339272  1
  Si  Si67  1  0.821093  0.064465  0.240195  1
  Si  Si68  1  0.669396  0.064301  0.327258  1
  Si  Si69  1  -0.000000  0.061870  0.372128  1
  Si  Si70  1  0.419311  0.062304  0.288116  1
  Si  Si71  1  0.000000  0.562279  0.287829  1
  Si  Si72  1  0.574216  0.562051  0.372333  1
  Si  Si73  1  0.000000  0.938010  0.287824  1
  Si  Si74  1  0.574217  0.938232  0.372329  1
  Si  Si75  1  0.000000  0.438420  0.372133  1
  Si  Si76  1  0.419309  0.437980  0.288120  1
  H  H77  1  0.753173  0.991293  0.168175  1
  H  H78  1  0.494064  0.990680  0.168537  1
  H  H79  1  0.246724  0.509108  0.495474  1
  H  H80  1  0.505717  0.509569  0.495381  1
  H  H81  1  0.753175  0.508999  0.168182  1
  H  H82  1  0.494061  0.509593  0.168543  1
  H  H83  1  0.246723  0.991184  0.495468  1
  H  H84  1  0.505714  0.990704  0.495373  1
