# generated using pymatgen
data_Si25(HO13)4
_symmetry_space_group_name_H-M   'P 1'
_cell_length_a   11.74074927
_cell_length_b   10.10371639
_cell_length_c   46.72637588
_cell_angle_alpha   90.00000000
_cell_angle_beta   90.00000000
_cell_angle_gamma   90.00000000
_symmetry_Int_Tables_number   1
_chemical_formula_structural   Si25(HO13)4
_chemical_formula_sum   'Si50 H8 O104'
_cell_volume   5542.92572275
_cell_formula_units_Z   2
loop_
 _symmetry_equiv_pos_site_id
 _symmetry_equiv_pos_as_xyz
  1  'x, y, z'
loop_
 _atom_site_type_symbol
 _atom_site_label
 _atom_site_symmetry_multiplicity
 _atom_site_fract_x
 _atom_site_fract_y
 _atom_site_fract_z
 _atom_site_occupancy
  O  O1  1  0.585788  0.832268  0.267288  1
  O  O2  1  0.085347  0.832940  0.160901  1
  O  O3  1  0.416997  0.333947  0.267024  1
  O  O4  1  0.917931  0.334958  0.160810  1
  O  O5  1  0.082598  0.333737  0.198811  1
  O  O6  1  0.915576  0.833557  0.197789  1
  O  O7  1  0.913121  0.169575  0.197765  1
  O  O8  1  0.084585  0.668060  0.198626  1
  O  O9  1  0.415500  0.668360  0.268118  1
  O  O10  1  0.915964  0.668690  0.161398  1
  O  O11  1  0.582696  0.166807  0.266839  1
  O  O12  1  0.086894  0.170024  0.161517  1
  O  O13  1  0.740729  0.000000  0.270584  1
  O  O14  1  0.242292  0.000000  0.164592  1
  O  O15  1  0.259045  0.499520  0.270449  1
  O  O16  1  0.759242  0.499369  0.163870  1
  O  O17  1  0.239966  0.499316  0.195448  1
  O  O18  1  0.756321  0.000000  0.195448  1
  O  O19  1  0.262947  0.748610  0.179632  1
  O  O20  1  0.736916  0.249743  0.179478  1
  O  O21  1  0.263247  0.249845  0.179742  1
  O  O22  1  0.736988  0.749542  0.179788  1
  O  O23  1  0.751657  0.817774  0.233081  1
  O  O24  1  0.250546  0.821176  0.126267  1
  O  O25  1  0.249984  0.317425  0.232992  1
  O  O26  1  0.751769  0.317572  0.126325  1
  O  O27  1  0.251807  0.176363  0.126368  1
  O  O28  1  0.749005  0.182947  0.232906  1
  O  O29  1  0.750085  0.682585  0.126415  1
  O  O30  1  0.250453  0.681986  0.233043  1
  O  O31  1  0.585788  0.832268  0.480608  1
  O  O32  1  0.085347  0.832940  0.374221  1
  O  O33  1  0.416997  0.333947  0.480344  1
  O  O34  1  0.917931  0.334958  0.374130  1
  O  O35  1  0.585388  0.329403  0.304408  1
  O  O36  1  0.082598  0.333737  0.412131  1
  O  O37  1  0.414770  0.835188  0.303858  1
  O  O38  1  0.915576  0.833557  0.411109  1
  O  O39  1  0.413402  0.163205  0.303619  1
  O  O40  1  0.913121  0.169575  0.411085  1
  O  O41  1  0.584697  0.668762  0.305202  1
  O  O42  1  0.084585  0.668060  0.411946  1
  O  O43  1  0.415500  0.668360  0.481438  1
  O  O44  1  0.915964  0.668690  0.374718  1
  O  O45  1  0.582696  0.166807  0.480159  1
  O  O46  1  0.086894  0.170024  0.374837  1
  O  O47  1  0.740729  0.000000  0.483905  1
  O  O48  1  0.242292  0.000000  0.377913  1
  O  O49  1  0.259045  0.499520  0.483769  1
  O  O50  1  0.759242  0.499369  0.377191  1
  O  O51  1  0.741109  0.500521  0.302149  1
  O  O52  1  0.239966  0.499316  0.408768  1
  O  O53  1  0.251725  0.998711  0.300881  1
  O  O54  1  0.756321  -0.000000  0.408768  1
  O  O55  1  0.763358  0.750482  0.286488  1
  O  O56  1  0.262947  0.748610  0.392952  1
  O  O57  1  0.239405  0.249228  0.286308  1
  O  O58  1  0.736916  0.249743  0.392798  1
  O  O59  1  0.762449  0.250928  0.286246  1
  O  O60  1  0.263247  0.249845  0.393062  1
  O  O61  1  0.235247  0.748990  0.286288  1
  O  O62  1  0.736988  0.749542  0.393108  1
  O  O63  1  0.751657  0.817774  0.446401  1
  O  O64  1  0.250546  0.821176  0.339587  1
  O  O65  1  0.249984  0.317425  0.446312  1
  O  O66  1  0.751769  0.317572  0.339646  1
  O  O67  1  0.251807  0.176363  0.339689  1
  O  O68  1  0.749005  0.182947  0.446227  1
  O  O69  1  0.750085  0.682585  0.339735  1
  O  O70  1  0.250453  0.681986  0.446363  1
  O  O71  1  0.085347  0.832940  0.587542  1
  O  O72  1  0.917931  0.334958  0.587450  1
  O  O73  1  0.585388  0.329403  0.517728  1
  O  O74  1  0.082598  0.333737  0.625451  1
  O  O75  1  0.414770  0.835188  0.517178  1
  O  O76  1  0.915576  0.833557  0.624429  1
  O  O77  1  0.413402  0.163205  0.516939  1
  O  O78  1  0.913121  0.169575  0.624405  1
  O  O79  1  0.584697  0.668762  0.518522  1
  O  O80  1  0.084585  0.668060  0.625266  1
  O  O81  1  0.915964  0.668690  0.588038  1
  O  O82  1  0.086894  0.170024  0.588157  1
  O  O83  1  0.242292  0.000000  0.591233  1
  O  O84  1  0.759242  0.499369  0.590511  1
  O  O85  1  0.741109  0.500521  0.515469  1
  O  O86  1  0.239966  0.499316  0.622088  1
  O  O87  1  0.251725  0.998711  0.514201  1
  O  O88  1  0.756321  -0.000000  0.622088  1
  O  O89  1  0.763358  0.750482  0.499809  1
  O  O90  1  0.262947  0.748610  0.606273  1
  O  O91  1  0.239405  0.249228  0.499628  1
  O  O92  1  0.736916  0.249743  0.606119  1
  O  O93  1  0.762449  0.250928  0.499566  1
  O  O94  1  0.263247  0.249845  0.606383  1
  O  O95  1  0.235247  0.748990  0.499609  1
  O  O96  1  0.736988  0.749542  0.606428  1
  O  O97  1  0.751657  0.817774  0.659721  1
  O  O98  1  0.250546  0.821176  0.552907  1
  O  O99  1  0.249984  0.317425  0.659632  1
  O  O100  1  0.751769  0.317572  0.552966  1
  O  O101  1  0.251807  0.176363  0.553009  1
  O  O102  1  0.749005  0.182947  0.659547  1
  O  O103  1  0.750085  0.682585  0.553055  1
  O  O104  1  0.250453  0.681986  0.659683  1
  Si  Si105  1  0.716312  0.850847  0.264406  1
  Si  Si106  1  0.215784  0.850687  0.157931  1
  Si  Si107  1  0.286787  0.351771  0.264048  1
  Si  Si108  1  0.787246  0.350340  0.157738  1
  Si  Si109  1  0.213273  0.349881  0.201680  1
  Si  Si110  1  0.783327  0.852101  0.201700  1
  Si  Si111  1  0.781315  0.148290  0.201609  1
  Si  Si112  1  0.214781  0.648917  0.201706  1
  Si  Si113  1  0.283420  0.648362  0.264415  1
  Si  Si114  1  0.783834  0.648280  0.157671  1
  Si  Si115  1  0.713532  0.150230  0.264278  1
  Si  Si116  1  0.218615  0.147330  0.157841  1
  Si  Si117  1  0.003832  0.750784  0.179718  1
  Si  Si118  1  0.503804  0.750873  0.286150  1
  Si  Si119  1  0.000000  0.254024  0.179730  1
  Si  Si120  1  0.499177  0.248849  0.285215  1
  Si  Si121  1  0.716312  0.850847  0.477726  1
  Si  Si122  1  0.215784  0.850687  0.371252  1
  Si  Si123  1  0.286787  0.351771  0.477368  1
  Si  Si124  1  0.787246  0.350340  0.371058  1
  Si  Si125  1  0.717042  0.351717  0.308452  1
  Si  Si126  1  0.213273  0.349881  0.415000  1
  Si  Si127  1  0.281129  0.854468  0.307741  1
  Si  Si128  1  0.783327  0.852101  0.415020  1
  Si  Si129  1  0.281533  0.141636  0.308233  1
  Si  Si130  1  0.781315  0.148290  0.414929  1
  Si  Si131  1  0.715115  0.649777  0.308351  1
  Si  Si132  1  0.214781  0.648917  0.415026  1
  Si  Si133  1  0.283420  0.648362  0.477735  1
  Si  Si134  1  0.783834  0.648280  0.370991  1
  Si  Si135  1  0.713532  0.150230  0.477599  1
  Si  Si136  1  0.218615  0.147330  0.371162  1
  Si  Si137  1  0.003832  0.750784  0.393039  1
  Si  Si138  1  0.503804  0.750873  0.499470  1
  Si  Si139  1  -0.000000  0.254024  0.393050  1
  Si  Si140  1  0.499177  0.248849  0.498536  1
  Si  Si141  1  0.215784  0.850687  0.584572  1
  Si  Si142  1  0.787246  0.350340  0.584378  1
  Si  Si143  1  0.717042  0.351717  0.521772  1
  Si  Si144  1  0.213273  0.349881  0.628320  1
  Si  Si145  1  0.281129  0.854468  0.521061  1
  Si  Si146  1  0.783327  0.852101  0.628340  1
  Si  Si147  1  0.281533  0.141636  0.521553  1
  Si  Si148  1  0.781315  0.148290  0.628249  1
  Si  Si149  1  0.715115  0.649777  0.521672  1
  Si  Si150  1  0.214781  0.648917  0.628347  1
  Si  Si151  1  0.783834  0.648280  0.584312  1
  Si  Si152  1  0.218615  0.147330  0.584482  1
  Si  Si153  1  0.003832  0.750784  0.606359  1
  Si  Si154  1  -0.000000  0.254024  0.606370  1
  H  H155  1  0.250546  0.821176  0.107006  1
  H  H156  1  0.751769  0.317572  0.107064  1
  H  H157  1  0.251807  0.176363  0.107107  1
  H  H158  1  0.750085  0.682585  0.107154  1
  H  H159  1  0.751657  0.817774  0.678982  1
  H  H160  1  0.249984  0.317425  0.678893  1
  H  H161  1  0.749005  0.182947  0.678808  1
  H  H162  1  0.250453  0.681986  0.678944  1
