# generated using pymatgen
data_Si15(HO8)4
_symmetry_space_group_name_H-M   'P 1'
_cell_length_a   11.74074927
_cell_length_b   10.10371639
_cell_length_c   36.75869622
_cell_angle_alpha   90.00000000
_cell_angle_beta   90.00000000
_cell_angle_gamma   90.00000000
_symmetry_Int_Tables_number   1
_chemical_formula_structural   Si15(HO8)4
_chemical_formula_sum   'Si30 H8 O64'
_cell_volume   4360.50772128
_cell_formula_units_Z   2
loop_
 _symmetry_equiv_pos_site_id
 _symmetry_equiv_pos_as_xyz
  1  'x, y, z'
loop_
 _atom_site_type_symbol
 _atom_site_label
 _atom_site_symmetry_multiplicity
 _atom_site_fract_x
 _atom_site_fract_y
 _atom_site_fract_z
 _atom_site_occupancy
  O  O1  1  0.585788  0.832268  0.339767  1
  O  O2  1  0.085347  0.832940  0.204532  1
  O  O3  1  0.416997  0.333947  0.339431  1
  O  O4  1  0.917931  0.334958  0.204415  1
  O  O5  1  0.082598  0.333737  0.252721  1
  O  O6  1  0.915576  0.833557  0.251422  1
  O  O7  1  0.913121  0.169575  0.251392  1
  O  O8  1  0.084585  0.668060  0.252487  1
  O  O9  1  0.415500  0.668360  0.340822  1
  O  O10  1  0.915964  0.668690  0.205163  1
  O  O11  1  0.582696  0.166807  0.339197  1
  O  O12  1  0.086894  0.170024  0.205315  1
  O  O13  1  0.740729  0.000000  0.343957  1
  O  O14  1  0.242292  0.000000  0.209224  1
  O  O15  1  0.259045  0.499520  0.343786  1
  O  O16  1  0.759242  0.499369  0.208306  1
  O  O17  1  0.239966  0.499316  0.248446  1
  O  O18  1  0.756321  0.000000  0.248446  1
  O  O19  1  0.262947  0.748610  0.228342  1
  O  O20  1  0.736916  0.249743  0.228147  1
  O  O21  1  0.263247  0.249845  0.228482  1
  O  O22  1  0.736988  0.749542  0.228540  1
  O  O23  1  0.751657  0.817774  0.296284  1
  O  O24  1  0.250546  0.821176  0.160506  1
  O  O25  1  0.249984  0.317425  0.296171  1
  O  O26  1  0.751769  0.317572  0.160581  1
  O  O27  1  0.251807  0.176363  0.160635  1
  O  O28  1  0.749005  0.182947  0.296063  1
  O  O29  1  0.750085  0.682585  0.160694  1
  O  O30  1  0.250453  0.681986  0.296236  1
  O  O31  1  0.085347  0.832940  0.475697  1
  O  O32  1  0.917931  0.334958  0.475581  1
  O  O33  1  0.585388  0.329403  0.386953  1
  O  O34  1  0.082598  0.333737  0.523887  1
  O  O35  1  0.414770  0.835188  0.386254  1
  O  O36  1  0.915576  0.833557  0.522587  1
  O  O37  1  0.413402  0.163205  0.385950  1
  O  O38  1  0.913121  0.169575  0.522557  1
  O  O39  1  0.584697  0.668762  0.387962  1
  O  O40  1  0.084585  0.668060  0.523652  1
  O  O41  1  0.915964  0.668690  0.476328  1
  O  O42  1  0.086894  0.170024  0.476480  1
  O  O43  1  0.242292  0.000000  0.480389  1
  O  O44  1  0.759242  0.499369  0.479472  1
  O  O45  1  0.741109  0.500521  0.384082  1
  O  O46  1  0.239966  0.499316  0.519612  1
  O  O47  1  0.251725  0.998711  0.382470  1
  O  O48  1  0.756321  0.000000  0.519611  1
  O  O49  1  0.763358  0.750482  0.364174  1
  O  O50  1  0.262947  0.748610  0.499507  1
  O  O51  1  0.239405  0.249228  0.363945  1
  O  O52  1  0.736916  0.249743  0.499312  1
  O  O53  1  0.762449  0.250928  0.363866  1
  O  O54  1  0.263247  0.249845  0.499647  1
  O  O55  1  0.235247  0.748990  0.363920  1
  O  O56  1  0.736988  0.749542  0.499705  1
  O  O57  1  0.751657  0.817774  0.567449  1
  O  O58  1  0.250546  0.821176  0.431671  1
  O  O59  1  0.249984  0.317425  0.567336  1
  O  O60  1  0.751769  0.317572  0.431746  1
  O  O61  1  0.251807  0.176363  0.431800  1
  O  O62  1  0.749005  0.182947  0.567228  1
  O  O63  1  0.750085  0.682585  0.431859  1
  O  O64  1  0.250453  0.681986  0.567401  1
  Si  Si65  1  0.716312  0.850847  0.336104  1
  Si  Si66  1  0.215784  0.850687  0.200757  1
  Si  Si67  1  0.286787  0.351771  0.335649  1
  Si  Si68  1  0.787246  0.350340  0.200511  1
  Si  Si69  1  0.213273  0.349881  0.256368  1
  Si  Si70  1  0.783327  0.852101  0.256394  1
  Si  Si71  1  0.781315  0.148290  0.256278  1
  Si  Si72  1  0.214781  0.648917  0.256402  1
  Si  Si73  1  0.283420  0.648362  0.336115  1
  Si  Si74  1  0.783834  0.648280  0.200426  1
  Si  Si75  1  0.713532  0.150230  0.335941  1
  Si  Si76  1  0.218615  0.147330  0.200642  1
  Si  Si77  1  0.003832  0.750784  0.228452  1
  Si  Si78  1  0.503804  0.750873  0.363744  1
  Si  Si79  1  0.000000  0.254024  0.228466  1
  Si  Si80  1  0.499177  0.248849  0.362556  1
  Si  Si81  1  0.215784  0.850687  0.471922  1
  Si  Si82  1  0.787246  0.350340  0.471676  1
  Si  Si83  1  0.717042  0.351717  0.392093  1
  Si  Si84  1  0.213273  0.349881  0.527533  1
  Si  Si85  1  0.281129  0.854468  0.391189  1
  Si  Si86  1  0.783327  0.852101  0.527559  1
  Si  Si87  1  0.281533  0.141636  0.391815  1
  Si  Si88  1  0.781315  0.148290  0.527443  1
  Si  Si89  1  0.715115  0.649777  0.391966  1
  Si  Si90  1  0.214781  0.648917  0.527567  1
  Si  Si91  1  0.783834  0.648280  0.471591  1
  Si  Si92  1  0.218615  0.147330  0.471808  1
  Si  Si93  1  0.003832  0.750784  0.499617  1
  Si  Si94  1  -0.000000  0.254024  0.499632  1
  H  H95  1  0.250546  0.821176  0.136022  1
  H  H96  1  0.751769  0.317572  0.136097  1
  H  H97  1  0.251807  0.176363  0.136151  1
  H  H98  1  0.750085  0.682585  0.136210  1
  H  H99  1  0.751657  0.817774  0.591933  1
  H  H100  1  0.249984  0.317425  0.591820  1
  H  H101  1  0.749005  0.182947  0.591712  1
  H  H102  1  0.250453  0.681986  0.591885  1
