# generated using pymatgen
data_Si8H2O17
_symmetry_space_group_name_H-M   'P 1'
_cell_length_a   9.95892594
_cell_length_b   6.66394797
_cell_length_c   35.62822789
_cell_angle_alpha   90.00000000
_cell_angle_beta   90.00000000
_cell_angle_gamma   111.54500000
_symmetry_Int_Tables_number   1
_chemical_formula_structural   Si8H2O17
_chemical_formula_sum   'Si16 H4 O34'
_cell_volume   2199.2859949
_cell_formula_units_Z   2
loop_
 _symmetry_equiv_pos_site_id
 _symmetry_equiv_pos_as_xyz
  1  'x, y, z'
loop_
 _atom_site_type_symbol
 _atom_site_label
 _atom_site_symmetry_multiplicity
 _atom_site_fract_x
 _atom_site_fract_y
 _atom_site_fract_z
 _atom_site_occupancy
  O  O1  1  0.743280  0.491847  0.455270  1
  O  O2  1  0.243359  0.491894  0.261220  1
  O  O3  1  0.243277  0.491836  0.458114  1
  O  O4  1  0.743362  0.491906  0.264044  1
  O  O5  1  0.657501  0.776504  0.487068  1
  O  O6  1  0.157514  0.776505  0.293009  1
  O  O7  1  0.348390  0.224648  0.487111  1
  O  O8  1  0.848411  0.224666  0.293046  1
  O  O9  1  0.348411  0.224661  0.232216  1
  O  O10  1  0.848390  0.224654  0.426275  1
  O  O11  1  0.657515  0.776512  0.232253  1
  O  O12  1  0.157500  0.776498  0.426317  1
  O  O13  1  0.733050  0.818159  0.418990  1
  O  O14  1  0.233094  0.818165  0.224933  1
  O  O15  1  0.267702  0.183555  0.419357  1
  O  O16  1  0.767739  0.183570  0.225291  1
  O  O17  1  0.267743  0.183563  0.299971  1
  O  O18  1  0.767698  0.183563  0.494029  1
  O  O19  1  0.733092  0.818172  0.300329  1
  O  O20  1  0.233052  0.818151  0.494395  1
  O  O21  1  0.496605  0.507763  0.441039  1
  O  O22  1  0.996675  0.507733  0.246977  1
  O  O23  1  0.496674  0.507734  0.278285  1
  O  O24  1  0.996605  0.507761  0.472346  1
  O  O25  1  0.668891  0.946683  0.165599  1
  O  O26  1  0.168887  0.946676  0.359663  1
  O  O27  1  0.335917  0.055155  0.165601  1
  O  O28  1  0.835922  0.055164  0.359661  1
  O  O29  1  0.500842  0.997104  0.503977  1
  O  O30  1  0.000000  0.997149  0.309915  1
  O  O31  1  0.500876  0.997149  0.215347  1
  O  O32  1  -0.000000  0.997105  0.409409  1
  O  O33  1  0.668891  0.946683  0.553723  1
  O  O34  1  0.335917  0.055155  0.553725  1
  Si  Si35  1  0.658622  0.646473  0.450191  1
  Si  Si36  1  0.158676  0.646481  0.256135  1
  Si  Si37  1  0.338523  0.354494  0.450960  1
  Si  Si38  1  0.838576  0.354511  0.256892  1
  Si  Si39  1  0.338578  0.354506  0.268370  1
  Si  Si40  1  0.838522  0.354500  0.462426  1
  Si  Si41  1  0.658677  0.646488  0.269128  1
  Si  Si42  1  0.158623  0.646467  0.463194  1
  Si  Si43  1  0.649914  0.972876  0.510421  1
  Si  Si44  1  0.149937  0.972887  0.316361  1
  Si  Si45  1  0.353585  0.026974  0.510426  1
  Si  Si46  1  0.853612  0.026998  0.316362  1
  Si  Si47  1  0.353610  0.026992  0.208900  1
  Si  Si48  1  0.853587  0.026980  0.402960  1
  Si  Si49  1  0.649938  0.972890  0.208901  1
  Si  Si50  1  0.149914  0.972871  0.402965  1
  H  H51  1  0.668891  0.946683  0.140338  1
  H  H52  1  0.335917  0.055155  0.140340  1
  H  H53  1  0.668891  0.946683  0.578984  1
  H  H54  1  0.335917  0.055155  0.578986  1
