# generated using pymatgen
data_Si16H2O33
_symmetry_space_group_name_H-M   'P 1'
_cell_length_a   9.95892594
_cell_length_b   6.66394797
_cell_length_c   49.45638664
_cell_angle_alpha   90.00000000
_cell_angle_beta   90.00000000
_cell_angle_gamma   111.54500000
_symmetry_Int_Tables_number   1
_chemical_formula_structural   Si16H2O33
_chemical_formula_sum   'Si32 H4 O66'
_cell_volume   3052.88095806
_cell_formula_units_Z   2
loop_
 _symmetry_equiv_pos_site_id
 _symmetry_equiv_pos_as_xyz
  1  'x, y, z'
loop_
 _atom_site_type_symbol
 _atom_site_label
 _atom_site_symmetry_multiplicity
 _atom_site_fract_x
 _atom_site_fract_y
 _atom_site_fract_z
 _atom_site_occupancy
  O  O1  1  0.743280  0.491847  0.327975  1
  O  O2  1  0.243359  0.491894  0.188182  1
  O  O3  1  0.243277  0.491836  0.330024  1
  O  O4  1  0.743362  0.491906  0.190216  1
  O  O5  1  0.657501  0.776504  0.350882  1
  O  O6  1  0.157514  0.776505  0.211083  1
  O  O7  1  0.348390  0.224648  0.350913  1
  O  O8  1  0.848411  0.224666  0.211110  1
  O  O9  1  0.348411  0.224661  0.167288  1
  O  O10  1  0.848390  0.224654  0.307087  1
  O  O11  1  0.657515  0.776512  0.167314  1
  O  O12  1  0.157500  0.776498  0.307118  1
  O  O13  1  0.733050  0.818159  0.301839  1
  O  O14  1  0.233094  0.818165  0.162041  1
  O  O15  1  0.267702  0.183555  0.302103  1
  O  O16  1  0.767739  0.183570  0.162299  1
  O  O17  1  0.267743  0.183563  0.216098  1
  O  O18  1  0.767698  0.183563  0.355897  1
  O  O19  1  0.733092  0.818172  0.216356  1
  O  O20  1  0.233052  0.818151  0.356161  1
  O  O21  1  0.496605  0.507763  0.317723  1
  O  O22  1  0.996675  0.507733  0.177921  1
  O  O23  1  0.496674  0.507734  0.200476  1
  O  O24  1  0.996605  0.507761  0.340277  1
  O  O25  1  0.668891  0.946683  0.119297  1
  O  O26  1  0.168887  0.946676  0.259100  1
  O  O27  1  0.335917  0.055155  0.119298  1
  O  O28  1  0.835922  0.055164  0.259099  1
  O  O29  1  0.500842  0.997104  0.363063  1
  O  O30  1  0.000000  0.997149  0.223262  1
  O  O31  1  0.500876  0.997149  0.155135  1
  O  O32  1  -0.000000  0.997105  0.294937  1
  O  O33  1  0.743280  0.491847  0.607578  1
  O  O34  1  0.243359  0.491894  0.467785  1
  O  O35  1  0.243277  0.491836  0.609627  1
  O  O36  1  0.743362  0.491906  0.469819  1
  O  O37  1  0.657501  0.776504  0.630485  1
  O  O38  1  0.157514  0.776505  0.490686  1
  O  O39  1  0.348390  0.224648  0.630516  1
  O  O40  1  0.848411  0.224666  0.490713  1
  O  O41  1  0.348411  0.224661  0.446891  1
  O  O42  1  0.848390  0.224654  0.586690  1
  O  O43  1  0.657515  0.776512  0.446917  1
  O  O44  1  0.157500  0.776498  0.586721  1
  O  O45  1  0.733050  0.818159  0.581442  1
  O  O46  1  0.233094  0.818165  0.441644  1
  O  O47  1  0.267702  0.183555  0.581706  1
  O  O48  1  0.767739  0.183570  0.441902  1
  O  O49  1  0.267743  0.183563  0.495702  1
  O  O50  1  0.767698  0.183563  0.635500  1
  O  O51  1  0.733092  0.818172  0.495959  1
  O  O52  1  0.233052  0.818151  0.635764  1
  O  O53  1  0.496605  0.507763  0.597326  1
  O  O54  1  0.996675  0.507733  0.457525  1
  O  O55  1  0.496674  0.507734  0.480079  1
  O  O56  1  0.996605  0.507761  0.619880  1
  O  O57  1  0.668891  0.946683  0.398900  1
  O  O58  1  0.168887  0.946676  0.538703  1
  O  O59  1  0.335917  0.055155  0.398902  1
  O  O60  1  0.835922  0.055164  0.538702  1
  O  O61  1  0.500842  0.997104  0.642666  1
  O  O62  1  -0.000000  0.997149  0.502865  1
  O  O63  1  0.500876  0.997149  0.434738  1
  O  O64  1  0.000000  0.997105  0.574540  1
  O  O65  1  0.668891  0.946683  0.678503  1
  O  O66  1  0.335917  0.055155  0.678505  1
  Si  Si67  1  0.658622  0.646473  0.324316  1
  Si  Si68  1  0.158676  0.646481  0.184519  1
  Si  Si69  1  0.338523  0.354494  0.324870  1
  Si  Si70  1  0.838576  0.354511  0.185064  1
  Si  Si71  1  0.338578  0.354506  0.193333  1
  Si  Si72  1  0.838522  0.354500  0.333130  1
  Si  Si73  1  0.658677  0.646488  0.193879  1
  Si  Si74  1  0.158623  0.646467  0.333684  1
  Si  Si75  1  0.649914  0.972876  0.367706  1
  Si  Si76  1  0.149937  0.972887  0.227905  1
  Si  Si77  1  0.353585  0.026974  0.367709  1
  Si  Si78  1  0.853612  0.026998  0.227906  1
  Si  Si79  1  0.353610  0.026992  0.150491  1
  Si  Si80  1  0.853587  0.026980  0.290291  1
  Si  Si81  1  0.649938  0.972890  0.150492  1
  Si  Si82  1  0.149914  0.972871  0.290294  1
  Si  Si83  1  0.658622  0.646473  0.603919  1
  Si  Si84  1  0.158676  0.646481  0.464122  1
  Si  Si85  1  0.338523  0.354494  0.604473  1
  Si  Si86  1  0.838576  0.354511  0.464668  1
  Si  Si87  1  0.338578  0.354506  0.472936  1
  Si  Si88  1  0.838522  0.354500  0.612733  1
  Si  Si89  1  0.658677  0.646488  0.473482  1
  Si  Si90  1  0.158623  0.646467  0.613287  1
  Si  Si91  1  0.649914  0.972876  0.647309  1
  Si  Si92  1  0.149937  0.972887  0.507509  1
  Si  Si93  1  0.353585  0.026974  0.647312  1
  Si  Si94  1  0.853612  0.026998  0.507509  1
  Si  Si95  1  0.353610  0.026992  0.430094  1
  Si  Si96  1  0.853587  0.026980  0.569894  1
  Si  Si97  1  0.649938  0.972890  0.430095  1
  Si  Si98  1  0.149914  0.972871  0.569898  1
  H  H99  1  0.668891  0.946683  0.101099  1
  H  H100  1  0.335917  0.055155  0.101101  1
  H  H101  1  0.668891  0.946683  0.696701  1
  H  H102  1  0.335917  0.055155  0.696702  1
