# generated using pymatgen
data_Si24H2O49
_symmetry_space_group_name_H-M   'P 1'
_cell_length_a   9.95892594
_cell_length_b   6.66394797
_cell_length_c   63.28454539
_cell_angle_alpha   90.00000000
_cell_angle_beta   90.00000000
_cell_angle_gamma   111.54500000
_symmetry_Int_Tables_number   1
_chemical_formula_structural   Si24H2O49
_chemical_formula_sum   'Si48 H4 O98'
_cell_volume   3906.47592122
_cell_formula_units_Z   2
loop_
 _symmetry_equiv_pos_site_id
 _symmetry_equiv_pos_as_xyz
  1  'x, y, z'
loop_
 _atom_site_type_symbol
 _atom_site_label
 _atom_site_symmetry_multiplicity
 _atom_site_fract_x
 _atom_site_fract_y
 _atom_site_fract_z
 _atom_site_occupancy
  O  O1  1  0.743280  0.491847  0.256310  1
  O  O2  1  0.243359  0.491894  0.147063  1
  O  O3  1  0.243277  0.491836  0.257911  1
  O  O4  1  0.743362  0.491906  0.148653  1
  O  O5  1  0.657501  0.776504  0.274212  1
  O  O6  1  0.157514  0.776505  0.164959  1
  O  O7  1  0.348390  0.224648  0.274236  1
  O  O8  1  0.848411  0.224666  0.164981  1
  O  O9  1  0.348411  0.224661  0.130734  1
  O  O10  1  0.848390  0.224654  0.239986  1
  O  O11  1  0.657515  0.776512  0.130755  1
  O  O12  1  0.157500  0.776498  0.240010  1
  O  O13  1  0.733050  0.818159  0.235885  1
  O  O14  1  0.233094  0.818165  0.126634  1
  O  O15  1  0.267702  0.183555  0.236091  1
  O  O16  1  0.767739  0.183570  0.126835  1
  O  O17  1  0.267743  0.183563  0.168879  1
  O  O18  1  0.767698  0.183563  0.278130  1
  O  O19  1  0.733092  0.818172  0.169081  1
  O  O20  1  0.233052  0.818151  0.278337  1
  O  O21  1  0.496605  0.507763  0.248298  1
  O  O22  1  0.996675  0.507733  0.139044  1
  O  O23  1  0.496674  0.507734  0.156670  1
  O  O24  1  0.996605  0.507761  0.265924  1
  O  O25  1  0.668891  0.946683  0.093230  1
  O  O26  1  0.168887  0.946676  0.202485  1
  O  O27  1  0.335917  0.055155  0.093231  1
  O  O28  1  0.835922  0.055164  0.202484  1
  O  O29  1  0.500842  0.997104  0.283731  1
  O  O30  1  0.000000  0.997149  0.174477  1
  O  O31  1  0.500876  0.997149  0.121237  1
  O  O32  1  -0.000000  0.997105  0.230491  1
  O  O33  1  0.743280  0.491847  0.474818  1
  O  O34  1  0.243359  0.491894  0.365570  1
  O  O35  1  0.243277  0.491836  0.476419  1
  O  O36  1  0.743362  0.491906  0.367160  1
  O  O37  1  0.657501  0.776504  0.492719  1
  O  O38  1  0.157514  0.776505  0.383467  1
  O  O39  1  0.348390  0.224648  0.492744  1
  O  O40  1  0.848411  0.224666  0.383488  1
  O  O41  1  0.348411  0.224661  0.349242  1
  O  O42  1  0.848390  0.224654  0.458494  1
  O  O43  1  0.657515  0.776512  0.349263  1
  O  O44  1  0.157500  0.776498  0.458518  1
  O  O45  1  0.733050  0.818159  0.454393  1
  O  O46  1  0.233094  0.818165  0.345142  1
  O  O47  1  0.267702  0.183555  0.454599  1
  O  O48  1  0.767739  0.183570  0.345343  1
  O  O49  1  0.267743  0.183563  0.387387  1
  O  O50  1  0.767698  0.183563  0.496638  1
  O  O51  1  0.733092  0.818172  0.387588  1
  O  O52  1  0.233052  0.818151  0.496845  1
  O  O53  1  0.496605  0.507763  0.466806  1
  O  O54  1  0.996675  0.507733  0.357552  1
  O  O55  1  0.496674  0.507734  0.375178  1
  O  O56  1  0.996605  0.507761  0.484431  1
  O  O57  1  0.668891  0.946683  0.311737  1
  O  O58  1  0.168887  0.946676  0.420993  1
  O  O59  1  0.335917  0.055155  0.311738  1
  O  O60  1  0.835922  0.055164  0.420991  1
  O  O61  1  0.500842  0.997104  0.502239  1
  O  O62  1  -0.000000  0.997149  0.392985  1
  O  O63  1  0.500876  0.997149  0.339745  1
  O  O64  1  0.000000  0.997105  0.448999  1
  O  O65  1  0.743280  0.491847  0.693325  1
  O  O66  1  0.243359  0.491894  0.584078  1
  O  O67  1  0.243277  0.491836  0.694927  1
  O  O68  1  0.743362  0.491906  0.585668  1
  O  O69  1  0.657501  0.776504  0.711227  1
  O  O70  1  0.157514  0.776505  0.601975  1
  O  O71  1  0.348390  0.224648  0.711251  1
  O  O72  1  0.848411  0.224666  0.601996  1
  O  O73  1  0.348411  0.224661  0.567749  1
  O  O74  1  0.848390  0.224654  0.677001  1
  O  O75  1  0.657515  0.776512  0.567770  1
  O  O76  1  0.157500  0.776498  0.677025  1
  O  O77  1  0.733050  0.818159  0.672900  1
  O  O78  1  0.233094  0.818165  0.563649  1
  O  O79  1  0.267702  0.183555  0.673107  1
  O  O80  1  0.767739  0.183570  0.563851  1
  O  O81  1  0.267743  0.183563  0.605895  1
  O  O82  1  0.767698  0.183563  0.715146  1
  O  O83  1  0.733092  0.818172  0.606096  1
  O  O84  1  0.233052  0.818151  0.715352  1
  O  O85  1  0.496605  0.507763  0.685314  1
  O  O86  1  0.996675  0.507733  0.576060  1
  O  O87  1  0.496674  0.507734  0.593685  1
  O  O88  1  0.996605  0.507761  0.702939  1
  O  O89  1  0.668891  0.946683  0.530245  1
  O  O90  1  0.168887  0.946676  0.639500  1
  O  O91  1  0.335917  0.055155  0.530246  1
  O  O92  1  0.835922  0.055164  0.639499  1
  O  O93  1  0.500842  0.997104  0.720747  1
  O  O94  1  -0.000000  0.997149  0.611493  1
  O  O95  1  0.500876  0.997149  0.558252  1
  O  O96  1  0.000000  0.997105  0.667507  1
  O  O97  1  0.668891  0.946683  0.748753  1
  O  O98  1  0.335917  0.055155  0.748754  1
  Si  Si99  1  0.658622  0.646473  0.253451  1
  Si  Si100  1  0.158676  0.646481  0.144200  1
  Si  Si101  1  0.338523  0.354494  0.253883  1
  Si  Si102  1  0.838576  0.354511  0.144626  1
  Si  Si103  1  0.338578  0.354506  0.151088  1
  Si  Si104  1  0.838522  0.354500  0.260339  1
  Si  Si105  1  0.658677  0.646488  0.151515  1
  Si  Si106  1  0.158623  0.646467  0.260771  1
  Si  Si107  1  0.649914  0.972876  0.287359  1
  Si  Si108  1  0.149937  0.972887  0.178106  1
  Si  Si109  1  0.353585  0.026974  0.287362  1
  Si  Si110  1  0.853612  0.026998  0.178107  1
  Si  Si111  1  0.353610  0.026992  0.117607  1
  Si  Si112  1  0.853587  0.026980  0.226860  1
  Si  Si113  1  0.649938  0.972890  0.117608  1
  Si  Si114  1  0.149914  0.972871  0.226863  1
  Si  Si115  1  0.658622  0.646473  0.471958  1
  Si  Si116  1  0.158676  0.646481  0.362708  1
  Si  Si117  1  0.338523  0.354494  0.472391  1
  Si  Si118  1  0.838576  0.354511  0.363134  1
  Si  Si119  1  0.338578  0.354506  0.369596  1
  Si  Si120  1  0.838522  0.354500  0.478846  1
  Si  Si121  1  0.658677  0.646488  0.370022  1
  Si  Si122  1  0.158623  0.646467  0.479279  1
  Si  Si123  1  0.649914  0.972876  0.505867  1
  Si  Si124  1  0.149937  0.972887  0.396614  1
  Si  Si125  1  0.353585  0.026974  0.505869  1
  Si  Si126  1  0.853612  0.026998  0.396615  1
  Si  Si127  1  0.353610  0.026992  0.336115  1
  Si  Si128  1  0.853587  0.026980  0.445368  1
  Si  Si129  1  0.649938  0.972890  0.336116  1
  Si  Si130  1  0.149914  0.972871  0.445371  1
  Si  Si131  1  0.658622  0.646473  0.690466  1
  Si  Si132  1  0.158676  0.646481  0.581215  1
  Si  Si133  1  0.338523  0.354494  0.690899  1
  Si  Si134  1  0.838576  0.354511  0.581642  1
  Si  Si135  1  0.338578  0.354506  0.588103  1
  Si  Si136  1  0.838522  0.354500  0.697354  1
  Si  Si137  1  0.658677  0.646488  0.588530  1
  Si  Si138  1  0.158623  0.646467  0.697786  1
  Si  Si139  1  0.649914  0.972876  0.724375  1
  Si  Si140  1  0.149937  0.972887  0.615122  1
  Si  Si141  1  0.353585  0.026974  0.724377  1
  Si  Si142  1  0.853612  0.026998  0.615122  1
  Si  Si143  1  0.353610  0.026992  0.554623  1
  Si  Si144  1  0.853587  0.026980  0.663876  1
  Si  Si145  1  0.649938  0.972890  0.554623  1
  Si  Si146  1  0.149914  0.972871  0.663878  1
  H  H147  1  0.668891  0.946683  0.079008  1
  H  H148  1  0.335917  0.055155  0.079009  1
  H  H149  1  0.668891  0.946683  0.762974  1
  H  H150  1  0.335917  0.055155  0.762975  1
