# generated using pymatgen
data_Si8H2O17
_symmetry_space_group_name_H-M   'P 1'
_cell_length_a   6.96055515
_cell_length_b   15.33319430
_cell_length_c   30.32817737
_cell_angle_alpha   90.00000000
_cell_angle_beta   90.00000000
_cell_angle_gamma   90.00000000
_symmetry_Int_Tables_number   1
_chemical_formula_structural   Si8H2O17
_chemical_formula_sum   'Si16 H4 O34'
_cell_volume   3236.85190168
_cell_formula_units_Z   2
loop_
 _symmetry_equiv_pos_site_id
 _symmetry_equiv_pos_as_xyz
  1  'x, y, z'
loop_
 _atom_site_type_symbol
 _atom_site_label
 _atom_site_symmetry_multiplicity
 _atom_site_fract_x
 _atom_site_fract_y
 _atom_site_fract_z
 _atom_site_occupancy
  O  O1  1  0.955899  0.664313  0.260262  1
  O  O2  1  0.044301  0.164316  0.260266  1
  O  O3  1  0.044301  0.335440  0.410007  1
  O  O4  1  0.955898  0.835442  0.410012  1
  O  O5  1  0.310019  0.688607  0.269779  1
  O  O6  1  0.690175  0.188607  0.269777  1
  O  O7  1  0.690174  0.311149  0.400497  1
  O  O8  1  0.310019  0.811148  0.400494  1
  O  O9  1  0.097988  0.821326  0.263541  1
  O  O10  1  0.902200  0.321327  0.263541  1
  O  O11  1  0.902200  0.178428  0.406733  1
  O  O12  1  0.097989  0.678429  0.406733  1
  O  O13  1  0.153783  0.723594  0.194540  1
  O  O14  1  0.846481  0.223591  0.194539  1
  O  O15  1  0.153783  0.776165  0.475734  1
  O  O16  1  0.846480  0.276167  0.475735  1
  O  O17  1  0.116160  0.996878  0.280788  1
  O  O18  1  0.884028  0.496879  0.280786  1
  O  O19  1  0.884028  0.002877  0.389487  1
  O  O20  1  0.116159  0.502878  0.389486  1
  O  O21  1  0.303643  0.886429  0.326250  1
  O  O22  1  0.696549  0.386430  0.326251  1
  O  O23  1  0.696550  0.113326  0.344023  1
  O  O24  1  0.303644  0.613326  0.344024  1
  O  O25  1  0.946272  0.889035  0.331945  1
  O  O26  1  0.053921  0.389037  0.331942  1
  O  O27  1  0.053922  0.110719  0.338332  1
  O  O28  1  0.946273  0.610722  0.338329  1
  O  O29  1  0.629201  0.615417  0.296525  1
  O  O30  1  0.370996  0.115416  0.296527  1
  O  O31  1  0.370995  0.384340  0.373747  1
  O  O32  1  0.629199  0.884339  0.373748  1
  O  O33  1  0.491098  0.749878  0.335137  1
  O  O34  1  0.509100  0.249878  0.335137  1
  Si  Si35  1  0.127103  0.725451  0.245626  1
  Si  Si36  1  0.873101  0.225451  0.245627  1
  Si  Si37  1  0.873101  0.274306  0.424647  1
  Si  Si38  1  0.127102  0.774305  0.424647  1
  Si  Si39  1  0.115184  0.898659  0.297644  1
  Si  Si40  1  0.885002  0.398660  0.297643  1
  Si  Si41  1  0.885003  0.101096  0.372630  1
  Si  Si42  1  0.115185  0.601097  0.372629  1
  Si  Si43  1  0.850742  0.597368  0.291623  1
  Si  Si44  1  0.149453  0.097367  0.291626  1
  Si  Si45  1  0.149452  0.402389  0.378648  1
  Si  Si46  1  0.850741  0.902387  0.378651  1
  Si  Si47  1  0.438508  0.837100  0.359778  1
  Si  Si48  1  0.561688  0.337100  0.359779  1
  Si  Si49  1  0.561688  0.162656  0.310495  1
  Si  Si50  1  0.438508  0.662655  0.310496  1
  H  H51  1  0.153783  0.723594  0.164864  1
  H  H52  1  0.846481  0.223591  0.164863  1
  H  H53  1  0.153783  0.776165  0.505409  1
  H  H54  1  0.846480  0.276167  0.505410  1
