# generated using pymatgen
data_Si24H2O49
_symmetry_space_group_name_H-M   'P 1'
_cell_length_a   6.96055515
_cell_length_b   15.33319430
_cell_length_c   47.38446389
_cell_angle_alpha   90.00000000
_cell_angle_beta   90.00000000
_cell_angle_gamma   90.00000000
_symmetry_Int_Tables_number   1
_chemical_formula_structural   Si24H2O49
_chemical_formula_sum   'Si48 H4 O98'
_cell_volume   5057.22748111
_cell_formula_units_Z   2
loop_
 _symmetry_equiv_pos_site_id
 _symmetry_equiv_pos_as_xyz
  1  'x, y, z'
loop_
 _atom_site_type_symbol
 _atom_site_label
 _atom_site_symmetry_multiplicity
 _atom_site_fract_x
 _atom_site_fract_y
 _atom_site_fract_z
 _atom_site_occupancy
  O  O1  1  0.955899  0.664313  0.166579  1
  O  O2  1  0.044301  0.164316  0.166582  1
  O  O3  1  0.955962  0.835443  0.346559  1
  O  O4  1  0.044365  0.335446  0.346557  1
  O  O5  1  0.044301  0.335440  0.262423  1
  O  O6  1  0.955898  0.835442  0.262426  1
  O  O7  1  0.310019  0.688607  0.172671  1
  O  O8  1  0.690175  0.188607  0.172669  1
  O  O9  1  0.310089  0.811151  0.352647  1
  O  O10  1  0.690244  0.311152  0.352649  1
  O  O11  1  0.690174  0.311149  0.256336  1
  O  O12  1  0.310019  0.811148  0.256334  1
  O  O13  1  0.097988  0.821326  0.168678  1
  O  O14  1  0.902200  0.321327  0.168678  1
  O  O15  1  0.098061  0.678431  0.348656  1
  O  O16  1  0.902274  0.178433  0.348655  1
  O  O17  1  0.902200  0.178428  0.260327  1
  O  O18  1  0.097989  0.678429  0.260327  1
  O  O19  1  0.153783  0.723594  0.124514  1
  O  O20  1  0.846481  0.223591  0.124513  1
  O  O21  1  0.153783  0.776165  0.304491  1
  O  O22  1  0.846480  0.276167  0.304492  1
  O  O23  1  0.116160  0.996878  0.179717  1
  O  O24  1  0.884028  0.496879  0.179716  1
  O  O25  1  0.116235  0.502880  0.359694  1
  O  O26  1  0.884103  0.002880  0.359694  1
  O  O27  1  0.884028  0.002877  0.249289  1
  O  O28  1  0.116159  0.502878  0.249288  1
  O  O29  1  0.303643  0.886429  0.208815  1
  O  O30  1  0.696549  0.386430  0.208815  1
  O  O31  1  0.303714  0.613329  0.388793  1
  O  O32  1  0.696619  0.113329  0.388792  1
  O  O33  1  0.696550  0.113326  0.220190  1
  O  O34  1  0.303644  0.613326  0.220191  1
  O  O35  1  0.946272  0.889035  0.212459  1
  O  O36  1  0.053921  0.389037  0.212458  1
  O  O37  1  0.946341  0.610721  0.392436  1
  O  O38  1  0.053990  0.110724  0.392437  1
  O  O39  1  0.053922  0.110719  0.216547  1
  O  O40  1  0.946273  0.610722  0.216546  1
  O  O41  1  0.629201  0.615417  0.189789  1
  O  O42  1  0.370996  0.115416  0.189791  1
  O  O43  1  0.629267  0.884343  0.369767  1
  O  O44  1  0.371063  0.384342  0.369767  1
  O  O45  1  0.370995  0.384340  0.239215  1
  O  O46  1  0.629199  0.884339  0.239216  1
  O  O47  1  0.491098  0.749878  0.214503  1
  O  O48  1  0.509100  0.249878  0.214503  1
  O  O49  1  0.955899  0.664313  0.526534  1
  O  O50  1  0.044301  0.164316  0.526537  1
  O  O51  1  0.044301  0.335440  0.622378  1
  O  O52  1  0.955898  0.835442  0.622381  1
  O  O53  1  0.044365  0.164316  0.442403  1
  O  O54  1  0.955963  0.664318  0.442401  1
  O  O55  1  0.310019  0.688607  0.532626  1
  O  O56  1  0.690175  0.188607  0.532625  1
  O  O57  1  0.690174  0.311149  0.616291  1
  O  O58  1  0.310019  0.811148  0.616289  1
  O  O59  1  0.690244  0.188609  0.436312  1
  O  O60  1  0.310089  0.688610  0.436314  1
  O  O61  1  0.097988  0.821326  0.528633  1
  O  O62  1  0.902200  0.321327  0.528633  1
  O  O63  1  0.902200  0.178428  0.620283  1
  O  O64  1  0.097989  0.678429  0.620283  1
  O  O65  1  0.902273  0.321329  0.440305  1
  O  O66  1  0.098062  0.821330  0.440305  1
  O  O67  1  0.153783  0.723594  0.484469  1
  O  O68  1  0.846481  0.223591  0.484469  1
  O  O69  1  0.153783  0.776165  0.664446  1
  O  O70  1  0.846480  0.276167  0.664447  1
  O  O71  1  0.116160  0.996878  0.539672  1
  O  O72  1  0.884028  0.496879  0.539671  1
  O  O73  1  0.884028  0.002877  0.609245  1
  O  O74  1  0.116159  0.502878  0.609244  1
  O  O75  1  0.884103  0.496881  0.429266  1
  O  O76  1  0.116234  0.996881  0.429267  1
  O  O77  1  0.303643  0.886429  0.568770  1
  O  O78  1  0.696549  0.386430  0.568771  1
  O  O79  1  0.696550  0.113326  0.580145  1
  O  O80  1  0.303644  0.613326  0.580146  1
  O  O81  1  0.696619  0.386432  0.400169  1
  O  O82  1  0.303713  0.886432  0.400167  1
  O  O83  1  0.946272  0.889035  0.572415  1
  O  O84  1  0.053921  0.389037  0.572413  1
  O  O85  1  0.053922  0.110719  0.576503  1
  O  O86  1  0.946273  0.610722  0.576501  1
  O  O87  1  0.053990  0.389036  0.396524  1
  O  O88  1  0.946341  0.889040  0.396525  1
  O  O89  1  0.629201  0.615417  0.549745  1
  O  O90  1  0.370996  0.115416  0.549746  1
  O  O91  1  0.370995  0.384340  0.599170  1
  O  O92  1  0.629199  0.884339  0.599171  1
  O  O93  1  0.371063  0.115420  0.419193  1
  O  O94  1  0.629268  0.615419  0.419193  1
  O  O95  1  0.491098  0.749878  0.574458  1
  O  O96  1  0.509100  0.249878  0.574458  1
  O  O97  1  0.491164  0.749881  0.394480  1
  O  O98  1  0.509166  0.249881  0.394480  1
  Si  Si99  1  0.127103  0.725451  0.157212  1
  Si  Si100  1  0.873101  0.225451  0.157212  1
  Si  Si101  1  0.127162  0.774307  0.337190  1
  Si  Si102  1  0.873160  0.274308  0.337189  1
  Si  Si103  1  0.873101  0.274306  0.271793  1
  Si  Si104  1  0.127102  0.774305  0.271793  1
  Si  Si105  1  0.115184  0.898659  0.190506  1
  Si  Si106  1  0.885002  0.398660  0.190505  1
  Si  Si107  1  0.115260  0.601099  0.370483  1
  Si  Si108  1  0.885078  0.101100  0.370483  1
  Si  Si109  1  0.885003  0.101096  0.238500  1
  Si  Si110  1  0.115185  0.601097  0.238499  1
  Si  Si111  1  0.850742  0.597368  0.186652  1
  Si  Si112  1  0.149453  0.097367  0.186654  1
  Si  Si113  1  0.850810  0.902391  0.366630  1
  Si  Si114  1  0.149520  0.402390  0.366630  1
  Si  Si115  1  0.149452  0.402389  0.242352  1
  Si  Si116  1  0.850741  0.902387  0.242353  1
  Si  Si117  1  0.438508  0.837100  0.230274  1
  Si  Si118  1  0.561688  0.337100  0.230275  1
  Si  Si119  1  0.561688  0.162656  0.198730  1
  Si  Si120  1  0.438508  0.662655  0.198731  1
  Si  Si121  1  0.561755  0.337104  0.378709  1
  Si  Si122  1  0.438575  0.837102  0.378708  1
  Si  Si123  1  0.127103  0.725451  0.517167  1
  Si  Si124  1  0.873101  0.225451  0.517167  1
  Si  Si125  1  0.873101  0.274306  0.631749  1
  Si  Si126  1  0.127102  0.774305  0.631749  1
  Si  Si127  1  0.873161  0.225453  0.451771  1
  Si  Si128  1  0.127162  0.725454  0.451771  1
  Si  Si129  1  0.115184  0.898659  0.550461  1
  Si  Si130  1  0.885002  0.398660  0.550460  1
  Si  Si131  1  0.885003  0.101096  0.598455  1
  Si  Si132  1  0.115185  0.601097  0.598455  1
  Si  Si133  1  0.885078  0.398661  0.418477  1
  Si  Si134  1  0.115260  0.898663  0.418477  1
  Si  Si135  1  0.850742  0.597368  0.546607  1
  Si  Si136  1  0.149453  0.097367  0.546609  1
  Si  Si137  1  0.149452  0.402389  0.602307  1
  Si  Si138  1  0.850741  0.902387  0.602309  1
  Si  Si139  1  0.149521  0.097371  0.422331  1
  Si  Si140  1  0.850811  0.597370  0.422330  1
  Si  Si141  1  0.438508  0.837100  0.590229  1
  Si  Si142  1  0.561688  0.337100  0.590230  1
  Si  Si143  1  0.438576  0.662659  0.410253  1
  Si  Si144  1  0.561755  0.162658  0.410251  1
  Si  Si145  1  0.561688  0.162656  0.558686  1
  Si  Si146  1  0.438508  0.662655  0.558686  1
  H  H147  1  0.153783  0.723594  0.105521  1
  H  H148  1  0.846481  0.223591  0.105520  1
  H  H149  1  0.153783  0.776165  0.683440  1
  H  H150  1  0.846480  0.276167  0.683441  1
