# generated using pymatgen
data_Si40H2O81
_symmetry_space_group_name_H-M   'P 1'
_cell_length_a   6.96055515
_cell_length_b   15.33319430
_cell_length_c   64.44075041
_cell_angle_alpha   90.00000000
_cell_angle_beta   90.00000000
_cell_angle_gamma   90.00000000
_symmetry_Int_Tables_number   1
_chemical_formula_structural   Si40H2O81
_chemical_formula_sum   'Si80 H4 O162'
_cell_volume   6877.60306055
_cell_formula_units_Z   2
loop_
 _symmetry_equiv_pos_site_id
 _symmetry_equiv_pos_as_xyz
  1  'x, y, z'
loop_
 _atom_site_type_symbol
 _atom_site_label
 _atom_site_symmetry_multiplicity
 _atom_site_fract_x
 _atom_site_fract_y
 _atom_site_fract_z
 _atom_site_occupancy
  O  O1  1  0.955899  0.664313  0.122489  1
  O  O2  1  0.044301  0.164316  0.122491  1
  O  O3  1  0.955962  0.835443  0.254831  1
  O  O4  1  0.044365  0.335446  0.254830  1
  O  O5  1  0.044301  0.335440  0.192964  1
  O  O6  1  0.955898  0.835442  0.192967  1
  O  O7  1  0.310019  0.688607  0.126968  1
  O  O8  1  0.690175  0.188607  0.126967  1
  O  O9  1  0.310089  0.811151  0.259307  1
  O  O10  1  0.690244  0.311152  0.259309  1
  O  O11  1  0.690174  0.311149  0.188488  1
  O  O12  1  0.310019  0.811148  0.188487  1
  O  O13  1  0.097988  0.821326  0.124032  1
  O  O14  1  0.902200  0.321327  0.124032  1
  O  O15  1  0.098061  0.678431  0.256373  1
  O  O16  1  0.902274  0.178433  0.256373  1
  O  O17  1  0.902200  0.178428  0.191423  1
  O  O18  1  0.097989  0.678429  0.191423  1
  O  O19  1  0.153783  0.723594  0.091558  1
  O  O20  1  0.846481  0.223591  0.091557  1
  O  O21  1  0.153783  0.776165  0.223898  1
  O  O22  1  0.846480  0.276167  0.223898  1
  O  O23  1  0.116160  0.996878  0.132149  1
  O  O24  1  0.884028  0.496879  0.132148  1
  O  O25  1  0.116235  0.502880  0.264490  1
  O  O26  1  0.884103  0.002880  0.264490  1
  O  O27  1  0.884028  0.002877  0.183307  1
  O  O28  1  0.116159  0.502878  0.183306  1
  O  O29  1  0.303643  0.886429  0.153545  1
  O  O30  1  0.696549  0.386430  0.153546  1
  O  O31  1  0.303714  0.613329  0.285887  1
  O  O32  1  0.696619  0.113329  0.285886  1
  O  O33  1  0.696550  0.113326  0.161910  1
  O  O34  1  0.303644  0.613326  0.161910  1
  O  O35  1  0.946272  0.889035  0.156225  1
  O  O36  1  0.053921  0.389037  0.156224  1
  O  O37  1  0.946341  0.610721  0.288565  1
  O  O38  1  0.053990  0.110724  0.288566  1
  O  O39  1  0.053922  0.110719  0.159231  1
  O  O40  1  0.946273  0.610722  0.159230  1
  O  O41  1  0.629201  0.615417  0.139556  1
  O  O42  1  0.370996  0.115416  0.139556  1
  O  O43  1  0.629267  0.884343  0.271897  1
  O  O44  1  0.371063  0.384342  0.271897  1
  O  O45  1  0.370995  0.384340  0.175899  1
  O  O46  1  0.629199  0.884339  0.175900  1
  O  O47  1  0.491098  0.749878  0.157728  1
  O  O48  1  0.509100  0.249878  0.157728  1
  O  O49  1  0.955899  0.664313  0.387170  1
  O  O50  1  0.044301  0.164316  0.387173  1
  O  O51  1  0.955962  0.835443  0.519513  1
  O  O52  1  0.044365  0.335446  0.519512  1
  O  O53  1  0.044301  0.335440  0.457646  1
  O  O54  1  0.955898  0.835442  0.457648  1
  O  O55  1  0.044365  0.164316  0.325307  1
  O  O56  1  0.955963  0.664318  0.325306  1
  O  O57  1  0.310019  0.688607  0.391650  1
  O  O58  1  0.690175  0.188607  0.391649  1
  O  O59  1  0.310089  0.811151  0.523989  1
  O  O60  1  0.690244  0.311152  0.523991  1
  O  O61  1  0.690174  0.311149  0.453170  1
  O  O62  1  0.310019  0.811148  0.453169  1
  O  O63  1  0.690244  0.188609  0.320828  1
  O  O64  1  0.310089  0.688610  0.320830  1
  O  O65  1  0.097988  0.821326  0.388714  1
  O  O66  1  0.902200  0.321327  0.388714  1
  O  O67  1  0.098061  0.678431  0.521055  1
  O  O68  1  0.902274  0.178433  0.521054  1
  O  O69  1  0.902200  0.178428  0.456105  1
  O  O70  1  0.097989  0.678429  0.456105  1
  O  O71  1  0.902273  0.321329  0.323765  1
  O  O72  1  0.098062  0.821330  0.323764  1
  O  O73  1  0.153783  0.723594  0.356239  1
  O  O74  1  0.846481  0.223591  0.356239  1
  O  O75  1  0.153783  0.776165  0.488580  1
  O  O76  1  0.846480  0.276167  0.488580  1
  O  O77  1  0.116160  0.996878  0.396831  1
  O  O78  1  0.884028  0.496879  0.396830  1
  O  O79  1  0.116235  0.502880  0.529171  1
  O  O80  1  0.884103  0.002880  0.529171  1
  O  O81  1  0.884028  0.002877  0.447989  1
  O  O82  1  0.116159  0.502878  0.447988  1
  O  O83  1  0.884103  0.496881  0.315647  1
  O  O84  1  0.116234  0.996881  0.315648  1
  O  O85  1  0.303643  0.886429  0.418227  1
  O  O86  1  0.696549  0.386430  0.418227  1
  O  O87  1  0.303714  0.613329  0.550568  1
  O  O88  1  0.696619  0.113329  0.550567  1
  O  O89  1  0.696550  0.113326  0.426591  1
  O  O90  1  0.303644  0.613326  0.426592  1
  O  O91  1  0.696619  0.386432  0.294251  1
  O  O92  1  0.303713  0.886432  0.294250  1
  O  O93  1  0.946272  0.889035  0.420907  1
  O  O94  1  0.053921  0.389037  0.420906  1
  O  O95  1  0.946341  0.610721  0.553247  1
  O  O96  1  0.053990  0.110724  0.553248  1
  O  O97  1  0.053922  0.110719  0.423913  1
  O  O98  1  0.946273  0.610722  0.423912  1
  O  O99  1  0.053990  0.389036  0.291571  1
  O  O100  1  0.946341  0.889040  0.291572  1
  O  O101  1  0.629201  0.615417  0.404237  1
  O  O102  1  0.370996  0.115416  0.404238  1
  O  O103  1  0.629267  0.884343  0.536578  1
  O  O104  1  0.371063  0.384342  0.536578  1
  O  O105  1  0.370995  0.384340  0.440581  1
  O  O106  1  0.629199  0.884339  0.440581  1
  O  O107  1  0.371063  0.115420  0.308240  1
  O  O108  1  0.629268  0.615419  0.308240  1
  O  O109  1  0.491098  0.749878  0.422409  1
  O  O110  1  0.509100  0.249878  0.422409  1
  O  O111  1  0.491164  0.749881  0.290069  1
  O  O112  1  0.509166  0.249881  0.290069  1
  O  O113  1  0.955899  0.664313  0.651852  1
  O  O114  1  0.044301  0.164316  0.651854  1
  O  O115  1  0.044301  0.335440  0.722328  1
  O  O116  1  0.955898  0.835442  0.722330  1
  O  O117  1  0.044365  0.164316  0.589989  1
  O  O118  1  0.955963  0.664318  0.589987  1
  O  O119  1  0.310019  0.688607  0.656331  1
  O  O120  1  0.690175  0.188607  0.656330  1
  O  O121  1  0.690174  0.311149  0.717852  1
  O  O122  1  0.310019  0.811148  0.717850  1
  O  O123  1  0.690244  0.188609  0.585510  1
  O  O124  1  0.310089  0.688610  0.585511  1
  O  O125  1  0.097988  0.821326  0.653395  1
  O  O126  1  0.902200  0.321327  0.653395  1
  O  O127  1  0.902200  0.178428  0.720787  1
  O  O128  1  0.097989  0.678429  0.720787  1
  O  O129  1  0.902273  0.321329  0.588446  1
  O  O130  1  0.098062  0.821330  0.588446  1
  O  O131  1  0.153783  0.723594  0.620921  1
  O  O132  1  0.846481  0.223591  0.620920  1
  O  O133  1  0.153783  0.776165  0.753261  1
  O  O134  1  0.846480  0.276167  0.753262  1
  O  O135  1  0.116160  0.996878  0.661512  1
  O  O136  1  0.884028  0.496879  0.661512  1
  O  O137  1  0.884028  0.002877  0.712670  1
  O  O138  1  0.116159  0.502878  0.712670  1
  O  O139  1  0.884103  0.496881  0.580329  1
  O  O140  1  0.116234  0.996881  0.580329  1
  O  O141  1  0.303643  0.886429  0.682909  1
  O  O142  1  0.696549  0.386430  0.682909  1
  O  O143  1  0.696550  0.113326  0.691273  1
  O  O144  1  0.303644  0.613326  0.691274  1
  O  O145  1  0.696619  0.386432  0.558933  1
  O  O146  1  0.303713  0.886432  0.558932  1
  O  O147  1  0.946272  0.889035  0.685589  1
  O  O148  1  0.053921  0.389037  0.685587  1
  O  O149  1  0.053922  0.110719  0.688595  1
  O  O150  1  0.946273  0.610722  0.688593  1
  O  O151  1  0.053990  0.389036  0.556253  1
  O  O152  1  0.946341  0.889040  0.556254  1
  O  O153  1  0.629201  0.615417  0.668919  1
  O  O154  1  0.370996  0.115416  0.668920  1
  O  O155  1  0.370995  0.384340  0.705262  1
  O  O156  1  0.629199  0.884339  0.705263  1
  O  O157  1  0.371063  0.115420  0.572922  1
  O  O158  1  0.629268  0.615419  0.572922  1
  O  O159  1  0.491098  0.749878  0.687091  1
  O  O160  1  0.509100  0.249878  0.687091  1
  O  O161  1  0.491164  0.749881  0.554750  1
  O  O162  1  0.509166  0.249881  0.554750  1
  Si  Si163  1  0.127103  0.725451  0.115601  1
  Si  Si164  1  0.873101  0.225451  0.115601  1
  Si  Si165  1  0.127162  0.774307  0.247942  1
  Si  Si166  1  0.873160  0.274308  0.247942  1
  Si  Si167  1  0.873101  0.274306  0.199855  1
  Si  Si168  1  0.127102  0.774305  0.199855  1
  Si  Si169  1  0.115184  0.898659  0.140082  1
  Si  Si170  1  0.885002  0.398660  0.140082  1
  Si  Si171  1  0.115260  0.601099  0.272423  1
  Si  Si172  1  0.885078  0.101100  0.272423  1
  Si  Si173  1  0.885003  0.101096  0.175373  1
  Si  Si174  1  0.115185  0.601097  0.175373  1
  Si  Si175  1  0.850742  0.597368  0.137248  1
  Si  Si176  1  0.149453  0.097367  0.137250  1
  Si  Si177  1  0.850810  0.902391  0.269590  1
  Si  Si178  1  0.149520  0.402390  0.269590  1
  Si  Si179  1  0.149452  0.402389  0.178206  1
  Si  Si180  1  0.850741  0.902387  0.178207  1
  Si  Si181  1  0.438508  0.837100  0.169325  1
  Si  Si182  1  0.561688  0.337100  0.169325  1
  Si  Si183  1  0.561688  0.162656  0.146130  1
  Si  Si184  1  0.438508  0.662655  0.146131  1
  Si  Si185  1  0.561755  0.337104  0.278472  1
  Si  Si186  1  0.438575  0.837102  0.278471  1
  Si  Si187  1  0.127103  0.725451  0.380282  1
  Si  Si188  1  0.873101  0.225451  0.380283  1
  Si  Si189  1  0.127162  0.774307  0.512623  1
  Si  Si190  1  0.873160  0.274308  0.512623  1
  Si  Si191  1  0.873101  0.274306  0.464536  1
  Si  Si192  1  0.127102  0.774305  0.464536  1
  Si  Si193  1  0.873161  0.225453  0.332196  1
  Si  Si194  1  0.127162  0.725454  0.332195  1
  Si  Si195  1  0.115184  0.898659  0.404764  1
  Si  Si196  1  0.885002  0.398660  0.404764  1
  Si  Si197  1  0.115260  0.601099  0.537105  1
  Si  Si198  1  0.885078  0.101100  0.537105  1
  Si  Si199  1  0.885003  0.101096  0.440055  1
  Si  Si200  1  0.115185  0.601097  0.440055  1
  Si  Si201  1  0.885078  0.398661  0.307714  1
  Si  Si202  1  0.115260  0.898663  0.307714  1
  Si  Si203  1  0.850742  0.597368  0.401930  1
  Si  Si204  1  0.149453  0.097367  0.401931  1
  Si  Si205  1  0.850810  0.902391  0.534272  1
  Si  Si206  1  0.149520  0.402390  0.534271  1
  Si  Si207  1  0.149452  0.402389  0.442888  1
  Si  Si208  1  0.850741  0.902387  0.442889  1
  Si  Si209  1  0.149521  0.097371  0.310547  1
  Si  Si210  1  0.850811  0.597370  0.310547  1
  Si  Si211  1  0.438508  0.837100  0.434006  1
  Si  Si212  1  0.561688  0.337100  0.434007  1
  Si  Si213  1  0.438576  0.662659  0.301666  1
  Si  Si214  1  0.561755  0.162658  0.301665  1
  Si  Si215  1  0.561688  0.162656  0.410812  1
  Si  Si216  1  0.438508  0.662655  0.410812  1
  Si  Si217  1  0.561755  0.337104  0.543153  1
  Si  Si218  1  0.438575  0.837102  0.543152  1
  Si  Si219  1  0.127103  0.725451  0.644964  1
  Si  Si220  1  0.873101  0.225451  0.644964  1
  Si  Si221  1  0.873101  0.274306  0.729218  1
  Si  Si222  1  0.127102  0.774305  0.729218  1
  Si  Si223  1  0.873161  0.225453  0.596877  1
  Si  Si224  1  0.127162  0.725454  0.596877  1
  Si  Si225  1  0.115184  0.898659  0.669446  1
  Si  Si226  1  0.885002  0.398660  0.669445  1
  Si  Si227  1  0.885003  0.101096  0.704737  1
  Si  Si228  1  0.115185  0.601097  0.704736  1
  Si  Si229  1  0.885078  0.398661  0.572396  1
  Si  Si230  1  0.115260  0.898663  0.572396  1
  Si  Si231  1  0.850742  0.597368  0.666612  1
  Si  Si232  1  0.149453  0.097367  0.666613  1
  Si  Si233  1  0.149452  0.402389  0.707569  1
  Si  Si234  1  0.850741  0.902387  0.707570  1
  Si  Si235  1  0.149521  0.097371  0.575229  1
  Si  Si236  1  0.850811  0.597370  0.575229  1
  Si  Si237  1  0.438508  0.837100  0.698688  1
  Si  Si238  1  0.561688  0.337100  0.698689  1
  Si  Si239  1  0.438576  0.662659  0.566348  1
  Si  Si240  1  0.561755  0.162658  0.566347  1
  Si  Si241  1  0.561688  0.162656  0.675493  1
  Si  Si242  1  0.438508  0.662655  0.675494  1
  H  H243  1  0.153783  0.723594  0.077591  1
  H  H244  1  0.846481  0.223591  0.077591  1
  H  H245  1  0.153783  0.776165  0.767228  1
  H  H246  1  0.846480  0.276167  0.767228  1
