# generated using pymatgen
data_SiO2
_symmetry_space_group_name_H-M   'P 1'
_cell_length_a   8.49330372
_cell_length_b   8.49308350
_cell_length_c   14.48572599
_cell_angle_alpha   90.00000000
_cell_angle_beta   90.00000000
_cell_angle_gamma   90.00000000
_symmetry_Int_Tables_number   1
_chemical_formula_structural   SiO2
_chemical_formula_sum   'Si20 O40'
_cell_volume   1044.91825023
_cell_formula_units_Z   20
loop_
 _symmetry_equiv_pos_site_id
 _symmetry_equiv_pos_as_xyz
  1  'x, y, z'
loop_
 _atom_site_type_symbol
 _atom_site_label
 _atom_site_symmetry_multiplicity
 _atom_site_fract_x
 _atom_site_fract_y
 _atom_site_fract_z
 _atom_site_occupancy
  O  O1  1  0.114989  0.589889  0.319704  1
  O  O2  1  0.410068  0.114822  0.319703  1
  O  O3  1  0.885132  0.409899  0.319706  1
  O  O4  1  0.590058  0.884964  0.319707  1
  O  O5  1  0.885121  0.589887  0.819703  1
  O  O6  1  0.590043  0.114820  0.819703  1
  O  O7  1  0.114980  0.409897  0.819707  1
  O  O8  1  0.410054  0.884963  0.819706  1
  O  O9  1  0.885123  0.409893  0.680267  1
  O  O10  1  0.590044  0.884959  0.680268  1
  O  O11  1  0.114982  0.589883  0.680265  1
  O  O12  1  0.410055  0.114816  0.680264  1
  O  O13  1  0.114990  0.409896  0.180268  1
  O  O14  1  0.410069  0.884960  0.180267  1
  O  O15  1  0.885133  0.589885  0.180264  1
  O  O16  1  0.590059  0.114819  0.180264  1
  O  O17  1  0.204751  0.416842  0.999987  1
  O  O18  1  0.583104  0.204586  0.999984  1
  O  O19  1  0.795361  0.582939  0.999982  1
  O  O20  1  0.417008  0.795196  0.999988  1
  O  O21  1  0.795361  0.416842  0.499987  1
  O  O22  1  0.417008  0.204586  0.499982  1
  O  O23  1  0.204752  0.582939  0.499984  1
  O  O24  1  0.583104  0.795195  0.499987  1
  O  O25  1  0.398924  0.317576  0.119939  1
  O  O26  1  0.682375  0.398749  0.119937  1
  O  O27  1  0.601200  0.682202  0.119939  1
  O  O28  1  0.317750  0.601030  0.119941  1
  O  O29  1  0.601192  0.317576  0.619939  1
  O  O30  1  0.317739  0.398749  0.619937  1
  O  O31  1  0.398913  0.682199  0.619940  1
  O  O32  1  0.682365  0.601026  0.619941  1
  O  O33  1  0.601190  0.682204  0.880031  1
  O  O34  1  0.317737  0.601031  0.880034  1
  O  O35  1  0.398911  0.317580  0.880032  1
  O  O36  1  0.682363  0.398754  0.880029  1
  O  O37  1  0.398923  0.682207  0.380032  1
  O  O38  1  0.682374  0.601034  0.380034  1
  O  O39  1  0.601199  0.317581  0.380031  1
  O  O40  1  0.317749  0.398753  0.380030  1
  Si  Si41  1  0.252397  0.428265  0.105954  1
  Si  Si42  1  0.571685  0.252226  0.105950  1
  Si  Si43  1  0.747725  0.571513  0.105950  1
  Si  Si44  1  0.428437  0.747553  0.105953  1
  Si  Si45  1  0.747716  0.428264  0.605952  1
  Si  Si46  1  0.428428  0.252224  0.605950  1
  Si  Si47  1  0.252388  0.571511  0.605951  1
  Si  Si48  1  0.571676  0.747552  0.605954  1
  Si  Si49  1  0.747714  0.571516  0.894017  1
  Si  Si50  1  0.428426  0.747555  0.894021  1
  Si  Si51  1  0.252387  0.428268  0.894021  1
  Si  Si52  1  0.571674  0.252228  0.894018  1
  Si  Si53  1  0.252396  0.571517  0.394018  1
  Si  Si54  1  0.571684  0.747557  0.394021  1
  Si  Si55  1  0.747725  0.428269  0.394020  1
  Si  Si56  1  0.428436  0.252230  0.394017  1
  Si  Si57  1  0.000060  0.499893  0.249985  1
  Si  Si58  1  0.500065  0.999892  0.249985  1
  Si  Si59  1  0.000054  0.499890  0.749985  1
  Si  Si60  1  0.500047  0.999890  0.749985  1
