# generated using pymatgen
data_SiO2
_symmetry_space_group_name_H-M   'P 1'
_cell_length_a   17.72854497
_cell_length_b   13.90613991
_cell_length_c   9.56864993
_cell_angle_alpha   90.00000000
_cell_angle_beta   90.00000000
_cell_angle_gamma   90.00000000
_symmetry_Int_Tables_number   1
_chemical_formula_structural   SiO2
_chemical_formula_sum   'Si48 O96'
_cell_volume   2359.01310583
_cell_formula_units_Z   48
loop_
 _symmetry_equiv_pos_site_id
 _symmetry_equiv_pos_as_xyz
  1  'x, y, z'
loop_
 _atom_site_type_symbol
 _atom_site_label
 _atom_site_symmetry_multiplicity
 _atom_site_fract_x
 _atom_site_fract_y
 _atom_site_fract_z
 _atom_site_occupancy
  O  O1  1  0.115895  0.517681  0.236067  1
  O  O2  1  0.615569  0.016592  0.236682  1
  O  O3  1  0.883969  0.517213  0.236713  1
  O  O4  1  0.384180  0.017746  0.236082  1
  O  O5  1  0.115894  0.982116  0.736066  1
  O  O6  1  0.615570  0.483220  0.736683  1
  O  O7  1  0.883968  0.982599  0.736714  1
  O  O8  1  0.384181  0.482051  0.736080  1
  O  O9  1  0.884256  0.482695  0.760194  1
  O  O10  1  0.384566  0.983682  0.759567  1
  O  O11  1  0.115533  0.483769  0.759613  1
  O  O12  1  0.615394  0.983290  0.760349  1
  O  O13  1  0.884257  0.017117  0.260196  1
  O  O14  1  0.384565  0.516114  0.259567  1
  O  O15  1  0.115533  0.016027  0.259612  1
  O  O16  1  0.615393  0.516522  0.260350  1
  O  O17  1  0.100455  0.500091  0.497574  1
  O  O18  1  0.600363  0.999818  0.498436  1
  O  O19  1  0.899499  0.499824  0.498376  1
  O  O20  1  0.399568  0.000072  0.497587  1
  O  O21  1  0.100455  0.999704  0.997574  1
  O  O22  1  0.600362  0.499996  0.998436  1
  O  O23  1  0.899499  0.999989  0.998376  1
  O  O24  1  0.399568  0.499722  0.997587  1
  O  O25  1  0.999850  0.589928  0.361881  1
  O  O26  1  0.500052  0.090532  0.362218  1
  O  O27  1  0.999847  0.909876  0.861881  1
  O  O28  1  0.500055  0.409271  0.862218  1
  O  O29  1  0.000074  0.409853  0.634252  1
  O  O30  1  0.499849  0.909183  0.633742  1
  O  O31  1  0.000077  0.089952  0.134252  1
  O  O32  1  0.499846  0.590621  0.133742  1
  O  O33  1  0.132536  0.665814  0.391747  1
  O  O34  1  0.633826  0.164824  0.390994  1
  O  O35  1  0.867496  0.665535  0.392025  1
  O  O36  1  0.367434  0.165878  0.391827  1
  O  O37  1  0.132532  0.833980  0.891739  1
  O  O38  1  0.633831  0.334991  0.891000  1
  O  O39  1  0.867492  0.834279  0.892031  1
  O  O40  1  0.367438  0.333917  0.891819  1
  O  O41  1  0.867640  0.334199  0.605360  1
  O  O42  1  0.366147  0.835176  0.606018  1
  O  O43  1  0.133647  0.335187  0.606143  1
  O  O44  1  0.633723  0.834904  0.606428  1
  O  O45  1  0.867644  0.165614  0.105367  1
  O  O46  1  0.366143  0.664618  0.106011  1
  O  O47  1  0.133652  0.164607  0.106136  1
  O  O48  1  0.633718  0.664910  0.106435  1
  O  O49  1  0.165903  0.649439  0.852531  1
  O  O50  1  0.665274  0.149813  0.850040  1
  O  O51  1  0.834523  0.649535  0.851567  1
  O  O52  1  0.334128  0.149445  0.852365  1
  O  O53  1  0.165903  0.850357  0.352534  1
  O  O54  1  0.665274  0.350000  0.350037  1
  O  O55  1  0.834523  0.850278  0.351565  1
  O  O56  1  0.334128  0.350350  0.352368  1
  O  O57  1  0.834456  0.350292  0.145634  1
  O  O58  1  0.335128  0.850021  0.148127  1
  O  O59  1  0.164908  0.349994  0.148040  1
  O  O60  1  0.665339  0.850035  0.147113  1
  O  O61  1  0.834456  0.149521  0.645632  1
  O  O62  1  0.335128  0.649775  0.648129  1
  O  O63  1  0.164907  0.149802  0.648043  1
  O  O64  1  0.665340  0.649778  0.647110  1
  O  O65  1  0.250062  0.523946  0.748087  1
  O  O66  1  0.749740  0.023992  0.748287  1
  O  O67  1  0.749996  0.523978  0.748416  1
  O  O68  1  0.250013  0.023956  0.748112  1
  O  O69  1  0.250062  0.975849  0.248088  1
  O  O70  1  0.749740  0.475821  0.248287  1
  O  O71  1  0.749996  0.975836  0.248417  1
  O  O72  1  0.250013  0.475839  0.248113  1
  O  O73  1  0.190931  0.498566  0.997875  1
  O  O74  1  0.690801  0.999866  0.998443  1
  O  O75  1  0.809009  0.499820  0.998375  1
  O  O76  1  0.309196  0.998593  0.997846  1
  O  O77  1  0.190930  0.001231  0.497875  1
  O  O78  1  0.690800  0.499946  0.498444  1
  O  O79  1  0.809009  0.999992  0.498376  1
  O  O80  1  0.309197  0.501204  0.497846  1
  O  O81  1  0.242784  0.747204  0.018253  1
  O  O82  1  0.757371  0.252953  0.979738  1
  O  O83  1  0.757469  0.746543  0.018010  1
  O  O84  1  0.257036  0.247037  0.017899  1
  O  O85  1  0.242788  0.752595  0.518253  1
  O  O86  1  0.757367  0.246856  0.479738  1
  O  O87  1  0.757473  0.753266  0.518011  1
  O  O88  1  0.257031  0.252762  0.517899  1
  O  O89  1  0.256359  0.721379  0.267842  1
  O  O90  1  0.743986  0.221318  0.230003  1
  O  O91  1  0.743813  0.721404  0.267815  1
  O  O92  1  0.243646  0.221322  0.267515  1
  O  O93  1  0.256359  0.778418  0.767842  1
  O  O94  1  0.743986  0.278494  0.730003  1
  O  O95  1  0.743813  0.778408  0.767814  1
  O  O96  1  0.243646  0.278474  0.767515  1
  Si  Si97  1  0.086502  0.570175  0.372053  1
  Si  Si98  1  0.586621  0.069743  0.372560  1
  Si  Si99  1  0.913325  0.569745  0.372644  1
  Si  Si100  1  0.413453  0.070270  0.372157  1
  Si  Si101  1  0.086500  0.929622  0.872051  1
  Si  Si102  1  0.586623  0.430069  0.872562  1
  Si  Si103  1  0.913323  0.930066  0.872646  1
  Si  Si104  1  0.413455  0.429527  0.872156  1
  Si  Si105  1  0.913488  0.430035  0.624211  1
  Si  Si106  1  0.413324  0.930351  0.623666  1
  Si  Si107  1  0.086633  0.430512  0.623790  1
  Si  Si108  1  0.586493  0.930017  0.624417  1
  Si  Si109  1  0.913490  0.069776  0.124213  1
  Si  Si110  1  0.413322  0.569446  0.123664  1
  Si  Si111  1  0.086636  0.069285  0.123788  1
  Si  Si112  1  0.586491  0.569795  0.124419  1
  Si  Si113  1  0.179314  0.537209  0.844608  1
  Si  Si114  1  0.678994  0.037560  0.844727  1
  Si  Si115  1  0.820852  0.537268  0.844598  1
  Si  Si116  1  0.320791  0.037195  0.844555  1
  Si  Si117  1  0.179314  0.962587  0.344607  1
  Si  Si118  1  0.678994  0.462252  0.344726  1
  Si  Si119  1  0.820852  0.962545  0.344597  1
  Si  Si120  1  0.320791  0.462601  0.344554  1
  Si  Si121  1  0.820661  0.462541  0.152289  1
  Si  Si122  1  0.321020  0.962270  0.152208  1
  Si  Si123  1  0.179067  0.462229  0.152227  1
  Si  Si124  1  0.679137  0.962274  0.152251  1
  Si  Si125  1  0.820661  0.037271  0.652289  1
  Si  Si126  1  0.321021  0.537526  0.652209  1
  Si  Si127  1  0.179067  0.037567  0.652227  1
  Si  Si128  1  0.679137  0.537538  0.652251  1
  Si  Si129  1  0.304450  0.743627  0.134030  1
  Si  Si130  1  0.804777  0.244954  0.115827  1
  Si  Si131  1  0.695809  0.743549  0.133832  1
  Si  Si132  1  0.195455  0.243557  0.133820  1
  Si  Si133  1  0.304453  0.756169  0.634033  1
  Si  Si134  1  0.804775  0.254857  0.615824  1
  Si  Si135  1  0.695812  0.756263  0.633829  1
  Si  Si136  1  0.195453  0.256240  0.633824  1
  Si  Si137  1  0.695831  0.256230  0.863742  1
  Si  Si138  1  0.195523  0.754793  0.881956  1
  Si  Si139  1  0.304403  0.254769  0.881746  1
  Si  Si140  1  0.804741  0.754781  0.881776  1
  Si  Si141  1  0.695829  0.243582  0.363738  1
  Si  Si142  1  0.195525  0.745004  0.381959  1
  Si  Si143  1  0.304401  0.245027  0.381748  1
  Si  Si144  1  0.804744  0.745031  0.381772  1
