# generated using pymatgen
data_SiO2
_symmetry_space_group_name_H-M   'P 1'
_cell_length_a   13.02991964
_cell_length_b   13.03001073
_cell_length_c   12.67812019
_cell_angle_alpha   90.00000000
_cell_angle_beta   90.00000000
_cell_angle_gamma   120.00000000
_symmetry_Int_Tables_number   1
_chemical_formula_structural   SiO2
_chemical_formula_sum   'Si30 O60'
_cell_volume   1864.11201967
_cell_formula_units_Z   30
loop_
 _symmetry_equiv_pos_site_id
 _symmetry_equiv_pos_as_xyz
  1  'x, y, z'
loop_
 _atom_site_type_symbol
 _atom_site_label
 _atom_site_symmetry_multiplicity
 _atom_site_fract_x
 _atom_site_fract_y
 _atom_site_fract_z
 _atom_site_occupancy
  Si  Si1  1  0.428791  0.095838  0.172891  1
  Si  Si2  1  0.902188  0.331714  0.172787  1
  Si  Si3  1  0.666063  0.095909  0.172894  1
  Si  Si4  1  0.428679  0.331745  0.172941  1
  Si  Si5  1  0.429497  0.095853  0.414824  1
  Si  Si6  1  0.902148  0.332060  0.414720  1
  Si  Si7  1  0.665746  0.095864  0.414824  1
  Si  Si8  1  0.429478  0.332121  0.414867  1
  O  O9  1  0.785283  0.212637  0.437740  1
  O  O10  1  0.459154  0.229015  0.162975  1
  O  O11  1  0.768928  0.229060  0.162945  1
  O  O12  1  0.320313  0.021122  0.097578  1
  O  O13  1  0.976688  0.297729  0.097439  1
  O  O14  1  0.699757  0.021178  0.097548  1
  O  O15  1  0.320090  0.297742  0.097687  1
  O  O16  1  0.543486  0.087988  0.147023  1
  O  O17  1  0.910206  0.454340  0.146881  1
  O  O18  1  0.543295  0.454377  0.147040  1
  O  O19  1  0.398072  0.063960  0.294016  1
  O  O20  1  0.934081  0.332685  0.293894  1
  O  O21  1  0.665074  0.064000  0.293993  1
  O  O22  1  0.397983  0.332730  0.294104  1
  O  O23  1  0.561570  0.123756  0.425381  1
  O  O24  1  0.874260  0.436234  0.425202  1
  O  O25  1  0.561559  0.436276  0.425311  1
  O  O26  1  0.426872  0.212675  0.437818  1
  O  O27  1  0.111304  0.223582  0.017121  1
  O  O28  1  0.999224  0.354240  0.499955  1
  Si  Si29  1  0.236695  0.236524  0.000071  1
  Si  Si30  1  0.095912  0.428617  0.827170  1
  Si  Si31  1  0.331884  0.428649  0.827325  1
  Si  Si32  1  0.096220  0.429176  0.585232  1
  Si  Si33  1  0.332524  0.429233  0.585380  1
  O  O34  1  0.224088  0.111299  0.982787  1
  O  O35  1  0.229153  0.459165  0.837227  1
  O  O36  1  0.021251  0.320011  0.902358  1
  O  O37  1  0.297943  0.320103  0.902583  1
  O  O38  1  0.064227  0.397792  0.706031  1
  O  O39  1  0.332950  0.397850  0.706201  1
  O  O40  1  0.213120  0.426677  0.562309  1
  O  O41  1  0.886147  0.111261  0.982681  1
  O  O42  1  0.354657  0.354266  0.500199  1
  Si  Si43  1  0.998833  0.236451  0.999875  1
  Si  Si44  1  0.666038  0.568875  0.172874  1
  Si  Si45  1  0.901980  0.568842  0.172721  1
  Si  Si46  1  0.665788  0.568312  0.414808  1
  Si  Si47  1  0.902040  0.568255  0.414661  1
  O  O48  1  0.111534  0.886198  0.017255  1
  O  O49  1  0.768734  0.538327  0.162816  1
  O  O50  1  0.699985  0.677482  0.097686  1
  O  O51  1  0.976585  0.677388  0.097460  1
  O  O52  1  0.665177  0.599696  0.294011  1
  O  O53  1  0.933843  0.599641  0.293842  1
  O  O54  1  0.785191  0.570810  0.437734  1
  O  O55  1  0.773626  0.886229  0.017358  1
  O  O56  1  0.999134  0.643226  0.499847  1
  Si  Si57  1  0.761126  0.761038  0.000166  1
  Si  Si58  1  0.750229  0.998745  0.000018  1
  Si  Si59  1  0.226173  0.998745  0.000021  1
  Si  Si60  1  0.331701  0.901653  0.827154  1
  Si  Si61  1  0.569225  0.665780  0.827256  1
  Si  Si62  1  0.568907  0.901586  0.827150  1
  Si  Si63  1  0.095681  0.665745  0.827102  1
  Si  Si64  1  0.332387  0.901633  0.585210  1
  Si  Si65  1  0.568833  0.665431  0.585323  1
  Si  Si66  1  0.568626  0.901625  0.585210  1
  Si  Si67  1  0.096099  0.665364  0.585172  1
  O  O68  1  0.886467  0.773910  0.982922  1
  O  O69  1  0.212941  0.784808  0.562219  1
  O  O70  1  0.571394  0.784853  0.562307  1
  O  O71  1  0.228891  0.768474  0.837066  1
  O  O72  1  0.538623  0.768436  0.837091  1
  O  O73  1  0.297934  0.976365  0.902459  1
  O  O74  1  0.677706  0.699759  0.902602  1
  O  O75  1  0.677325  0.976317  0.902490  1
  O  O76  1  0.021100  0.699753  0.902357  1
  O  O77  1  0.087662  0.543112  0.853000  1
  O  O78  1  0.454248  0.909505  0.853013  1
  O  O79  1  0.454616  0.543158  0.853164  1
  O  O80  1  0.332852  0.933528  0.706019  1
  O  O81  1  0.600139  0.664797  0.706149  1
  O  O82  1  0.599822  0.933496  0.706044  1
  O  O83  1  0.064000  0.664764  0.705940  1
  O  O84  1  0.124018  0.561207  0.574731  1
  O  O85  1  0.436557  0.873731  0.574662  1
  O  O86  1  0.436766  0.561257  0.574841  1
  O  O87  1  0.643723  0.643245  0.500089  1
  Si  Si88  1  0.998919  0.760969  0.999973  1
  O  O89  1  0.343917  0.998741  0.500021  1
  O  O90  1  0.632922  0.998740  0.500017  1
