# generated using pymatgen
data_SiO2
_symmetry_space_group_name_H-M   'P 1'
_cell_length_a   9.64820297
_cell_length_b   7.59048876
_cell_length_c   9.29006827
_cell_angle_alpha   90.00000000
_cell_angle_beta   90.00000000
_cell_angle_gamma   90.00000000
_symmetry_Int_Tables_number   1
_chemical_formula_structural   SiO2
_chemical_formula_sum   'Si12 O24'
_cell_volume   680.354212673
_cell_formula_units_Z   12
loop_
 _symmetry_equiv_pos_site_id
 _symmetry_equiv_pos_as_xyz
  1  'x, y, z'
loop_
 _atom_site_type_symbol
 _atom_site_label
 _atom_site_symmetry_multiplicity
 _atom_site_fract_x
 _atom_site_fract_y
 _atom_site_fract_z
 _atom_site_occupancy
  O  O1  1  0.061957  0.332700  0.229681  1
  O  O2  1  0.439984  0.332591  0.239658  1
  O  O3  1  0.061944  0.667108  0.229667  1
  O  O4  1  0.439996  0.667202  0.239653  1
  O  O5  1  0.939989  0.667208  0.759893  1
  O  O6  1  0.561946  0.667090  0.769874  1
  O  O7  1  0.939994  0.332594  0.759883  1
  O  O8  1  0.561953  0.332690  0.769871  1
  O  O9  1  0.247048  0.223934  0.399429  1
  O  O10  1  0.247033  0.775863  0.399436  1
  O  O11  1  0.747038  0.775866  0.600102  1
  O  O12  1  0.747039  0.223927  0.600103  1
  O  O13  1  0.068551  0.999903  0.320834  1
  O  O14  1  0.429029  0.999914  0.330233  1
  O  O15  1  0.929018  0.999899  0.669305  1
  O  O16  1  0.568542  0.999909  0.678714  1
  O  O17  1  0.995629  0.245664  0.493759  1
  O  O18  1  0.495630  0.245658  0.505779  1
  O  O19  1  0.995624  0.754148  0.493762  1
  O  O20  1  0.495621  0.754131  0.505786  1
  O  O21  1  0.009188  0.499873  0.991519  1
  O  O22  1  0.509187  0.499921  0.008029  1
  O  O23  1  0.254539  0.499907  0.103676  1
  O  O24  1  0.754541  0.499900  0.895862  1
  Si  Si25  1  0.088926  0.202036  0.358894  1
  Si  Si26  1  0.407048  0.202030  0.367361  1
  Si  Si27  1  0.088884  0.797759  0.358884  1
  Si  Si28  1  0.407024  0.797789  0.367355  1
  Si  Si29  1  0.907055  0.797781  0.632187  1
  Si  Si30  1  0.588928  0.797764  0.640657  1
  Si  Si31  1  0.907036  0.202009  0.632185  1
  Si  Si32  1  0.588909  0.202050  0.640648  1
  Si  Si33  1  0.093994  0.499908  0.134240  1
  Si  Si34  1  0.413274  0.499874  0.142808  1
  Si  Si35  1  0.913281  0.499918  0.856714  1
  Si  Si36  1  0.593984  0.499881  0.865319  1
