# generated using pymatgen
data_SiO2
_symmetry_space_group_name_H-M   'P 1'
_cell_length_a   8.93798613
_cell_length_b   15.03304869
_cell_length_c   19.20995788
_cell_angle_alpha   90.00000000
_cell_angle_beta   90.00000000
_cell_angle_gamma   90.00000000
_symmetry_Int_Tables_number   1
_chemical_formula_structural   SiO2
_chemical_formula_sum   'Si48 O96'
_cell_volume   2581.1494639
_cell_formula_units_Z   48
loop_
 _symmetry_equiv_pos_site_id
 _symmetry_equiv_pos_as_xyz
  1  'x, y, z'
loop_
 _atom_site_type_symbol
 _atom_site_label
 _atom_site_symmetry_multiplicity
 _atom_site_fract_x
 _atom_site_fract_y
 _atom_site_fract_z
 _atom_site_occupancy
  O  O1  1  0.250117  0.878116  0.250057  1
  O  O2  1  0.750112  0.378115  0.250048  1
  O  O3  1  0.750118  0.878116  0.250052  1
  O  O4  1  0.250111  0.378115  0.250053  1
  O  O5  1  0.250120  0.621710  0.750053  1
  O  O6  1  0.750111  0.121711  0.750051  1
  O  O7  1  0.750117  0.621710  0.750048  1
  O  O8  1  0.250113  0.121711  0.750057  1
  O  O9  1  0.000113  0.874737  0.315775  1
  O  O10  1  0.500116  0.374737  0.315771  1
  O  O11  1  0.000114  0.625089  0.815770  1
  O  O12  1  0.500116  0.125089  0.815776  1
  O  O13  1  0.000116  0.125089  0.684333  1
  O  O14  1  0.500114  0.625089  0.684328  1
  O  O15  1  0.000116  0.374737  0.184329  1
  O  O16  1  0.500113  0.874737  0.184333  1
  O  O17  1  0.199241  0.755709  0.337648  1
  O  O18  1  0.699242  0.255706  0.337632  1
  O  O19  1  0.800985  0.755706  0.337636  1
  O  O20  1  0.300989  0.255708  0.337644  1
  O  O21  1  0.199241  0.744117  0.837643  1
  O  O22  1  0.699244  0.244120  0.837636  1
  O  O23  1  0.800987  0.744120  0.837632  1
  O  O24  1  0.300989  0.244118  0.837648  1
  O  O25  1  0.800989  0.244118  0.662461  1
  O  O26  1  0.300986  0.744120  0.662468  1
  O  O27  1  0.199244  0.244121  0.662472  1
  O  O28  1  0.699243  0.744118  0.662457  1
  O  O29  1  0.800987  0.255708  0.162457  1
  O  O30  1  0.300986  0.755705  0.162472  1
  O  O31  1  0.199244  0.255706  0.162468  1
  O  O32  1  0.699240  0.755709  0.162461  1
  O  O33  1  0.242583  0.916343  0.381447  1
  O  O34  1  0.742597  0.416337  0.381439  1
  O  O35  1  0.757630  0.916338  0.381443  1
  O  O36  1  0.257647  0.416342  0.381443  1
  O  O37  1  0.242582  0.583484  0.881443  1
  O  O38  1  0.742600  0.083488  0.881442  1
  O  O39  1  0.757633  0.583489  0.881440  1
  O  O40  1  0.257646  0.083483  0.881446  1
  O  O41  1  0.757647  0.083484  0.618661  1
  O  O42  1  0.257631  0.583489  0.618662  1
  O  O43  1  0.242598  0.083489  0.618665  1
  O  O44  1  0.742584  0.583483  0.618658  1
  O  O45  1  0.757645  0.416343  0.118658  1
  O  O46  1  0.257631  0.916336  0.118665  1
  O  O47  1  0.242599  0.416338  0.118662  1
  O  O48  1  0.742581  0.916342  0.118661  1
  O  O49  1  0.205148  0.083511  0.119538  1
  O  O50  1  0.705144  0.583516  0.119523  1
  O  O51  1  0.795084  0.083515  0.119520  1
  O  O52  1  0.295080  0.583512  0.119540  1
  O  O53  1  0.205150  0.416314  0.619540  1
  O  O54  1  0.705144  0.916311  0.619520  1
  O  O55  1  0.795084  0.416310  0.619523  1
  O  O56  1  0.295082  0.916315  0.619538  1
  O  O57  1  0.795081  0.916314  0.880564  1
  O  O58  1  0.295085  0.416312  0.880584  1
  O  O59  1  0.205146  0.916310  0.880582  1
  O  O60  1  0.705149  0.416316  0.880567  1
  O  O61  1  0.795081  0.583510  0.380567  1
  O  O62  1  0.295082  0.083516  0.380582  1
  O  O63  1  0.205143  0.583515  0.380584  1
  O  O64  1  0.705150  0.083511  0.380564  1
  O  O65  1  0.210216  0.999917  0.000057  1
  O  O66  1  0.710216  0.499909  0.000046  1
  O  O67  1  0.790013  0.999902  0.000046  1
  O  O68  1  0.290014  0.499924  0.000057  1
  O  O69  1  0.210217  0.499901  0.500057  1
  O  O70  1  0.710215  0.999925  0.500047  1
  O  O71  1  0.790013  0.499916  0.500046  1
  O  O72  1  0.290014  0.999910  0.500058  1
  O  O73  1  0.000109  0.975323  0.086028  1
  O  O74  1  0.500118  0.475327  0.086027  1
  O  O75  1  0.000111  0.524499  0.586027  1
  O  O76  1  0.500120  0.024504  0.586028  1
  O  O77  1  0.000119  0.024499  0.914077  1
  O  O78  1  0.500112  0.524504  0.914076  1
  O  O79  1  0.000118  0.475322  0.414076  1
  O  O80  1  0.500110  0.975327  0.414077  1
  O  O81  1  0.250102  0.130837  0.250060  1
  O  O82  1  0.750126  0.630837  0.250045  1
  O  O83  1  0.750103  0.130837  0.250041  1
  O  O84  1  0.250125  0.630837  0.250063  1
  O  O85  1  0.250104  0.368989  0.750063  1
  O  O86  1  0.750126  0.868989  0.750041  1
  O  O87  1  0.750104  0.368989  0.750045  1
  O  O88  1  0.250126  0.868989  0.750060  1
  O  O89  1  0.500110  0.146259  0.306324  1
  O  O90  1  0.000118  0.646260  0.306327  1
  O  O91  1  0.500112  0.353567  0.806327  1
  O  O92  1  0.000119  0.853567  0.806324  1
  O  O93  1  0.500119  0.853566  0.693777  1
  O  O94  1  0.000112  0.353567  0.693780  1
  O  O95  1  0.500118  0.646259  0.193780  1
  O  O96  1  0.000110  0.146260  0.193777  1
  Si  Si97  1  0.173186  0.857923  0.322141  1
  Si  Si98  1  0.673189  0.357923  0.322135  1
  Si  Si99  1  0.827040  0.857922  0.322138  1
  Si  Si100  1  0.327042  0.357924  0.322138  1
  Si  Si101  1  0.173187  0.641902  0.822137  1
  Si  Si102  1  0.673189  0.141904  0.822138  1
  Si  Si103  1  0.827041  0.641903  0.822135  1
  Si  Si104  1  0.327043  0.141902  0.822142  1
  Si  Si105  1  0.827042  0.141902  0.677967  1
  Si  Si106  1  0.327041  0.641904  0.677966  1
  Si  Si107  1  0.173190  0.141904  0.677970  1
  Si  Si108  1  0.673187  0.641902  0.677963  1
  Si  Si109  1  0.827042  0.357924  0.177963  1
  Si  Si110  1  0.327041  0.857922  0.177971  1
  Si  Si111  1  0.173189  0.357923  0.177966  1
  Si  Si112  1  0.673186  0.857924  0.177967  1
  Si  Si113  1  0.172929  0.993120  0.080036  1
  Si  Si114  1  0.672935  0.493122  0.080026  1
  Si  Si115  1  0.827292  0.993117  0.080027  1
  Si  Si116  1  0.327300  0.493124  0.080035  1
  Si  Si117  1  0.172930  0.506702  0.580035  1
  Si  Si118  1  0.672936  0.006708  0.580027  1
  Si  Si119  1  0.827294  0.506705  0.580026  1
  Si  Si120  1  0.327301  0.006705  0.580036  1
  Si  Si121  1  0.827302  0.006702  0.920069  1
  Si  Si122  1  0.327295  0.506709  0.920078  1
  Si  Si123  1  0.172935  0.006705  0.920078  1
  Si  Si124  1  0.672929  0.506706  0.920068  1
  Si  Si125  1  0.827301  0.493121  0.420069  1
  Si  Si126  1  0.327294  0.993121  0.420078  1
  Si  Si127  1  0.172934  0.493118  0.420078  1
  Si  Si128  1  0.672928  0.993123  0.420069  1
  Si  Si129  1  0.328374  0.153814  0.321347  1
  Si  Si130  1  0.828376  0.653815  0.321336  1
  Si  Si131  1  0.671852  0.153813  0.321333  1
  Si  Si132  1  0.171854  0.653816  0.321349  1
  Si  Si133  1  0.328375  0.346011  0.821350  1
  Si  Si134  1  0.828377  0.846012  0.821332  1
  Si  Si135  1  0.671854  0.346012  0.821336  1
  Si  Si136  1  0.171856  0.846011  0.821346  1
  Si  Si137  1  0.671856  0.846011  0.678754  1
  Si  Si138  1  0.171853  0.346012  0.678772  1
  Si  Si139  1  0.328377  0.846012  0.678768  1
  Si  Si140  1  0.828376  0.346011  0.678758  1
  Si  Si141  1  0.671854  0.653816  0.178758  1
  Si  Si142  1  0.171852  0.153814  0.178768  1
  Si  Si143  1  0.328376  0.653814  0.178772  1
  Si  Si144  1  0.828374  0.153815  0.178754  1
