# generated using pymatgen
data_SiO2
_symmetry_space_group_name_H-M   'P 1'
_cell_length_a   13.57327272
_cell_length_b   13.57337392
_cell_length_c   7.58105935
_cell_angle_alpha   90.00000000
_cell_angle_beta   90.00000000
_cell_angle_gamma   90.00000000
_symmetry_Int_Tables_number   1
_chemical_formula_structural   SiO2
_chemical_formula_sum   'Si24 O48'
_cell_volume   1396.69727146
_cell_formula_units_Z   24
loop_
 _symmetry_equiv_pos_site_id
 _symmetry_equiv_pos_as_xyz
  1  'x, y, z'
loop_
 _atom_site_type_symbol
 _atom_site_label
 _atom_site_symmetry_multiplicity
 _atom_site_fract_x
 _atom_site_fract_y
 _atom_site_fract_z
 _atom_site_occupancy
  O  O1  1  0.491047  0.749899  0.874836  1
  O  O2  1  0.750035  0.490927  0.874813  1
  O  O3  1  0.009045  0.749922  0.874834  1
  O  O4  1  0.750065  0.008889  0.874809  1
  O  O5  1  0.509045  0.249890  0.125389  1
  O  O6  1  0.250031  0.508889  0.125417  1
  O  O7  1  0.991047  0.249921  0.125396  1
  O  O8  1  0.250053  0.990927  0.125417  1
  O  O9  1  0.426176  0.884742  0.669466  1
  O  O10  1  0.615158  0.425978  0.669575  1
  O  O11  1  0.073955  0.615063  0.669540  1
  O  O12  1  0.884926  0.073852  0.669559  1
  O  O13  1  0.074022  0.884783  0.669596  1
  O  O14  1  0.884899  0.426008  0.669532  1
  O  O15  1  0.426105  0.615030  0.669579  1
  O  O16  1  0.615183  0.073827  0.669580  1
  O  O17  1  0.573968  0.115040  0.330701  1
  O  O18  1  0.384903  0.573787  0.330701  1
  O  O19  1  0.926092  0.384783  0.330653  1
  O  O20  1  0.115198  0.926010  0.330717  1
  O  O21  1  0.926121  0.115065  0.330681  1
  O  O22  1  0.115164  0.573852  0.330661  1
  O  O23  1  0.573942  0.384753  0.330695  1
  O  O24  1  0.384942  0.925937  0.330586  1
  O  O25  1  0.403675  0.903563  0.000008  1
  O  O26  1  0.596404  0.403547  0.000141  1
  O  O27  1  0.096400  0.596268  0.000095  1
  O  O28  1  0.903696  0.096269  0.000123  1
  O  O29  1  0.096408  0.903559  0.000165  1
  O  O30  1  0.903679  0.403561  0.000088  1
  O  O31  1  0.403677  0.596257  0.000145  1
  O  O32  1  0.596427  0.096243  0.000145  1
  O  O33  1  0.573838  0.926116  0.863996  1
  O  O34  1  0.573806  0.573677  0.864017  1
  O  O35  1  0.926260  0.573702  0.863991  1
  O  O36  1  0.926295  0.926144  0.863975  1
  O  O37  1  0.426284  0.073670  0.136222  1
  O  O38  1  0.426257  0.426108  0.136213  1
  O  O39  1  0.073802  0.426144  0.136240  1
  O  O40  1  0.073827  0.073701  0.136256  1
  O  O41  1  0.123736  0.749926  0.457215  1
  O  O42  1  0.750046  0.123603  0.457242  1
  O  O43  1  0.376378  0.749872  0.457175  1
  O  O44  1  0.750021  0.376225  0.457229  1
  O  O45  1  0.876357  0.249927  0.543019  1
  O  O46  1  0.250088  0.876212  0.542979  1
  O  O47  1  0.623715  0.249903  0.543046  1
  O  O48  1  0.250035  0.623590  0.543005  1
  Si  Si49  1  0.475679  0.864140  0.853606  1
  Si  Si50  1  0.635793  0.475525  0.853667  1
  Si  Si51  1  0.024420  0.635679  0.853646  1
  Si  Si52  1  0.864306  0.024295  0.853646  1
  Si  Si53  1  0.024450  0.864161  0.853669  1
  Si  Si54  1  0.864278  0.475546  0.853636  1
  Si  Si55  1  0.475650  0.635658  0.853674  1
  Si  Si56  1  0.635820  0.024273  0.853664  1
  Si  Si57  1  0.524438  0.135651  0.146586  1
  Si  Si58  1  0.364275  0.524264  0.146585  1
  Si  Si59  1  0.975648  0.364161  0.146565  1
  Si  Si60  1  0.135811  0.975546  0.146609  1
  Si  Si61  1  0.975668  0.135679  0.146584  1
  Si  Si62  1  0.135790  0.524296  0.146575  1
  Si  Si63  1  0.524417  0.364133  0.146579  1
  Si  Si64  1  0.364296  0.975517  0.146528  1
  Si  Si65  1  0.137023  0.862976  0.500133  1
  Si  Si66  1  0.636987  0.136849  0.500142  1
  Si  Si67  1  0.363096  0.636824  0.500120  1
  Si  Si68  1  0.863082  0.362980  0.500106  1
  Si  Si69  1  0.363138  0.862933  0.500045  1
  Si  Si70  1  0.863103  0.136870  0.500124  1
  Si  Si71  1  0.136980  0.636866  0.500103  1
  Si  Si72  1  0.636966  0.362958  0.500136  1
