# generated using pymatgen
data_SiO2
_symmetry_space_group_name_H-M   'P 1'
_cell_length_a   8.32030442
_cell_length_b   18.25776331
_cell_length_c   13.45714247
_cell_angle_alpha   90.00000000
_cell_angle_beta   90.00000000
_cell_angle_gamma   90.00000000
_symmetry_Int_Tables_number   1
_chemical_formula_structural   SiO2
_chemical_formula_sum   'Si40 O80'
_cell_volume   2044.27651455
_cell_formula_units_Z   40
loop_
 _symmetry_equiv_pos_site_id
 _symmetry_equiv_pos_as_xyz
  1  'x, y, z'
loop_
 _atom_site_type_symbol
 _atom_site_label
 _atom_site_symmetry_multiplicity
 _atom_site_fract_x
 _atom_site_fract_y
 _atom_site_fract_z
 _atom_site_occupancy
  O  O1  1  0.763069  0.957928  0.117946  1
  O  O2  1  0.264966  0.458742  0.617538  1
  O  O3  1  0.236953  0.957925  0.117915  1
  O  O4  1  0.735268  0.458730  0.617557  1
  O  O5  1  0.764513  0.540936  0.117538  1
  O  O6  1  0.261947  0.041801  0.617934  1
  O  O7  1  0.235676  0.540941  0.117517  1
  O  O8  1  0.738423  0.041793  0.617973  1
  O  O9  1  0.242358  0.042262  0.883542  1
  O  O10  1  0.744959  0.541836  0.382662  1
  O  O11  1  0.757709  0.042256  0.883570  1
  O  O12  1  0.255295  0.541851  0.382644  1
  O  O13  1  0.244248  0.457788  0.882638  1
  O  O14  1  0.742398  0.957332  0.383539  1
  O  O15  1  0.755980  0.457779  0.882656  1
  O  O16  1  0.257901  0.957334  0.383505  1
  O  O17  1  0.748692  0.055757  0.250961  1
  O  O18  1  0.248473  0.556628  0.750399  1
  O  O19  1  0.251491  0.055753  0.250925  1
  O  O20  1  0.751741  0.556619  0.750417  1
  O  O21  1  0.748702  0.443038  0.250331  1
  O  O22  1  0.249516  0.943916  0.750848  1
  O  O23  1  0.251534  0.443051  0.250311  1
  O  O24  1  0.750675  0.943897  0.750881  1
  O  O25  1  0.735682  0.086989  0.059176  1
  O  O26  1  0.235501  0.587594  0.558124  1
  O  O27  1  0.264325  0.086999  0.059162  1
  O  O28  1  0.764771  0.587578  0.558143  1
  O  O29  1  0.735477  0.412076  0.058060  1
  O  O30  1  0.235960  0.912688  0.559093  1
  O  O31  1  0.264709  0.412080  0.058041  1
  O  O32  1  0.764391  0.912662  0.559106  1
  O  O33  1  0.261855  0.913034  0.942769  1
  O  O34  1  0.759303  0.412559  0.442794  1
  O  O35  1  0.738269  0.913005  0.942818  1
  O  O36  1  0.240909  0.412576  0.442774  1
  O  O37  1  0.260287  0.586982  0.942821  1
  O  O38  1  0.762950  0.086506  0.442815  1
  O  O39  1  0.739932  0.586973  0.942836  1
  O  O40  1  0.237331  0.086518  0.442768  1
  O  O41  1  0.000029  0.044536  0.138907  1
  O  O42  1  0.500121  0.546311  0.638528  1
  O  O43  1  0.000103  0.453567  0.138262  1
  O  O44  1  0.500171  0.955855  0.638180  1
  O  O45  1  0.000047  0.958837  0.863835  1
  O  O46  1  0.500117  0.460298  0.363243  1
  O  O47  1  0.000111  0.539899  0.863656  1
  O  O48  1  0.500129  0.040928  0.364642  1
  O  O49  1  0.240424  0.180226  0.914473  1
  O  O50  1  0.738038  0.679735  0.412474  1
  O  O51  1  0.759679  0.180209  0.914486  1
  O  O52  1  0.262202  0.679748  0.412436  1
  O  O53  1  0.238788  0.319838  0.912326  1
  O  O54  1  0.740778  0.819349  0.414376  1
  O  O55  1  0.761377  0.319824  0.912365  1
  O  O56  1  0.259561  0.819362  0.414359  1
  O  O57  1  0.748064  0.819362  0.088320  1
  O  O58  1  0.240085  0.319752  0.590480  1
  O  O59  1  0.252002  0.819367  0.088266  1
  O  O60  1  0.760209  0.319736  0.590504  1
  O  O61  1  0.742556  0.679850  0.090142  1
  O  O62  1  0.251778  0.180224  0.587760  1
  O  O63  1  0.257623  0.679852  0.090143  1
  O  O64  1  0.748540  0.180209  0.587810  1
  O  O65  1  0.500018  0.105376  0.937505  1
  O  O66  1  0.000127  0.607069  0.436523  1
  O  O67  1  0.500098  0.393102  0.936352  1
  O  O68  1  0.000176  0.894361  0.437520  1
  O  O69  1  0.500019  0.900965  0.063245  1
  O  O70  1  0.000122  0.404999  0.561178  1
  O  O71  1  0.500099  0.595751  0.062055  1
  O  O72  1  0.000177  0.100557  0.563904  1
  O  O73  1  0.734141  0.248544  0.751487  1
  O  O74  1  0.233659  0.750705  0.251485  1
  O  O75  1  0.266025  0.248550  0.751457  1
  O  O76  1  0.766602  0.750675  0.251510  1
  O  O77  1  0.000073  0.248849  0.842830  1
  O  O78  1  0.500145  0.751045  0.342425  1
  O  O79  1  0.000081  0.747593  0.131207  1
  O  O80  1  0.500133  0.254377  0.631891  1
  Si  Si81  1  0.812872  0.038848  0.143667  1
  Si  Si82  1  0.313052  0.539963  0.643058  1
  Si  Si83  1  0.187186  0.038846  0.143658  1
  Si  Si84  1  0.687186  0.539953  0.643072  1
  Si  Si85  1  0.813023  0.459765  0.142937  1
  Si  Si86  1  0.312983  0.961029  0.643436  1
  Si  Si87  1  0.187184  0.459770  0.142923  1
  Si  Si88  1  0.687349  0.961015  0.643439  1
  Si  Si89  1  0.187360  0.962050  0.858231  1
  Si  Si90  1  0.687417  0.461941  0.357701  1
  Si  Si91  1  0.812741  0.962039  0.858285  1
  Si  Si92  1  0.312817  0.461954  0.357683  1
  Si  Si93  1  0.187393  0.537816  0.857836  1
  Si  Si94  1  0.687417  0.037603  0.358510  1
  Si  Si95  1  0.812828  0.537809  0.857852  1
  Si  Si96  1  0.312844  0.037608  0.358461  1
  Si  Si97  1  0.313176  0.105696  0.949024  1
  Si  Si98  1  0.813321  0.605953  0.447838  1
  Si  Si99  1  0.686862  0.105691  0.949034  1
  Si  Si100  1  0.186939  0.605969  0.447821  1
  Si  Si101  1  0.313295  0.393762  0.947718  1
  Si  Si102  1  0.813329  0.893901  0.448991  1
  Si  Si103  1  0.686898  0.393759  0.947736  1
  Si  Si104  1  0.187019  0.893910  0.448986  1
  Si  Si105  1  0.686560  0.895559  0.052902  1
  Si  Si106  1  0.186425  0.396628  0.552854  1
  Si  Si107  1  0.313488  0.895569  0.052858  1
  Si  Si108  1  0.813820  0.396618  0.552871  1
  Si  Si109  1  0.686470  0.603232  0.053003  1
  Si  Si110  1  0.186787  0.104477  0.552891  1
  Si  Si111  1  0.313728  0.603241  0.052993  1
  Si  Si112  1  0.813558  0.104471  0.552924  1
  Si  Si113  1  0.814147  0.249421  0.855819  1
  Si  Si114  1  0.314229  0.750185  0.355675  1
  Si  Si115  1  0.186003  0.249436  0.855786  1
  Si  Si116  1  0.686051  0.750174  0.355706  1
  Si  Si117  1  0.186087  0.749411  0.139926  1
  Si  Si118  1  0.686095  0.250612  0.640033  1
  Si  Si119  1  0.814081  0.749405  0.139937  1
  Si  Si120  1  0.314166  0.250624  0.640017  1
