# generated using pymatgen
data_SiO2
_symmetry_space_group_name_H-M   'P 1'
_cell_length_a   12.96107346
_cell_length_b   12.95735766
_cell_length_c   5.13138262
_cell_angle_alpha   90.00000000
_cell_angle_beta   90.00000000
_cell_angle_gamma   90.00000000
_symmetry_Int_Tables_number   1
_chemical_formula_structural   SiO2
_chemical_formula_sum   'Si16 O32'
_cell_volume   861.770885653
_cell_formula_units_Z   16
loop_
 _symmetry_equiv_pos_site_id
 _symmetry_equiv_pos_as_xyz
  1  'x, y, z'
loop_
 _atom_site_type_symbol
 _atom_site_label
 _atom_site_symmetry_multiplicity
 _atom_site_fract_x
 _atom_site_fract_y
 _atom_site_fract_z
 _atom_site_occupancy
  O  O1  1  0.349795  0.150057  0.750097  1
  O  O2  1  0.849847  0.650093  0.249586  1
  O  O3  1  0.849818  0.349698  0.749820  1
  O  O4  1  0.349824  0.849715  0.249939  1
  O  O5  1  0.650099  0.849660  0.749581  1
  O  O6  1  0.150176  0.349751  0.250096  1
  O  O7  1  0.150122  0.650095  0.749941  1
  O  O8  1  0.650154  0.150056  0.249819  1
  O  O9  1  0.650140  0.150062  0.749817  1
  O  O10  1  0.150149  0.650076  0.249951  1
  O  O11  1  0.150117  0.349694  0.750093  1
  O  O12  1  0.650173  0.849732  0.249577  1
  O  O13  1  0.349801  0.849730  0.749934  1
  O  O14  1  0.849830  0.349695  0.249825  1
  O  O15  1  0.849777  0.650025  0.749588  1
  O  O16  1  0.349853  0.150113  0.250091  1
  O  O17  1  0.499990  0.234243  0.999888  1
  O  O18  1  0.999968  0.734243  0.499832  1
  O  O19  1  0.765678  0.499878  0.999815  1
  O  O20  1  0.265678  0.999903  0.499905  1
  O  O21  1  0.499971  0.765538  0.999836  1
  O  O22  1  0.999987  0.265539  0.499886  1
  O  O23  1  0.234282  0.499906  0.999902  1
  O  O24  1  0.734282  0.999875  0.499819  1
  O  O25  1  0.315096  0.315031  0.999996  1
  O  O26  1  0.815079  0.814999  0.499704  1
  O  O27  1  0.684881  0.315000  0.999836  1
  O  O28  1  0.184865  0.815031  0.499905  1
  O  O29  1  0.684865  0.684748  0.999704  1
  O  O30  1  0.184881  0.184781  0.499996  1
  O  O31  1  0.315079  0.684782  0.999905  1
  O  O32  1  0.815095  0.184749  0.499836  1
  Si  Si33  1  0.380772  0.212746  0.000026  1
  Si  Si34  1  0.880760  0.712719  0.499668  1
  Si  Si35  1  0.787173  0.380656  0.999831  1
  Si  Si36  1  0.287161  0.880686  0.499915  1
  Si  Si37  1  0.619187  0.787035  0.999665  1
  Si  Si38  1  0.119202  0.287062  0.500026  1
  Si  Si39  1  0.212787  0.619123  0.999919  1
  Si  Si40  1  0.712798  0.119097  0.499830  1
  Si  Si41  1  0.619200  0.212719  0.999831  1
  Si  Si42  1  0.119190  0.712747  0.499917  1
  Si  Si43  1  0.212799  0.380686  0.000026  1
  Si  Si44  1  0.712787  0.880658  0.499665  1
  Si  Si45  1  0.380758  0.787063  0.999913  1
  Si  Si46  1  0.880774  0.287034  0.499833  1
  Si  Si47  1  0.787162  0.619097  0.999668  1
  Si  Si48  1  0.287173  0.119124  0.500027  1
