# generated using pymatgen
data_SiO2
_symmetry_space_group_name_H-M   'P 1'
_cell_length_a   12.25912848
_cell_length_b   12.26212939
_cell_length_c   20.51521873
_cell_angle_alpha   90.00000000
_cell_angle_beta   90.00000000
_cell_angle_gamma   120.00000000
_symmetry_Int_Tables_number   1
_chemical_formula_structural   SiO2
_chemical_formula_sum   'Si48 O96'
_cell_volume   2670.74407984
_cell_formula_units_Z   48
loop_
 _symmetry_equiv_pos_site_id
 _symmetry_equiv_pos_as_xyz
  1  'x, y, z'
loop_
 _atom_site_type_symbol
 _atom_site_label
 _atom_site_symmetry_multiplicity
 _atom_site_fract_x
 _atom_site_fract_y
 _atom_site_fract_z
 _atom_site_occupancy
  O  O1  1  0.017943  0.335707  0.061269  1
  O  O2  1  0.313785  0.335274  0.063704  1
  O  O3  1  0.013253  0.329022  0.186410  1
  O  O4  1  0.312439  0.334857  0.189091  1
  O  O5  1  0.018386  0.338741  0.311825  1
  O  O6  1  0.310938  0.328735  0.314676  1
  O  O7  1  0.219016  0.443995  0.126460  1
  O  O8  1  0.108507  0.223318  0.251143  1
  O  O9  1  0.248814  0.125455  0.247541  1
  O  O10  1  0.870831  0.127267  0.253695  1
  O  O11  1  0.879751  0.117981  0.009478  1
  O  O12  1  0.237170  0.119133  0.010680  1
  Si  Si13  1  0.078307  0.412872  0.125062  1
  Si  Si14  1  0.330010  0.414951  0.126402  1
  Si  Si15  1  0.998464  0.253812  0.250707  1
  Si  Si16  1  0.248549  0.252300  0.250892  1
  Si  Si17  1  0.251558  0.252511  0.001735  1
  Si  Si18  1  0.998715  0.251378  0.000112  1
  O  O19  1  0.332066  0.315127  0.563756  1
  O  O20  1  0.679669  0.020658  0.560329  1
  O  O21  1  0.976503  0.315931  0.561201  1
  O  O22  1  0.334316  0.020203  0.561539  1
  O  O23  1  0.016425  0.331176  0.437178  1
  O  O24  1  0.313221  0.335200  0.439876  1
  O  O25  1  0.441838  0.221557  0.626549  1
  O  O26  1  0.774827  0.221692  0.625654  1
  O  O27  1  0.220483  0.443621  0.374962  1
  O  O28  1  0.537649  0.461076  0.628103  1
  O  O29  1  0.536173  0.077324  0.628869  1
  O  O30  1  0.918629  0.461203  0.627488  1
  O  O31  1  0.879040  0.117070  0.491670  1
  O  O32  1  0.234054  0.118667  0.492351  1
  O  O33  1  0.115819  0.237102  0.510355  1
  Si  Si34  1  0.412401  0.332272  0.626325  1
  Si  Si35  1  0.664930  0.081113  0.624610  1
  Si  Si36  1  0.915015  0.332408  0.624658  1
  Si  Si37  1  0.411063  0.080970  0.625380  1
  Si  Si38  1  0.080508  0.414697  0.375732  1
  Si  Si39  1  0.329999  0.412458  0.376171  1
  Si  Si40  1  0.249751  0.252528  0.501683  1
  Si  Si41  1  0.996968  0.251388  0.500159  1
  Si  Si42  1  0.250168  0.000483  0.500241  1
  O  O43  1  0.333848  0.315900  0.939782  1
  O  O44  1  0.686318  0.018360  0.936216  1
  O  O45  1  0.980434  0.312811  0.937234  1
  O  O46  1  0.329659  0.018549  0.937299  1
  O  O47  1  0.332417  0.314622  0.689073  1
  O  O48  1  0.684975  0.015712  0.685442  1
  O  O49  1  0.979113  0.314182  0.686540  1
  O  O50  1  0.326811  0.015745  0.686566  1
  O  O51  1  0.326935  0.313034  0.814597  1
  O  O52  1  0.680602  0.020651  0.810896  1
  O  O53  1  0.980763  0.316002  0.812083  1
  O  O54  1  0.335757  0.020127  0.811922  1
  O  O55  1  0.441577  0.222376  0.874845  1
  O  O56  1  0.777286  0.222602  0.874209  1
  O  O57  1  0.535947  0.460813  0.873046  1
  O  O58  1  0.538169  0.079774  0.877763  1
  O  O59  1  0.922060  0.461264  0.875998  1
  O  O60  1  0.885935  0.111747  0.750114  1
  O  O61  1  0.220439  0.110489  0.751144  1
  O  O62  1  0.123829  0.252397  0.748037  1
  O  O63  1  0.117124  0.235510  0.992518  1
  Si  Si64  1  0.410808  0.332137  0.876006  1
  Si  Si65  1  0.666510  0.082489  0.874893  1
  Si  Si66  1  0.917919  0.332221  0.875107  1
  Si  Si67  1  0.412521  0.082400  0.875608  1
  Si  Si68  1  0.996527  0.251966  0.749404  1
  Si  Si69  1  0.250029  0.250772  0.750935  1
  Si  Si70  1  0.745660  0.001198  0.749716  1
  Si  Si71  1  0.251168  0.000551  0.750741  1
  O  O72  1  0.660929  0.682602  0.060922  1
  O  O73  1  0.314417  0.978528  0.061367  1
  O  O74  1  0.018853  0.682327  0.059778  1
  O  O75  1  0.661355  0.979293  0.060270  1
  O  O76  1  0.668834  0.686626  0.186142  1
  O  O77  1  0.311718  0.980725  0.186758  1
  O  O78  1  0.013118  0.686637  0.184900  1
  O  O79  1  0.669790  0.984612  0.185539  1
  O  O80  1  0.662362  0.684669  0.311658  1
  O  O81  1  0.312061  0.983285  0.312414  1
  O  O82  1  0.018625  0.681675  0.310391  1
  O  O83  1  0.661184  0.978997  0.311026  1
  O  O84  1  0.555963  0.778959  0.125812  1
  O  O85  1  0.219491  0.776605  0.125542  1
  O  O86  1  0.458487  0.540466  0.128442  1
  O  O87  1  0.459135  0.920542  0.127911  1
  O  O88  1  0.074318  0.537807  0.128123  1
  O  O89  1  0.108736  0.887339  0.249787  1
  O  O90  1  0.775923  0.888909  0.249868  1
  O  O91  1  0.871033  0.745503  0.253101  1
  O  O92  1  0.878243  0.759951  0.009299  1
  Si  Si93  1  0.584824  0.667980  0.124850  1
  Si  Si94  1  0.330274  0.916799  0.124887  1
  Si  Si95  1  0.078798  0.666891  0.124089  1
  Si  Si96  1  0.585323  0.918952  0.124390  1
  Si  Si97  1  0.745293  0.998951  0.249747  1
  Si  Si98  1  0.745406  0.748282  0.249985  1
  Si  Si99  1  0.998688  0.746830  0.249386  1
  Si  Si100  1  0.250237  0.999665  0.000379  1
  Si  Si101  1  0.248766  0.998362  0.249276  1
  O  O102  1  0.976567  0.662935  0.559762  1
  O  O103  1  0.680793  0.663364  0.560903  1
  O  O104  1  0.664159  0.685759  0.436928  1
  O  O105  1  0.312144  0.981902  0.437640  1
  O  O106  1  0.015655  0.688902  0.435733  1
  O  O107  1  0.664308  0.981250  0.436325  1
  O  O108  1  0.776389  0.557563  0.625620  1
  O  O109  1  0.551685  0.776892  0.374143  1
  O  O110  1  0.220052  0.779280  0.374027  1
  O  O111  1  0.458897  0.537427  0.373562  1
  O  O112  1  0.458500  0.923380  0.373490  1
  O  O113  1  0.077928  0.540339  0.378313  1
  O  O114  1  0.879637  0.766264  0.491555  1
  O  O115  1  0.116714  0.881565  0.509540  1
  O  O116  1  0.757136  0.880391  0.509305  1
  Si  Si117  1  0.916515  0.587113  0.623957  1
  Si  Si118  1  0.665703  0.586954  0.624756  1
  Si  Si119  1  0.582919  0.667283  0.374568  1
  Si  Si120  1  0.329739  0.919828  0.374782  1
  Si  Si121  1  0.080056  0.668342  0.374742  1
  Si  Si122  1  0.582546  0.917604  0.374224  1
  Si  Si123  1  0.744414  0.747865  0.499618  1
  Si  Si124  1  0.997204  0.748946  0.499133  1
  Si  Si125  1  0.743992  0.999877  0.499300  1
  O  O126  1  0.980012  0.669071  0.935651  1
  O  O127  1  0.683401  0.665712  0.936956  1
  O  O128  1  0.982613  0.671947  0.684935  1
  O  O129  1  0.684796  0.671035  0.686087  1
  O  O130  1  0.976678  0.661479  0.810332  1
  O  O131  1  0.683114  0.664908  0.811611  1
  O  O132  1  0.775264  0.554079  0.874045  1
  O  O133  1  0.887178  0.777600  0.749770  1
  O  O134  1  0.744857  0.873778  0.753038  1
  O  O135  1  0.125242  0.872377  0.753735  1
  O  O136  1  0.115297  0.882602  0.991984  1
  O  O137  1  0.762797  0.881099  0.991412  1
  Si  Si138  1  0.916058  0.585142  0.874269  1
  Si  Si139  1  0.665519  0.585128  0.874416  1
  Si  Si140  1  0.997033  0.746700  0.749427  1
  Si  Si141  1  0.746755  0.747704  0.749867  1
  Si  Si142  1  0.745277  0.746291  0.999577  1
  Si  Si143  1  0.746512  0.999180  0.999340  1
  Si  Si144  1  0.998084  0.747409  0.999079  1
