# generated using pymatgen
data_SiO2
_symmetry_space_group_name_H-M   'P 1'
_cell_length_a   13.66524331
_cell_length_b   13.66911044
_cell_length_c   8.35476497
_cell_angle_alpha   90.00000000
_cell_angle_beta   90.00000000
_cell_angle_gamma   120.00000000
_symmetry_Int_Tables_number   1
_chemical_formula_structural   SiO2
_chemical_formula_sum   'Si24 O48'
_cell_volume   1351.5200406
_cell_formula_units_Z   24
loop_
 _symmetry_equiv_pos_site_id
 _symmetry_equiv_pos_as_xyz
  1  'x, y, z'
loop_
 _atom_site_type_symbol
 _atom_site_label
 _atom_site_symmetry_multiplicity
 _atom_site_fract_x
 _atom_site_fract_y
 _atom_site_fract_z
 _atom_site_occupancy
  O  O1  1  0.458683  0.336864  0.000100  1
  O  O2  1  0.661715  0.122721  0.000094  1
  O  O3  1  0.879317  0.541704  0.000113  1
  O  O4  1  0.540450  0.662304  0.000104  1
  O  O5  1  0.336369  0.878720  0.000109  1
  O  O6  1  0.122676  0.458911  0.000093  1
  O  O7  1  0.663612  0.540854  0.500109  1
  O  O8  1  0.878329  0.337987  0.500103  1
  O  O9  1  0.457307  0.121416  0.500093  1
  O  O10  1  0.337556  0.458547  0.500091  1
  O  O11  1  0.122393  0.663370  0.500102  1
  O  O12  1  0.539813  0.878568  0.500110  1
  O  O13  1  0.367632  0.369501  0.248336  1
  O  O14  1  0.628589  0.999777  0.249402  1
  O  O15  1  0.997932  0.630137  0.252393  1
  O  O16  1  0.628672  0.630615  0.251808  1
  O  O17  1  0.367404  0.999797  0.250245  1
  O  O18  1  0.997869  0.369065  0.248262  1
  O  O19  1  0.628715  0.630605  0.748447  1
  O  O20  1  0.997913  0.369060  0.751896  1
  O  O21  1  0.367443  0.999790  0.749949  1
  O  O22  1  0.367676  0.369492  0.751811  1
  O  O23  1  0.997977  0.630132  0.747856  1
  O  O24  1  0.628627  0.999769  0.750808  1
  O  O25  1  0.428518  0.215169  0.250643  1
  O  O26  1  0.782766  0.214859  0.251263  1
  O  O27  1  0.782798  0.569520  0.247505  1
  O  O28  1  0.567776  0.784748  0.249706  1
  O  O29  1  0.213163  0.784424  0.248928  1
  O  O30  1  0.213136  0.430160  0.252667  1
  O  O31  1  0.782844  0.569514  0.752665  1
  O  O32  1  0.782807  0.214855  0.748952  1
  O  O33  1  0.428557  0.215158  0.749578  1
  O  O34  1  0.213181  0.430152  0.747569  1
  O  O35  1  0.213204  0.784420  0.751264  1
  O  O36  1  0.567814  0.784736  0.750476  1
  O  O37  1  0.572432  0.425769  0.250921  1
  O  O38  1  0.572257  0.148258  0.249881  1
  O  O39  1  0.849484  0.425442  0.250263  1
  O  O40  1  0.423926  0.574239  0.249562  1
  O  O41  1  0.423854  0.851358  0.250692  1
  O  O42  1  0.146503  0.573890  0.249346  1
  O  O43  1  0.572476  0.425762  0.749303  1
  O  O44  1  0.849527  0.425435  0.749977  1
  O  O45  1  0.572296  0.148250  0.750265  1
  O  O46  1  0.423970  0.574231  0.750617  1
  O  O47  1  0.146547  0.573883  0.750822  1
  O  O48  1  0.423894  0.851350  0.749567  1
  Si  Si49  1  0.453832  0.333424  0.186590  1
  Si  Si50  1  0.664742  0.121811  0.186649  1
  Si  Si51  1  0.876640  0.544520  0.186621  1
  Si  Si52  1  0.543102  0.666517  0.186670  1
  Si  Si53  1  0.331695  0.878023  0.186609  1
  Si  Si54  1  0.120262  0.454950  0.186652  1
  Si  Si55  1  0.665180  0.544740  0.686671  1
  Si  Si56  1  0.876480  0.333293  0.686652  1
  Si  Si57  1  0.453426  0.121675  0.686598  1
  Si  Si58  1  0.332056  0.455270  0.686595  1
  Si  Si59  1  0.120384  0.666299  0.686597  1
  Si  Si60  1  0.542991  0.878044  0.686676  1
  Si  Si61  1  0.543134  0.666509  0.813535  1
  Si  Si62  1  0.331728  0.878018  0.813604  1
  Si  Si63  1  0.120299  0.454944  0.813534  1
  Si  Si64  1  0.453864  0.333416  0.813606  1
  Si  Si65  1  0.664774  0.121806  0.813543  1
  Si  Si66  1  0.876676  0.544514  0.813598  1
  Si  Si67  1  0.332020  0.455277  0.313592  1
  Si  Si68  1  0.120351  0.666303  0.313605  1
  Si  Si69  1  0.542960  0.878052  0.313539  1
  Si  Si70  1  0.665144  0.544745  0.313545  1
  Si  Si71  1  0.876447  0.333297  0.313550  1
  Si  Si72  1  0.453396  0.121683  0.313589  1
