# generated using pymatgen
data_SiO2
_symmetry_space_group_name_H-M   'P 1'
_cell_length_a   15.73891749
_cell_length_b   9.81039070
_cell_length_c   8.32108458
_cell_angle_alpha   90.00000000
_cell_angle_beta   90.00000000
_cell_angle_gamma   90.00000000
_symmetry_Int_Tables_number   1
_chemical_formula_structural   SiO2
_chemical_formula_sum   'Si24 O48'
_cell_volume   1284.81647903
_cell_formula_units_Z   24
loop_
 _symmetry_equiv_pos_site_id
 _symmetry_equiv_pos_as_xyz
  1  'x, y, z'
loop_
 _atom_site_type_symbol
 _atom_site_label
 _atom_site_symmetry_multiplicity
 _atom_site_fract_x
 _atom_site_fract_y
 _atom_site_fract_z
 _atom_site_occupancy
  O  O1  1  0.089242  0.689714  0.496260  1
  O  O2  1  0.590569  0.188103  0.496437  1
  O  O3  1  0.909493  0.688104  0.496454  1
  O  O4  1  0.410821  0.189714  0.496279  1
  O  O5  1  0.090977  0.308537  0.987531  1
  O  O6  1  0.589353  0.806662  0.987282  1
  O  O7  1  0.910746  0.306667  0.987263  1
  O  O8  1  0.409121  0.808541  0.987512  1
  O  O9  1  0.910607  0.306918  0.512864  1
  O  O10  1  0.409241  0.808548  0.512750  1
  O  O11  1  0.090820  0.308553  0.512769  1
  O  O12  1  0.589454  0.806922  0.512884  1
  O  O13  1  0.909397  0.687849  0.003697  1
  O  O14  1  0.410971  0.189724  0.004006  1
  O  O15  1  0.089127  0.689725  0.003988  1
  O  O16  1  0.590702  0.187848  0.003678  1
  O  O17  1  0.200208  0.500014  0.483650  1
  O  O18  1  0.700187  0.996414  0.483914  1
  O  O19  1  0.799876  0.496414  0.483914  1
  O  O20  1  0.299855  0.000013  0.483649  1
  O  O21  1  0.200238  0.500221  0.016319  1
  O  O22  1  0.700183  0.995954  0.016739  1
  O  O23  1  0.799915  0.495954  0.016738  1
  O  O24  1  0.299860  0.000224  0.016319  1
  O  O25  1  0.186844  0.667823  0.250064  1
  O  O26  1  0.687853  0.164307  0.250138  1
  O  O27  1  0.812227  0.664307  0.250138  1
  O  O28  1  0.313236  0.167824  0.250064  1
  O  O29  1  0.183535  0.378318  0.750053  1
  O  O30  1  0.682774  0.874791  0.750201  1
  O  O31  1  0.817306  0.374790  0.750206  1
  O  O32  1  0.316545  0.878319  0.750044  1
  O  O33  1  0.248531  0.749057  0.517075  1
  O  O34  1  0.750261  0.244649  0.516948  1
  O  O35  1  0.749798  0.744649  0.516933  1
  O  O36  1  0.251528  0.249056  0.517059  1
  O  O37  1  0.251738  0.249373  0.983026  1
  O  O38  1  0.749661  0.744089  0.983257  1
  O  O39  1  0.750442  0.244090  0.983272  1
  O  O40  1  0.248360  0.749367  0.983044  1
  O  O41  1  0.000639  0.328411  0.250090  1
  O  O42  1  0.499441  0.828408  0.250087  1
  O  O43  1  0.999640  0.625490  0.750075  1
  O  O44  1  0.500440  0.125487  0.750072  1
  O  O45  1  0.000037  0.497524  0.481538  1
  O  O46  1  0.500024  0.997523  0.481536  1
  O  O47  1  0.000063  0.497386  0.018519  1
  O  O48  1  0.500036  0.997384  0.018521  1
  Si  Si49  1  0.182666  0.652864  0.436091  1
  Si  Si50  1  0.683712  0.149527  0.436194  1
  Si  Si51  1  0.816355  0.649525  0.436195  1
  Si  Si52  1  0.317399  0.152863  0.436092  1
  Si  Si53  1  0.183723  0.357362  0.935541  1
  Si  Si54  1  0.682552  0.853541  0.935665  1
  Si  Si55  1  0.817543  0.353543  0.935660  1
  Si  Si56  1  0.316374  0.857364  0.935541  1
  Si  Si57  1  0.817464  0.353881  0.564691  1
  Si  Si58  1  0.316441  0.857227  0.564573  1
  Si  Si59  1  0.183625  0.357226  0.564572  1
  Si  Si60  1  0.682601  0.853882  0.564697  1
  Si  Si61  1  0.816302  0.649183  0.064116  1
  Si  Si62  1  0.317501  0.153002  0.064028  1
  Si  Si63  1  0.182597  0.653006  0.064025  1
  Si  Si64  1  0.683791  0.149180  0.064115  1
  Si  Si65  1  0.000572  0.344588  0.438607  1
  Si  Si66  1  0.499493  0.844587  0.438607  1
  Si  Si67  1  0.999488  0.639711  0.938977  1
  Si  Si68  1  0.500607  0.139710  0.938978  1
  Si  Si69  1  0.999558  0.639824  0.561179  1
  Si  Si70  1  0.500507  0.139821  0.561181  1
  Si  Si71  1  0.000684  0.344483  0.061550  1
  Si  Si72  1  0.499411  0.844481  0.061551  1
