# generated using pymatgen
data_SiO2
_symmetry_space_group_name_H-M   'P 1'
_cell_length_a   8.79163846
_cell_length_b   19.65370664
_cell_length_c   10.16891627
_cell_angle_alpha   90.00000000
_cell_angle_beta   90.00000000
_cell_angle_gamma   90.00000000
_symmetry_Int_Tables_number   1
_chemical_formula_structural   SiO2
_chemical_formula_sum   'Si32 O64'
_cell_volume   1757.06958337
_cell_formula_units_Z   32
loop_
 _symmetry_equiv_pos_site_id
 _symmetry_equiv_pos_as_xyz
  1  'x, y, z'
loop_
 _atom_site_type_symbol
 _atom_site_label
 _atom_site_symmetry_multiplicity
 _atom_site_fract_x
 _atom_site_fract_y
 _atom_site_fract_z
 _atom_site_occupancy
  O  O1  1  0.220826  0.499453  0.500200  1
  O  O2  1  0.721165  0.001109  0.499483  1
  O  O3  1  0.780057  0.501138  0.499470  1
  O  O4  1  0.279680  0.999343  0.500199  1
  O  O5  1  0.220795  0.000402  0.000186  1
  O  O6  1  0.721207  0.498700  0.999482  1
  O  O7  1  0.780025  0.998686  0.999467  1
  O  O8  1  0.279714  0.500434  0.000209  1
  O  O9  1  0.250141  0.465420  0.250098  1
  O  O10  1  0.750874  0.965364  0.249931  1
  O  O11  1  0.750021  0.465409  0.249912  1
  O  O12  1  0.250777  0.965345  0.249744  1
  O  O13  1  0.250102  0.034396  0.750060  1
  O  O14  1  0.750913  0.534454  0.749928  1
  O  O15  1  0.749965  0.034407  0.749912  1
  O  O16  1  0.250790  0.534463  0.749759  1
  O  O17  1  0.201584  0.369969  0.413947  1
  O  O18  1  0.704060  0.871266  0.416548  1
  O  O19  1  0.796661  0.371519  0.417657  1
  O  O20  1  0.298816  0.870263  0.414659  1
  O  O21  1  0.201555  0.129861  0.913908  1
  O  O22  1  0.704076  0.628545  0.916543  1
  O  O23  1  0.796645  0.128301  0.917647  1
  O  O24  1  0.298857  0.629507  0.914743  1
  O  O25  1  0.798859  0.630147  0.585562  1
  O  O26  1  0.296501  0.128749  0.583145  1
  O  O27  1  0.203879  0.629225  0.583916  1
  O  O28  1  0.701705  0.130331  0.586922  1
  O  O29  1  0.798814  0.869680  0.085560  1
  O  O30  1  0.296534  0.371055  0.083185  1
  O  O31  1  0.203807  0.870631  0.083784  1
  O  O32  1  0.701727  0.369480  0.086930  1
  O  O33  1  0.000141  0.455881  0.365158  1
  O  O34  1  0.500837  0.956049  0.365308  1
  O  O35  1  0.000102  0.043941  0.865128  1
  O  O36  1  0.500876  0.543739  0.865305  1
  O  O37  1  0.000847  0.544561  0.634763  1
  O  O38  1  0.500105  0.044278  0.634651  1
  O  O39  1  0.000816  0.955276  0.134761  1
  O  O40  1  0.500147  0.455532  0.134679  1
  O  O41  1  0.242330  0.277533  0.245241  1
  O  O42  1  0.761503  0.777595  0.254736  1
  O  O43  1  0.742710  0.277525  0.256488  1
  O  O44  1  0.246254  0.777431  0.250207  1
  O  O45  1  0.242324  0.222285  0.745222  1
  O  O46  1  0.761531  0.722225  0.754738  1
  O  O47  1  0.742686  0.222292  0.756483  1
  O  O48  1  0.246057  0.722386  0.750489  1
  O  O49  1  0.251454  0.251411  0.993340  1
  O  O50  1  0.741846  0.749077  0.005842  1
  O  O51  1  0.750791  0.247579  0.008639  1
  O  O52  1  0.261257  0.750678  0.001151  1
  O  O53  1  0.251467  0.248403  0.493354  1
  O  O54  1  0.741922  0.750756  0.505848  1
  O  O55  1  0.750780  0.252233  0.508653  1
  O  O56  1  0.261088  0.749055  0.500810  1
  O  O57  1  0.496686  0.279810  0.120273  1
  O  O58  1  0.002332  0.778651  0.110784  1
  O  O59  1  0.496672  0.219997  0.620257  1
  O  O60  1  0.002401  0.721179  0.610827  1
  O  O61  1  0.502635  0.718342  0.872088  1
  O  O62  1  0.996684  0.219779  0.881995  1
  O  O63  1  0.502655  0.781444  0.372146  1
  O  O64  1  0.996697  0.280049  0.382016  1
  Si  Si65  1  0.175733  0.448192  0.386502  1
  Si  Si66  1  0.676619  0.949137  0.386830  1
  Si  Si67  1  0.824384  0.449184  0.386777  1
  Si  Si68  1  0.325115  0.948335  0.386271  1
  Si  Si69  1  0.175700  0.051639  0.886459  1
  Si  Si70  1  0.676658  0.550673  0.886826  1
  Si  Si71  1  0.824343  0.050635  0.886769  1
  Si  Si72  1  0.325153  0.551446  0.886284  1
  Si  Si73  1  0.825195  0.552081  0.613640  1
  Si  Si74  1  0.324281  0.051014  0.613297  1
  Si  Si75  1  0.176541  0.551334  0.613127  1
  Si  Si76  1  0.675764  0.052048  0.613621  1
  Si  Si77  1  0.825158  0.947746  0.113640  1
  Si  Si78  1  0.324321  0.448786  0.113347  1
  Si  Si79  1  0.176518  0.948518  0.113099  1
  Si  Si80  1  0.675804  0.447764  0.113633  1
  Si  Si81  1  0.320930  0.292750  0.109413  1
  Si  Si82  1  0.826051  0.791625  0.112819  1
  Si  Si83  1  0.673143  0.291727  0.116601  1
  Si  Si84  1  0.178336  0.792354  0.109977  1
  Si  Si85  1  0.320912  0.207059  0.609386  1
  Si  Si86  1  0.826128  0.708195  0.612838  1
  Si  Si87  1  0.673136  0.208093  0.616582  1
  Si  Si88  1  0.178410  0.707501  0.610068  1
  Si  Si89  1  0.678419  0.706686  0.888497  1
  Si  Si90  1  0.173120  0.207722  0.885118  1
  Si  Si91  1  0.326319  0.707410  0.885748  1
  Si  Si92  1  0.820928  0.206699  0.892310  1
  Si  Si93  1  0.678432  0.793119  0.388523  1
  Si  Si94  1  0.173125  0.292115  0.385126  1
  Si  Si95  1  0.326317  0.792362  0.385596  1
  Si  Si96  1  0.820945  0.293127  0.392310  1
