# generated using pymatgen
data_SiO2
_symmetry_space_group_name_H-M   'P 1'
_cell_length_a   9.55955391
_cell_length_b   5.14486249
_cell_length_c   8.56095159
_cell_angle_alpha   90.00000000
_cell_angle_beta   90.00000000
_cell_angle_gamma   90.00000000
_symmetry_Int_Tables_number   1
_chemical_formula_structural   SiO2
_chemical_formula_sum   'Si8 O16'
_cell_volume   421.049774478
_cell_formula_units_Z   8
loop_
 _symmetry_equiv_pos_site_id
 _symmetry_equiv_pos_as_xyz
  1  'x, y, z'
loop_
 _atom_site_type_symbol
 _atom_site_label
 _atom_site_symmetry_multiplicity
 _atom_site_fract_x
 _atom_site_fract_y
 _atom_site_fract_z
 _atom_site_occupancy
  O  O1  1  0.488159  0.249592  0.361429  1
  O  O2  1  0.011725  0.749599  0.861417  1
  O  O3  1  0.511736  0.749897  0.638298  1
  O  O4  1  0.988162  0.249895  0.138297  1
  O  O5  1  0.310842  0.007250  0.524044  1
  O  O6  1  0.810847  0.492176  0.975638  1
  O  O7  1  0.689040  0.992177  0.475640  1
  O  O8  1  0.189034  0.507233  0.024028  1
  O  O9  1  0.310184  0.507326  0.514889  1
  O  O10  1  0.810179  0.992099  0.984886  1
  O  O11  1  0.689711  0.492097  0.484883  1
  O  O12  1  0.189700  0.007316  0.014880  1
  O  O13  1  0.228664  0.243572  0.275803  1
  O  O14  1  0.771239  0.755986  0.723909  1
  O  O15  1  0.728670  0.255981  0.223925  1
  O  O16  1  0.271238  0.743590  0.775814  1
  Si  Si17  1  0.331445  0.252250  0.417398  1
  Si  Si18  1  0.848403  0.747206  0.884411  1
  Si  Si19  1  0.651486  0.247202  0.384411  1
  Si  Si20  1  0.168441  0.752248  0.917388  1
  Si  Si21  1  0.668451  0.747222  0.582324  1
  Si  Si22  1  0.151486  0.252266  0.115310  1
  Si  Si23  1  0.348412  0.752272  0.615315  1
  Si  Si24  1  0.831448  0.247226  0.082328  1
