# generated using pymatgen
data_SiO2
_symmetry_space_group_name_H-M   'P 1'
_cell_length_a   13.15495907
_cell_length_b   13.15606496
_cell_length_c   17.62463462
_cell_angle_alpha   90.00000000
_cell_angle_beta   90.00000000
_cell_angle_gamma   120.00000000
_symmetry_Int_Tables_number   1
_chemical_formula_structural   SiO2
_chemical_formula_sum   'Si42 O84'
_cell_volume   2641.59518638
_cell_formula_units_Z   42
loop_
 _symmetry_equiv_pos_site_id
 _symmetry_equiv_pos_as_xyz
  1  'x, y, z'
loop_
 _atom_site_type_symbol
 _atom_site_label
 _atom_site_symmetry_multiplicity
 _atom_site_fract_x
 _atom_site_fract_y
 _atom_site_fract_z
 _atom_site_occupancy
  O  O1  1  0.020781  0.688722  0.354332  1
  O  O2  1  0.020766  0.331961  0.354286  1
  O  O3  1  0.021665  0.320120  0.069661  1
  O  O4  1  0.021667  0.701520  0.069684  1
  Si  Si5  1  0.096779  0.665262  0.295349  1
  Si  Si6  1  0.330932  0.431430  0.295333  1
  O  O7  1  0.101129  0.205946  0.406119  1
  O  O8  1  0.101108  0.895102  0.406141  1
  O  O9  1  0.307484  0.975411  0.354346  1
  O  O10  1  0.307502  0.331986  0.354317  1
  O  O11  1  0.234837  0.117379  0.396930  1
  Si  Si12  1  0.233416  0.234662  0.000719  1
  Si  Si13  1  0.233426  0.998696  0.000718  1
  O  O14  1  0.228761  0.461276  0.113086  1
  O  O15  1  0.228746  0.767426  0.113110  1
  O  O16  1  0.294603  0.974493  0.069703  1
  O  O17  1  0.294615  0.320055  0.069693  1
  O  O18  1  0.087675  0.543820  0.102213  1
  O  O19  1  0.452373  0.543777  0.102191  1
  O  O20  1  0.452348  0.908512  0.102202  1
  O  O21  1  0.066535  0.401922  0.208358  1
  O  O22  1  0.331607  0.929654  0.208387  1
  O  O23  1  0.331630  0.401898  0.208366  1
  O  O24  1  0.066522  0.664552  0.208384  1
  O  O25  1  0.227201  0.458121  0.303949  1
  O  O26  1  0.227199  0.768991  0.303966  1
  O  O27  1  0.094687  0.547302  0.312592  1
  O  O28  1  0.448896  0.547304  0.312568  1
  O  O29  1  0.448895  0.901509  0.312574  1
  O  O30  1  0.221872  0.110905  0.014165  1
  Si  Si31  1  0.231871  0.998763  0.413701  1
  Si  Si32  1  0.231893  0.233045  0.413684  1
  Si  Si33  1  0.096755  0.430851  0.121142  1
  Si  Si34  1  0.330300  0.899432  0.121169  1
  Si  Si35  1  0.330319  0.430820  0.121150  1
  Si  Si36  1  0.096742  0.665854  0.121165  1
  Si  Si37  1  0.096781  0.431442  0.295325  1
  Si  Si38  1  0.330918  0.899411  0.295352  1
  O  O39  1  0.204636  0.102321  0.595289  1
  O  O40  1  0.330658  0.021995  0.647143  1
  O  O41  1  0.330661  0.308670  0.647132  1
  O  O42  1  0.116055  0.880057  0.604518  1
  O  O43  1  0.116069  0.236020  0.604483  1
  O  O44  1  0.263668  0.264903  0.500719  1
  O  O45  1  0.460059  0.230016  0.888344  1
  O  O46  1  0.318859  0.022936  0.931760  1
  O  O47  1  0.318832  0.295860  0.931754  1
  O  O48  1  0.400644  0.067787  0.793071  1
  O  O49  1  0.400635  0.332847  0.793072  1
  O  O50  1  0.456846  0.228427  0.697477  1
  O  O51  1  0.109696  0.886444  0.987245  1
  O  O52  1  0.109677  0.223174  0.987254  1
  Si  Si53  1  0.231733  0.998660  0.587760  1
  Si  Si54  1  0.430142  0.332142  0.706100  1
  Si  Si55  1  0.231749  0.233080  0.587743  1
  Si  Si56  1  0.429604  0.098010  0.880284  1
  Si  Si57  1  0.429590  0.331561  0.880285  1
  Si  Si58  1  0.430148  0.098012  0.706100  1
  O  O59  1  0.263642  0.998709  0.500739  1
  O  O60  1  0.790260  0.895082  0.406111  1
  Si  Si61  1  0.761490  0.998712  0.000680  1
  O  O62  1  0.664231  0.688732  0.354274  1
  O  O63  1  0.664243  0.975417  0.354256  1
  Si  Si64  1  0.564754  0.899400  0.295297  1
  O  O65  1  0.878850  0.117343  0.396879  1
  O  O66  1  0.878828  0.761389  0.396915  1
  Si  Si67  1  0.565311  0.899399  0.121114  1
  O  O68  1  0.534857  0.767393  0.113056  1
  O  O69  1  0.676087  0.701551  0.069652  1
  O  O70  1  0.676058  0.974474  0.069639  1
  O  O71  1  0.594271  0.664561  0.208333  1
  O  O72  1  0.594265  0.929624  0.208328  1
  O  O73  1  0.538058  0.768986  0.303922  1
  O  O74  1  0.885220  0.110964  0.014150  1
  O  O75  1  0.885240  0.774234  0.014144  1
  Si  Si76  1  0.763147  0.764323  0.413660  1
  Si  Si77  1  0.763167  0.998745  0.413638  1
  Si  Si78  1  0.564756  0.665267  0.295303  1
  Si  Si79  1  0.565324  0.665848  0.121119  1
  Si  Si80  1  0.761500  0.762746  0.000685  1
  Si  Si81  1  0.997451  0.234713  0.000693  1
  Si  Si82  1  0.997465  0.762696  0.000699  1
  Si  Si83  1  0.997446  0.764343  0.413687  1
  Si  Si84  1  0.997446  0.233022  0.413648  1
  O  O85  1  0.893777  0.791461  0.595279  1
  O  O86  1  0.893793  0.102311  0.595256  1
  O  O87  1  0.687403  0.665431  0.647088  1
  O  O88  1  0.974117  0.308692  0.647058  1
  O  O89  1  0.974128  0.665437  0.647105  1
  O  O90  1  0.687414  0.021994  0.647051  1
  O  O91  1  0.760075  0.880036  0.604469  1
  O  O92  1  0.731259  0.998699  0.500659  1
  O  O93  1  0.766152  0.536132  0.888311  1
  O  O94  1  0.766168  0.229981  0.888286  1
  O  O95  1  0.700297  0.677351  0.931713  1
  O  O96  1  0.973250  0.295886  0.931706  1
  O  O97  1  0.973249  0.677290  0.931729  1
  O  O98  1  0.700311  0.022913  0.931694  1
  O  O99  1  0.542567  0.088895  0.899197  1
  O  O100  1  0.542542  0.453631  0.899212  1
  O  O101  1  0.907240  0.453589  0.899180  1
  O  O102  1  0.663276  0.595514  0.793038  1
  O  O103  1  0.928384  0.332857  0.793008  1
  O  O104  1  0.928367  0.595482  0.793034  1
  O  O105  1  0.663299  0.067750  0.793011  1
  O  O106  1  0.767691  0.539287  0.697449  1
  O  O107  1  0.767698  0.228411  0.697431  1
  O  O108  1  0.546005  0.095900  0.688824  1
  O  O109  1  0.545996  0.450111  0.688834  1
  O  O110  1  0.900197  0.450098  0.688803  1
  O  O111  1  0.773043  0.886503  0.987237  1
  Si  Si112  1  0.763014  0.764367  0.587719  1
  O  O113  1  0.997443  0.264877  0.500673  1
  Si  Si114  1  0.763031  0.998647  0.587697  1
  Si  Si115  1  0.664595  0.566589  0.880253  1
  Si  Si116  1  0.898172  0.331554  0.880228  1
  Si  Si117  1  0.898158  0.566556  0.880252  1
  Si  Si118  1  0.664614  0.097975  0.880229  1
  Si  Si119  1  0.663963  0.565983  0.706070  1
  Si  Si120  1  0.898117  0.332144  0.706044  1
  Si  Si121  1  0.898110  0.565962  0.706068  1
  Si  Si122  1  0.663979  0.097991  0.706046  1
  O  O123  1  0.997460  0.732532  0.500719  1
  O  O124  1  0.731233  0.732503  0.500686  1
  Si  Si125  1  0.997454  0.233070  0.587706  1
  Si  Si126  1  0.997457  0.764381  0.587745  1
