# generated using pymatgen
data_SiO2
_symmetry_space_group_name_H-M   'P 1'
_cell_length_a   8.30247312
_cell_length_b   14.94066669
_cell_length_c   9.38909107
_cell_angle_alpha   90.00000000
_cell_angle_beta   90.00000000
_cell_angle_gamma   90.00000000
_symmetry_Int_Tables_number   1
_chemical_formula_structural   SiO2
_chemical_formula_sum   'Si24 O48'
_cell_volume   1164.66495409
_cell_formula_units_Z   24
loop_
 _symmetry_equiv_pos_site_id
 _symmetry_equiv_pos_as_xyz
  1  'x, y, z'
loop_
 _atom_site_type_symbol
 _atom_site_label
 _atom_site_symmetry_multiplicity
 _atom_site_fract_x
 _atom_site_fract_y
 _atom_site_fract_z
 _atom_site_occupancy
  O  O1  1  0.249189  0.119956  0.500927  1
  O  O2  1  0.751226  0.619949  0.499348  1
  O  O3  1  0.750959  0.119956  0.500928  1
  O  O4  1  0.248921  0.619948  0.499348  1
  O  O5  1  0.248923  0.379887  0.500833  1
  O  O6  1  0.750956  0.879879  0.499252  1
  O  O7  1  0.751226  0.379888  0.500834  1
  O  O8  1  0.249191  0.879879  0.499252  1
  O  O9  1  0.263235  0.165727  0.237471  1
  O  O10  1  0.743473  0.665550  0.235004  1
  O  O11  1  0.736914  0.165729  0.237470  1
  O  O12  1  0.256675  0.665549  0.235001  1
  O  O13  1  0.263300  0.334185  0.237393  1
  O  O14  1  0.743505  0.834386  0.234880  1
  O  O15  1  0.736848  0.334185  0.237393  1
  O  O16  1  0.256644  0.834385  0.234878  1
  O  O17  1  0.736914  0.834108  0.762710  1
  O  O18  1  0.256674  0.334284  0.765176  1
  O  O19  1  0.263232  0.834107  0.762709  1
  O  O20  1  0.743474  0.334286  0.765178  1
  O  O21  1  0.736845  0.665650  0.762787  1
  O  O22  1  0.256644  0.165450  0.765299  1
  O  O23  1  0.263303  0.665649  0.762786  1
  O  O24  1  0.743502  0.165450  0.765301  1
  O  O25  1  0.241353  0.000286  0.313095  1
  O  O26  1  0.758557  0.499625  0.313067  1
  O  O27  1  0.758794  0.000286  0.313094  1
  O  O28  1  0.241592  0.499624  0.313068  1
  O  O29  1  0.758793  0.999550  0.687084  1
  O  O30  1  0.241590  0.500210  0.687114  1
  O  O31  1  0.241354  0.999549  0.687085  1
  O  O32  1  0.758556  0.500211  0.687112  1
  O  O33  1  0.000074  0.106695  0.344521  1
  O  O34  1  0.500074  0.589910  0.352683  1
  O  O35  1  0.000074  0.393349  0.344119  1
  O  O36  1  0.500074  0.910167  0.352296  1
  O  O37  1  0.000075  0.893141  0.655654  1
  O  O38  1  0.500074  0.409925  0.647499  1
  O  O39  1  0.000075  0.606486  0.656063  1
  O  O40  1  0.500074  0.089669  0.647881  1
  O  O41  1  0.500074  0.249908  0.131275  1
  O  O42  1  0.000074  0.749935  0.179035  1
  O  O43  1  0.500075  0.749929  0.868904  1
  O  O44  1  0.000075  0.249899  0.821146  1
  O  O45  1  0.229760  0.249928  0.001920  1
  O  O46  1  0.770386  0.749907  0.998259  1
  O  O47  1  0.770387  0.249929  0.001920  1
  O  O48  1  0.229763  0.749906  0.998261  1
  Si  Si49  1  0.187473  0.098905  0.346022  1
  Si  Si50  1  0.687621  0.594789  0.346634  1
  Si  Si51  1  0.812674  0.098905  0.346022  1
  Si  Si52  1  0.312528  0.594789  0.346633  1
  Si  Si53  1  0.187480  0.401031  0.345876  1
  Si  Si54  1  0.687622  0.905151  0.346496  1
  Si  Si55  1  0.812667  0.401031  0.345876  1
  Si  Si56  1  0.312527  0.905150  0.346495  1
  Si  Si57  1  0.812675  0.900931  0.654157  1
  Si  Si58  1  0.312527  0.405046  0.653547  1
  Si  Si59  1  0.187474  0.900930  0.654157  1
  Si  Si60  1  0.687620  0.405047  0.653547  1
  Si  Si61  1  0.812667  0.598804  0.654305  1
  Si  Si62  1  0.312527  0.094685  0.653683  1
  Si  Si63  1  0.187481  0.598804  0.654305  1
  Si  Si64  1  0.687621  0.094685  0.653684  1
  Si  Si65  1  0.313764  0.249935  0.150282  1
  Si  Si66  1  0.813843  0.749942  0.159713  1
  Si  Si67  1  0.686384  0.249935  0.150282  1
  Si  Si68  1  0.186303  0.749941  0.159713  1
  Si  Si69  1  0.686383  0.749901  0.849897  1
  Si  Si70  1  0.186304  0.249893  0.840466  1
  Si  Si71  1  0.313764  0.749901  0.849898  1
  Si  Si72  1  0.813845  0.249894  0.840466  1
