# generated using pymatgen
data_SiO2
_symmetry_space_group_name_H-M   'P 1'
_cell_length_a   13.14623884
_cell_length_b   21.48824536
_cell_length_c   5.11803959
_cell_angle_alpha   90.00000000
_cell_angle_beta   90.00000000
_cell_angle_gamma   90.00000000
_symmetry_Int_Tables_number   1
_chemical_formula_structural   SiO2
_chemical_formula_sum   'Si24 O48'
_cell_volume   1445.79298454
_cell_formula_units_Z   24
loop_
 _symmetry_equiv_pos_site_id
 _symmetry_equiv_pos_as_xyz
  1  'x, y, z'
loop_
 _atom_site_type_symbol
 _atom_site_label
 _atom_site_symmetry_multiplicity
 _atom_site_fract_x
 _atom_site_fract_y
 _atom_site_fract_z
 _atom_site_occupancy
  O  O1  1  0.677035  0.103557  0.750030  1
  O  O2  1  0.177041  0.603551  0.750242  1
  O  O3  1  0.323056  0.103554  0.750051  1
  O  O4  1  0.823063  0.603554  0.750282  1
  O  O5  1  0.677041  0.896332  0.250094  1
  O  O6  1  0.177037  0.396326  0.250210  1
  O  O7  1  0.323061  0.896329  0.250078  1
  O  O8  1  0.823056  0.396328  0.250231  1
  O  O9  1  0.639024  0.000014  0.499502  1
  O  O10  1  0.139031  0.499927  0.500333  1
  O  O11  1  0.361073  0.000014  0.499496  1
  O  O12  1  0.861068  0.499935  0.500311  1
  O  O13  1  0.639032  0.999870  0.999509  1
  O  O14  1  0.139026  0.499954  0.000327  1
  O  O15  1  0.361067  0.999866  0.999501  1
  O  O16  1  0.861074  0.499949  0.000304  1
  O  O17  1  0.500045  0.054626  0.749797  1
  O  O18  1  0.000051  0.554625  0.750269  1
  O  O19  1  0.500048  0.945258  0.249776  1
  O  O20  1  0.000048  0.445256  0.250289  1
  O  O21  1  0.362608  0.202934  0.001092  1
  O  O22  1  0.862596  0.702925  0.001404  1
  O  O23  1  0.637484  0.202932  0.001097  1
  O  O24  1  0.137463  0.702962  0.001031  1
  O  O25  1  0.362627  0.796941  0.501100  1
  O  O26  1  0.862647  0.296902  0.500819  1
  O  O27  1  0.637534  0.796995  0.501548  1
  O  O28  1  0.137476  0.296936  0.501096  1
  O  O29  1  0.637416  0.796868  0.999836  1
  O  O30  1  0.137455  0.296924  0.999391  1
  O  O31  1  0.362633  0.796915  0.999395  1
  O  O32  1  0.862594  0.296961  0.999118  1
  O  O33  1  0.637451  0.202977  0.499389  1
  O  O34  1  0.137483  0.702945  0.499321  1
  O  O35  1  0.362636  0.202970  0.499395  1
  O  O36  1  0.862668  0.702988  0.499699  1
  O  O37  1  0.196733  0.201372  0.750191  1
  O  O38  1  0.696738  0.701376  0.750363  1
  O  O39  1  0.803354  0.201374  0.750143  1
  O  O40  1  0.303368  0.701374  0.750197  1
  O  O41  1  0.196738  0.798507  0.250220  1
  O  O42  1  0.696733  0.298512  0.250109  1
  O  O43  1  0.803367  0.798512  0.250392  1
  O  O44  1  0.303356  0.298510  0.250169  1
  O  O45  1  0.500044  0.262195  0.250110  1
  O  O46  1  0.000052  0.762194  0.250279  1
  O  O47  1  0.500053  0.737690  0.750211  1
  O  O48  1  0.000043  0.237689  0.750182  1
  Si  Si49  1  0.617345  0.040012  0.749707  1
  Si  Si50  1  0.117348  0.540010  0.750292  1
  Si  Si51  1  0.382742  0.040009  0.749706  1
  Si  Si52  1  0.882752  0.540012  0.750288  1
  Si  Si53  1  0.617345  0.959873  0.249708  1
  Si  Si54  1  0.117350  0.459873  0.250292  1
  Si  Si55  1  0.382747  0.959872  0.249705  1
  Si  Si56  1  0.882746  0.459876  0.250289  1
  Si  Si57  1  0.309864  0.176295  0.750189  1
  Si  Si58  1  0.809870  0.676300  0.750442  1
  Si  Si59  1  0.690222  0.176298  0.750176  1
  Si  Si60  1  0.190236  0.676298  0.750204  1
  Si  Si61  1  0.309871  0.823582  0.250214  1
  Si  Si62  1  0.809865  0.323588  0.250063  1
  Si  Si63  1  0.690232  0.823584  0.250485  1
  Si  Si64  1  0.190223  0.323585  0.250217  1
  Si  Si65  1  0.616643  0.243590  0.250173  1
  Si  Si66  1  0.116657  0.743591  0.250207  1
  Si  Si67  1  0.383443  0.243587  0.250187  1
  Si  Si68  1  0.883448  0.743591  0.250443  1
  Si  Si69  1  0.616655  0.756291  0.750481  1
  Si  Si70  1  0.116645  0.256291  0.750219  1
  Si  Si71  1  0.383449  0.756291  0.750213  1
  Si  Si72  1  0.883445  0.256293  0.750067  1
