# generated using pymatgen
data_SiO2
_symmetry_space_group_name_H-M   'P 1'
_cell_length_a   22.11147951
_cell_length_b   13.78651735
_cell_length_c   6.96043577
_cell_angle_alpha   90.00000000
_cell_angle_beta   90.00000000
_cell_angle_gamma   90.00000000
_symmetry_Int_Tables_number   1
_chemical_formula_structural   SiO2
_chemical_formula_sum   'Si32 O64'
_cell_volume   2121.82129919
_cell_formula_units_Z   32
loop_
 _symmetry_equiv_pos_site_id
 _symmetry_equiv_pos_as_xyz
  1  'x, y, z'
loop_
 _atom_site_type_symbol
 _atom_site_label
 _atom_site_symmetry_multiplicity
 _atom_site_fract_x
 _atom_site_fract_y
 _atom_site_fract_z
 _atom_site_occupancy
  O  O1  1  0.145118  0.122184  0.305109  1
  O  O2  1  0.354960  0.122187  0.305185  1
  O  O3  1  0.145116  0.377546  0.305109  1
  O  O4  1  0.354959  0.377553  0.305185  1
  O  O5  1  0.854960  0.877548  0.694974  1
  O  O6  1  0.645118  0.877552  0.695050  1
  O  O7  1  0.854959  0.622182  0.694974  1
  O  O8  1  0.645116  0.622189  0.695050  1
  O  O9  1  0.030404  0.123317  0.304753  1
  O  O10  1  0.469675  0.123324  0.304836  1
  O  O11  1  0.030403  0.376411  0.304753  1
  O  O12  1  0.469674  0.376419  0.304835  1
  O  O13  1  0.969675  0.876412  0.695323  1
  O  O14  1  0.530404  0.876419  0.695406  1
  O  O15  1  0.969674  0.623316  0.695323  1
  O  O16  1  0.530403  0.623324  0.695406  1
  O  O17  1  0.086624  0.076227  0.625363  1
  O  O18  1  0.413459  0.076234  0.625441  1
  O  O19  1  0.086623  0.423502  0.625363  1
  O  O20  1  0.413457  0.423508  0.625441  1
  O  O21  1  0.913460  0.923501  0.374717  1
  O  O22  1  0.586625  0.923509  0.374795  1
  O  O23  1  0.913458  0.576227  0.374717  1
  O  O24  1  0.586623  0.576234  0.374796  1
  O  O25  1  0.088261  0.249864  0.490378  1
  O  O26  1  0.411815  0.249871  0.490454  1
  O  O27  1  0.911815  0.749864  0.509704  1
  O  O28  1  0.588262  0.749871  0.509781  1
  O  O29  1  0.143970  0.079476  0.951321  1
  O  O30  1  0.356116  0.079484  0.951396  1
  O  O31  1  0.143969  0.420253  0.951321  1
  O  O32  1  0.356115  0.420258  0.951396  1
  O  O33  1  0.856117  0.920252  0.048763  1
  O  O34  1  0.643971  0.920259  0.048837  1
  O  O35  1  0.856115  0.579478  0.048763  1
  O  O36  1  0.643969  0.579482  0.048838  1
  O  O37  1  0.175115  0.249866  0.064571  1
  O  O38  1  0.324969  0.249870  0.064643  1
  O  O39  1  0.824969  0.749866  0.935515  1
  O  O40  1  0.675115  0.749870  0.935587  1
  O  O41  1  0.250041  0.113167  0.121381  1
  O  O42  1  0.250040  0.386569  0.121381  1
  O  O43  1  0.750041  0.886569  0.878778  1
  O  O44  1  0.750040  0.613167  0.878778  1
  O  O45  1  0.972735  0.249864  0.108328  1
  O  O46  1  0.527348  0.249872  0.108426  1
  O  O47  1  0.027348  0.749864  0.891733  1
  O  O48  1  0.472734  0.749872  0.891831  1
  O  O49  1  0.032092  0.111617  0.945202  1
  O  O50  1  0.467994  0.111626  0.945285  1
  O  O51  1  0.032090  0.388112  0.945203  1
  O  O52  1  0.467992  0.388117  0.945284  1
  O  O53  1  0.967994  0.888110  0.054874  1
  O  O54  1  0.532092  0.888119  0.054957  1
  O  O55  1  0.967992  0.611619  0.054874  1
  O  O56  1  0.532090  0.611624  0.054956  1
  O  O57  1  0.937357  0.059461  0.127490  1
  O  O58  1  0.562728  0.059470  0.127579  1
  O  O59  1  0.937355  0.440267  0.127490  1
  O  O60  1  0.562726  0.440273  0.127579  1
  O  O61  1  0.062728  0.940266  0.872579  1
  O  O62  1  0.437357  0.940275  0.872669  1
  O  O63  1  0.062726  0.559463  0.872580  1
  O  O64  1  0.437355  0.559468  0.872669  1
  Si  Si65  1  0.087565  0.138687  0.436941  1
  Si  Si66  1  0.412514  0.138694  0.437017  1
  Si  Si67  1  0.087563  0.361041  0.436940  1
  Si  Si68  1  0.412513  0.361048  0.437018  1
  Si  Si69  1  0.912514  0.861041  0.563142  1
  Si  Si70  1  0.587564  0.861048  0.563218  1
  Si  Si71  1  0.912513  0.638687  0.563141  1
  Si  Si72  1  0.587563  0.638694  0.563218  1
  Si  Si73  1  0.180371  0.137808  0.109348  1
  Si  Si74  1  0.319712  0.137812  0.109414  1
  Si  Si75  1  0.180369  0.361923  0.109348  1
  Si  Si76  1  0.319711  0.361927  0.109413  1
  Si  Si77  1  0.819712  0.861923  0.890745  1
  Si  Si78  1  0.680371  0.861927  0.890811  1
  Si  Si79  1  0.819711  0.637808  0.890746  1
  Si  Si80  1  0.680369  0.637812  0.890811  1
  Si  Si81  1  0.989685  0.138229  0.120354  1
  Si  Si82  1  0.510399  0.138236  0.120446  1
  Si  Si83  1  0.989683  0.361500  0.120355  1
  Si  Si84  1  0.510398  0.361507  0.120445  1
  Si  Si85  1  0.010399  0.861499  0.879713  1
  Si  Si86  1  0.489685  0.861507  0.879804  1
  Si  Si87  1  0.010398  0.638229  0.879713  1
  Si  Si88  1  0.489683  0.638236  0.879804  1
  Si  Si89  1  0.083452  0.049824  0.845020  1
  Si  Si90  1  0.416635  0.049833  0.845098  1
  Si  Si91  1  0.083450  0.449905  0.845019  1
  Si  Si92  1  0.416634  0.449909  0.845098  1
  Si  Si93  1  0.916635  0.949902  0.155061  1
  Si  Si94  1  0.583452  0.949911  0.155139  1
  Si  Si95  1  0.916633  0.549826  0.155060  1
  Si  Si96  1  0.583450  0.549831  0.155139  1
