# generated using pymatgen
data_SiO2
_symmetry_space_group_name_H-M   'P 1'
_cell_length_a   9.74432742
_cell_length_b   9.74497419
_cell_length_c   9.73973730
_cell_angle_alpha   90.00000000
_cell_angle_beta   90.00000000
_cell_angle_gamma   90.00000000
_symmetry_Int_Tables_number   1
_chemical_formula_structural   SiO2
_chemical_formula_sum   'Si16 O32'
_cell_volume   924.868109724
_cell_formula_units_Z   16
loop_
 _symmetry_equiv_pos_site_id
 _symmetry_equiv_pos_as_xyz
  1  'x, y, z'
loop_
 _atom_site_type_symbol
 _atom_site_label
 _atom_site_symmetry_multiplicity
 _atom_site_fract_x
 _atom_site_fract_y
 _atom_site_fract_z
 _atom_site_occupancy
  O  O1  1  0.245410  0.237207  0.267221  1
  O  O2  1  0.754537  0.762505  0.732631  1
  O  O3  1  0.250950  0.265996  0.767068  1
  O  O4  1  0.748998  0.733715  0.232785  1
  O  O5  1  0.745370  0.233444  0.261674  1
  O  O6  1  0.254576  0.766268  0.738178  1
  O  O7  1  0.750994  0.262928  0.761971  1
  O  O8  1  0.248953  0.736783  0.237880  1
  O  O9  1  0.181699  0.183556  0.011798  1
  O  O10  1  0.684042  0.681099  0.488064  1
  O  O11  1  0.996880  0.172525  0.192168  1
  O  O12  1  0.503065  0.691991  0.672678  1
  O  O13  1  0.181063  0.991138  0.184441  1
  O  O14  1  0.684639  0.508552  0.680507  1
  O  O15  1  0.000637  0.191963  0.827150  1
  O  O16  1  0.499295  0.672549  0.307709  1
  O  O17  1  0.184669  0.011029  0.819295  1
  O  O18  1  0.681037  0.488668  0.315457  1
  O  O19  1  0.815930  0.181051  0.007942  1
  O  O20  1  0.318225  0.683601  0.491892  1
  O  O21  1  0.815278  0.988682  0.180557  1
  O  O22  1  0.318910  0.511043  0.684395  1
  O  O23  1  0.818884  0.008573  0.815410  1
  O  O24  1  0.315308  0.491159  0.319345  1
  O  O25  1  0.184017  0.818660  0.991909  1
  O  O26  1  0.681721  0.316110  0.507960  1
  O  O27  1  0.999309  0.807747  0.172701  1
  O  O28  1  0.500652  0.327162  0.692143  1
  O  O29  1  0.003067  0.827186  0.807684  1
  O  O30  1  0.496882  0.307721  0.327173  1
  O  O31  1  0.818248  0.816155  0.988055  1
  O  O32  1  0.315905  0.318612  0.511787  1
  Si  Si33  1  0.155101  0.149931  0.167703  1
  Si  Si34  1  0.660391  0.664874  0.647311  1
  Si  Si35  1  0.158332  0.167007  0.852534  1
  Si  Si36  1  0.657184  0.647801  0.332142  1
  Si  Si37  1  0.839565  0.147788  0.164395  1
  Si  Si38  1  0.344852  0.666990  0.650629  1
  Si  Si39  1  0.842795  0.164841  0.849225  1
  Si  Si40  1  0.341648  0.649925  0.335477  1
  Si  Si41  1  0.157152  0.834871  0.150627  1
  Si  Si42  1  0.658300  0.349786  0.664374  1
  Si  Si43  1  0.160382  0.851923  0.835456  1
  Si  Si44  1  0.655095  0.332721  0.349223  1
  Si  Si45  1  0.844845  0.849780  0.832149  1
  Si  Si46  1  0.339556  0.334837  0.352541  1
  Si  Si47  1  0.841615  0.832705  0.147318  1
  Si  Si48  1  0.342764  0.351910  0.667710  1
