# generated using pymatgen
data_SiO2
_symmetry_space_group_name_H-M   'P 1'
_cell_length_a   13.27541299
_cell_length_b   13.36112339
_cell_length_c   13.28573461
_cell_angle_alpha   90.00000000
_cell_angle_beta   90.00000000
_cell_angle_gamma   90.00000000
_symmetry_Int_Tables_number   1
_chemical_formula_structural   SiO2
_chemical_formula_sum   'Si40 O80'
_cell_volume   2356.54961604
_cell_formula_units_Z   40
loop_
 _symmetry_equiv_pos_site_id
 _symmetry_equiv_pos_as_xyz
  1  'x, y, z'
loop_
 _atom_site_type_symbol
 _atom_site_label
 _atom_site_symmetry_multiplicity
 _atom_site_fract_x
 _atom_site_fract_y
 _atom_site_fract_z
 _atom_site_occupancy
  O  O1  1  0.133537  0.133697  0.008673  1
  O  O2  1  0.990847  0.133321  0.133600  1
  O  O3  1  0.634484  0.366916  0.008994  1
  Si  Si4  1  0.250004  0.249870  0.250089  1
  O  O5  1  0.357605  0.499559  0.125271  1
  O  O6  1  0.491778  0.366658  0.133946  1
  Si  Si7  1  0.750124  0.249851  0.250065  1
  O  O8  1  0.170523  0.183347  0.195577  1
  O  O9  1  0.695229  0.182841  0.328789  1
  O  O10  1  0.803758  0.182099  0.171060  1
  O  O11  1  0.328248  0.181617  0.304181  1
  O  O12  1  0.671881  0.318105  0.195973  1
  O  O13  1  0.196370  0.317621  0.329096  1
  O  O14  1  0.829606  0.316375  0.304575  1
  O  O15  1  0.304898  0.316880  0.171365  1
  Si  Si16  1  0.107807  0.115593  0.123077  1
  Si  Si17  1  0.876415  0.114813  0.107988  1
  Si  Si18  1  0.608618  0.385185  0.123345  1
  Si  Si19  1  0.377229  0.384404  0.108256  1
  O  O20  1  0.125431  0.000469  0.142347  1
  O  O21  1  0.633534  0.133708  0.508672  1
  O  O22  1  0.490844  0.133323  0.633601  1
  Si  Si23  1  0.877227  0.384402  0.608257  1
  O  O24  1  0.642523  0.000163  0.374887  1
  O  O25  1  0.508349  0.133061  0.366211  1
  Si  Si26  1  0.123713  0.384906  0.392170  1
  O  O27  1  0.857604  0.499557  0.625272  1
  O  O28  1  0.365643  0.132807  0.491162  1
  Si  Si29  1  0.892322  0.384124  0.377080  1
  Si  Si30  1  0.108617  0.385180  0.623345  1
  O  O31  1  0.134484  0.366912  0.508994  1
  O  O32  1  0.991777  0.366656  0.633946  1
  O  O33  1  0.009282  0.366398  0.366556  1
  O  O34  1  0.866592  0.366013  0.491485  1
  Si  Si35  1  0.607804  0.115599  0.623077  1
  Si  Si36  1  0.622899  0.115318  0.391900  1
  Si  Si37  1  0.376413  0.114813  0.607987  1
  Si  Si38  1  0.391509  0.114537  0.376811  1
  O  O39  1  0.625430  0.000474  0.642340  1
  O  O40  1  0.874696  0.499249  0.357819  1
  O  O41  1  0.008348  0.133064  0.866208  1
  O  O42  1  0.865644  0.132807  0.991163  1
  O  O43  1  0.142526  0.000162  0.874898  1
  O  O44  1  0.509283  0.366402  0.866555  1
  O  O45  1  0.670518  0.183348  0.695583  1
  O  O46  1  0.195230  0.182840  0.828789  1
  O  O47  1  0.303756  0.182099  0.671059  1
  O  O48  1  0.828245  0.181615  0.804183  1
  O  O49  1  0.171880  0.318102  0.695975  1
  O  O50  1  0.696372  0.317625  0.829097  1
  O  O51  1  0.329609  0.316375  0.804575  1
  O  O52  1  0.804899  0.316878  0.671367  1
  Si  Si53  1  0.122898  0.115319  0.891899  1
  Si  Si54  1  0.891508  0.114536  0.876812  1
  Si  Si55  1  0.623715  0.384910  0.892169  1
  Si  Si56  1  0.392323  0.384126  0.877079  1
  Si  Si57  1  0.250126  0.249851  0.750066  1
  Si  Si58  1  0.750003  0.249870  0.750092  1
  O  O59  1  0.366593  0.366016  0.991484  1
  O  O60  1  0.374696  0.499251  0.857818  1
  O  O61  1  0.490841  0.633324  0.133616  1
  O  O62  1  0.633529  0.633706  0.008684  1
  Si  Si63  1  0.750013  0.749870  0.250088  1
  O  O64  1  0.134489  0.866906  0.008987  1
  O  O65  1  0.991783  0.866662  0.133935  1
  O  O66  1  0.670523  0.683346  0.195589  1
  O  O67  1  0.195219  0.682848  0.328805  1
  O  O68  1  0.303745  0.682088  0.171074  1
  O  O69  1  0.828251  0.681619  0.304190  1
  O  O70  1  0.171876  0.818099  0.195972  1
  O  O71  1  0.696382  0.817631  0.329087  1
  O  O72  1  0.329604  0.816375  0.304572  1
  O  O73  1  0.804909  0.816871  0.171357  1
  Si  Si74  1  0.607801  0.615597  0.123089  1
  Si  Si75  1  0.376410  0.614814  0.107999  1
  Si  Si76  1  0.108623  0.885182  0.123338  1
  Si  Si77  1  0.877233  0.884404  0.108248  1
  Si  Si78  1  0.250115  0.749849  0.250074  1
  O  O79  1  0.857606  0.999559  0.125264  1
  O  O80  1  0.625425  0.500472  0.142352  1
  O  O81  1  0.133529  0.633702  0.508686  1
  O  O82  1  0.990851  0.633322  0.633617  1
  O  O83  1  0.008345  0.633058  0.366225  1
  O  O84  1  0.865639  0.632808  0.491175  1
  Si  Si85  1  0.377233  0.884404  0.608248  1
  O  O86  1  0.142522  0.500160  0.374896  1
  O  O87  1  0.634489  0.866913  0.508984  1
  O  O88  1  0.491784  0.866663  0.633936  1
  O  O89  1  0.509287  0.866396  0.366544  1
  O  O90  1  0.366599  0.866018  0.491476  1
  Si  Si91  1  0.107797  0.615593  0.623092  1
  Si  Si92  1  0.122895  0.615315  0.391914  1
  Si  Si93  1  0.876405  0.614812  0.608000  1
  Si  Si94  1  0.891505  0.614536  0.376825  1
  Si  Si95  1  0.608623  0.885186  0.623335  1
  Si  Si96  1  0.623718  0.884908  0.392160  1
  Si  Si97  1  0.392327  0.884125  0.377070  1
  O  O98  1  0.357605  0.999558  0.625264  1
  O  O99  1  0.125424  0.500480  0.642354  1
  O  O100  1  0.374705  0.999249  0.357806  1
  Si  Si101  1  0.750115  0.749852  0.750072  1
  O  O102  1  0.508344  0.633061  0.866225  1
  O  O103  1  0.365638  0.632811  0.991175  1
  Si  Si104  1  0.892328  0.884123  0.877071  1
  O  O105  1  0.642523  0.500165  0.874894  1
  Si  Si106  1  0.250011  0.749872  0.750087  1
  O  O107  1  0.009288  0.866399  0.866545  1
  O  O108  1  0.866597  0.866016  0.991477  1
  O  O109  1  0.170522  0.683345  0.695589  1
  O  O110  1  0.695217  0.682853  0.828803  1
  O  O111  1  0.803745  0.682090  0.671074  1
  O  O112  1  0.328250  0.681620  0.804188  1
  O  O113  1  0.671879  0.818105  0.695970  1
  O  O114  1  0.196381  0.817635  0.829085  1
  O  O115  1  0.829605  0.816375  0.804571  1
  O  O116  1  0.304909  0.816872  0.671356  1
  Si  Si117  1  0.622894  0.615320  0.891911  1
  Si  Si118  1  0.391504  0.614539  0.876824  1
  Si  Si119  1  0.123719  0.884910  0.892164  1
  O  O120  1  0.874704  0.999248  0.857807  1
