# generated using pymatgen
data_SiO2
_symmetry_space_group_name_H-M   'P 1'
_cell_length_a   33.36216723
_cell_length_b   14.65495314
_cell_length_c   8.31381087
_cell_angle_alpha   90.00000000
_cell_angle_beta   90.00000000
_cell_angle_gamma   90.00000000
_symmetry_Int_Tables_number   1
_chemical_formula_structural   SiO2
_chemical_formula_sum   'Si72 O144'
_cell_volume   4064.79670082
_cell_formula_units_Z   72
loop_
 _symmetry_equiv_pos_site_id
 _symmetry_equiv_pos_as_xyz
  1  'x, y, z'
loop_
 _atom_site_type_symbol
 _atom_site_label
 _atom_site_symmetry_multiplicity
 _atom_site_fract_x
 _atom_site_fract_y
 _atom_site_fract_z
 _atom_site_occupancy
  O  O1  1  0.087527  0.093383  0.749987  1
  O  O2  1  0.585870  0.595886  0.749992  1
  O  O3  1  0.912449  0.093514  0.749971  1
  O  O4  1  0.414180  0.595904  0.750009  1
  O  O5  1  0.087731  0.905995  0.249993  1
  O  O6  1  0.588781  0.408210  0.249983  1
  O  O7  1  0.912410  0.906153  0.249974  1
  O  O8  1  0.411246  0.408220  0.250000  1
  O  O9  1  0.042693  0.128688  0.508476  1
  O  O10  1  0.542765  0.626897  0.501710  1
  O  O11  1  0.957346  0.128685  0.508566  1
  O  O12  1  0.457283  0.626914  0.501714  1
  O  O13  1  0.042680  0.871316  0.008705  1
  O  O14  1  0.542411  0.372650  0.013510  1
  O  O15  1  0.957358  0.871313  0.008516  1
  O  O16  1  0.457629  0.372665  0.013543  1
  O  O17  1  0.957611  0.873624  0.491308  1
  O  O18  1  0.457635  0.372861  0.486513  1
  O  O19  1  0.042427  0.873637  0.491133  1
  O  O20  1  0.542400  0.372843  0.486519  1
  O  O21  1  0.957602  0.126373  0.991256  1
  O  O22  1  0.457289  0.626738  0.998354  1
  O  O23  1  0.042443  0.126375  0.991376  1
  O  O24  1  0.542759  0.626726  0.998340  1
  O  O25  1  0.095700  0.000704  0.498952  1
  O  O26  1  0.595848  0.500240  0.502580  1
  O  O27  1  0.904339  0.000688  0.499064  1
  O  O28  1  0.404193  0.500277  0.502580  1
  O  O29  1  0.095701  0.999314  0.999526  1
  O  O30  1  0.595846  0.500041  0.997201  1
  O  O31  1  0.904340  0.999312  0.999393  1
  O  O32  1  0.404198  0.500064  0.997223  1
  O  O33  1  0.117442  0.172883  0.506198  1
  O  O34  1  0.617464  0.672724  0.506434  1
  O  O35  1  0.882603  0.172871  0.505931  1
  O  O36  1  0.382583  0.672765  0.506486  1
  O  O37  1  0.117408  0.827142  0.005243  1
  O  O38  1  0.617058  0.327558  0.004651  1
  O  O39  1  0.882621  0.827146  0.005529  1
  O  O40  1  0.382984  0.327583  0.004640  1
  O  O41  1  0.882953  0.828103  0.495654  1
  O  O42  1  0.382997  0.327803  0.495576  1
  O  O43  1  0.117077  0.828119  0.496008  1
  O  O44  1  0.617040  0.327761  0.495505  1
  O  O45  1  0.882939  0.171917  0.995257  1
  O  O46  1  0.382593  0.672537  0.993733  1
  O  O47  1  0.117112  0.171913  0.995049  1
  O  O48  1  0.617453  0.672513  0.993718  1
  O  O49  1  0.219175  0.103245  0.749919  1
  O  O50  1  0.719156  0.602674  0.749959  1
  O  O51  1  0.780876  0.103076  0.749877  1
  O  O52  1  0.280886  0.602719  0.750000  1
  O  O53  1  0.219171  0.897569  0.249917  1
  O  O54  1  0.719139  0.396981  0.249960  1
  O  O55  1  0.780868  0.897394  0.249876  1
  O  O56  1  0.280901  0.397027  0.250001  1
  O  O57  1  0.266524  0.118767  0.507484  1
  O  O58  1  0.766526  0.618721  0.507639  1
  O  O59  1  0.733518  0.118719  0.507497  1
  O  O60  1  0.233518  0.618742  0.507667  1
  O  O61  1  0.266494  0.881689  0.007477  1
  O  O62  1  0.766412  0.381238  0.007352  1
  O  O63  1  0.733548  0.881658  0.007394  1
  O  O64  1  0.233628  0.381243  0.007404  1
  O  O65  1  0.733650  0.881835  0.492699  1
  O  O66  1  0.233668  0.381850  0.492803  1
  O  O67  1  0.266391  0.881881  0.492702  1
  O  O68  1  0.766369  0.381830  0.492780  1
  O  O69  1  0.733623  0.118542  0.992603  1
  O  O70  1  0.233559  0.618132  0.992539  1
  O  O71  1  0.266422  0.118575  0.992691  1
  O  O72  1  0.766486  0.618127  0.992481  1
  O  O73  1  0.213013  0.000380  0.499932  1
  O  O74  1  0.713003  0.500306  0.499394  1
  O  O75  1  0.787029  0.000332  0.499739  1
  O  O76  1  0.287037  0.500329  0.499464  1
  O  O77  1  0.213015  0.999934  0.999334  1
  O  O78  1  0.713004  0.499918  0.000107  1
  O  O79  1  0.787029  0.999901  0.999460  1
  O  O80  1  0.287038  0.499927  0.000104  1
  O  O81  1  0.192454  0.166171  0.481076  1
  O  O82  1  0.692463  0.666130  0.481475  1
  O  O83  1  0.807583  0.166139  0.481126  1
  O  O84  1  0.307583  0.666154  0.481507  1
  O  O85  1  0.192455  0.833988  0.981619  1
  O  O86  1  0.692212  0.334354  0.981339  1
  O  O87  1  0.807588  0.833968  0.981449  1
  O  O88  1  0.307828  0.334363  0.981412  1
  O  O89  1  0.807825  0.834653  0.518334  1
  O  O90  1  0.307846  0.334675  0.518770  1
  O  O91  1  0.192218  0.834687  0.518255  1
  O  O92  1  0.692190  0.334651  0.518743  1
  O  O93  1  0.807823  0.165453  0.018652  1
  O  O94  1  0.307599  0.665844  0.018677  1
  O  O95  1  0.192219  0.165470  0.018802  1
  O  O96  1  0.692447  0.665835  0.018617  1
  O  O97  1  0.193840  0.403619  0.750146  1
  O  O98  1  0.693776  0.903764  0.749950  1
  O  O99  1  0.806195  0.403700  0.750106  1
  O  O100  1  0.306255  0.903748  0.749993  1
  O  O101  1  0.193834  0.596173  0.250149  1
  O  O102  1  0.693843  0.096392  0.249951  1
  O  O103  1  0.806216  0.596262  0.250105  1
  O  O104  1  0.306214  0.096373  0.249993  1
  O  O105  1  0.179187  0.500330  0.500515  1
  O  O106  1  0.679179  0.000245  0.500056  1
  O  O107  1  0.820853  0.500311  0.500374  1
  O  O108  1  0.320863  0.000282  0.500166  1
  O  O109  1  0.179187  0.499587  0.000369  1
  O  O110  1  0.679180  0.000142  0.999947  1
  O  O111  1  0.820855  0.499585  0.000408  1
  O  O112  1  0.320863  0.000162  0.999938  1
  O  O113  1  0.162362  0.322325  0.505519  1
  O  O114  1  0.662345  0.822239  0.505411  1
  O  O115  1  0.837671  0.322300  0.505583  1
  O  O116  1  0.337696  0.822272  0.505430  1
  O  O117  1  0.162332  0.677735  0.005805  1
  O  O118  1  0.662248  0.178156  0.006114  1
  O  O119  1  0.837716  0.677724  0.005651  1
  O  O120  1  0.337798  0.178173  0.006165  1
  O  O121  1  0.837854  0.678477  0.493524  1
  O  O122  1  0.337840  0.178399  0.493614  1
  O  O123  1  0.162193  0.678505  0.493434  1
  O  O124  1  0.662202  0.178365  0.493598  1
  O  O125  1  0.837813  0.321546  0.993590  1
  O  O126  1  0.337739  0.822046  0.994350  1
  O  O127  1  0.162224  0.321554  0.993722  1
  O  O128  1  0.662302  0.822030  0.994303  1
  O  O129  1  0.150824  0.229035  0.249883  1
  O  O130  1  0.650863  0.728735  0.249970  1
  O  O131  1  0.849144  0.229106  0.249844  1
  O  O132  1  0.349189  0.728752  0.250007  1
  O  O133  1  0.151133  0.770815  0.749878  1
  O  O134  1  0.650938  0.270742  0.749968  1
  O  O135  1  0.849001  0.770911  0.749843  1
  O  O136  1  0.349089  0.270756  0.750005  1
  O  O137  1  0.000063  0.898030  0.751086  1
  O  O138  1  0.500015  0.385265  0.750055  1
  O  O139  1  0.999997  0.101926  0.251090  1
  O  O140  1  0.500023  0.584464  0.250089  1
  O  O141  1  0.000018  0.001805  0.505534  1
  O  O142  1  0.500021  0.499688  0.519762  1
  O  O143  1  0.000020  0.998204  0.005493  1
  O  O144  1  0.500022  0.499504  0.980592  1
  Si  Si145  1  0.086641  0.099795  0.564014  1
  Si  Si146  1  0.586458  0.599998  0.563731  1
  Si  Si147  1  0.913388  0.099813  0.563994  1
  Si  Si148  1  0.413589  0.600029  0.563748  1
  Si  Si149  1  0.086658  0.900090  0.063996  1
  Si  Si150  1  0.586677  0.401337  0.064042  1
  Si  Si151  1  0.913396  0.900119  0.063979  1
  Si  Si152  1  0.413362  0.401358  0.064060  1
  Si  Si153  1  0.913541  0.901263  0.436042  1
  Si  Si154  1  0.413370  0.401529  0.435957  1
  Si  Si155  1  0.086514  0.901245  0.436060  1
  Si  Si156  1  0.586665  0.401499  0.435939  1
  Si  Si157  1  0.913535  0.098670  0.936026  1
  Si  Si158  1  0.413599  0.599859  0.936280  1
  Si  Si159  1  0.086499  0.098643  0.936042  1
  Si  Si160  1  0.586447  0.599838  0.936263  1
  Si  Si161  1  0.222454  0.098989  0.562256  1
  Si  Si162  1  0.722456  0.598799  0.562268  1
  Si  Si163  1  0.777589  0.098912  0.562213  1
  Si  Si164  1  0.277589  0.598830  0.562309  1
  Si  Si165  1  0.222428  0.901435  0.062240  1
  Si  Si166  1  0.722364  0.401246  0.062303  1
  Si  Si167  1  0.777613  0.901369  0.062200  1
  Si  Si168  1  0.277675  0.401265  0.062343  1
  Si  Si169  1  0.777687  0.901653  0.437552  1
  Si  Si170  1  0.277713  0.401570  0.437643  1
  Si  Si171  1  0.222354  0.901731  0.437593  1
  Si  Si172  1  0.722324  0.401540  0.437603  1
  Si  Si173  1  0.777665  0.098628  0.937540  1
  Si  Si174  1  0.277626  0.598524  0.937676  1
  Si  Si175  1  0.222381  0.098693  0.937579  1
  Si  Si176  1  0.722419  0.598505  0.937636  1
  Si  Si177  1  0.190783  0.401975  0.562904  1
  Si  Si178  1  0.690754  0.901937  0.562687  1
  Si  Si179  1  0.809253  0.401979  0.562866  1
  Si  Si180  1  0.309286  0.901962  0.562730  1
  Si  Si181  1  0.190716  0.597946  0.062910  1
  Si  Si182  1  0.690737  0.098429  0.062737  1
  Si  Si183  1  0.809330  0.597965  0.062862  1
  Si  Si184  1  0.309310  0.098441  0.062778  1
  Si  Si185  1  0.809386  0.598597  0.437313  1
  Si  Si186  1  0.309378  0.098573  0.437188  1
  Si  Si187  1  0.190659  0.598592  0.437351  1
  Si  Si188  1  0.690666  0.098549  0.437146  1
  Si  Si189  1  0.809312  0.401347  0.937310  1
  Si  Si190  1  0.309356  0.901829  0.937236  1
  Si  Si191  1  0.190727  0.401329  0.937353  1
  Si  Si192  1  0.690684  0.901817  0.937195  1
  Si  Si193  1  0.154433  0.222930  0.063513  1
  Si  Si194  1  0.654660  0.723245  0.063587  1
  Si  Si195  1  0.845592  0.222938  0.063471  1
  Si  Si196  1  0.345387  0.723261  0.063625  1
  Si  Si197  1  0.154507  0.777120  0.563495  1
  Si  Si198  1  0.654476  0.276965  0.563626  1
  Si  Si199  1  0.845555  0.777114  0.563460  1
  Si  Si200  1  0.345561  0.276996  0.563664  1
  Si  Si201  1  0.845333  0.776486  0.936213  1
  Si  Si202  1  0.345560  0.276804  0.936364  1
  Si  Si203  1  0.154730  0.776478  0.936251  1
  Si  Si204  1  0.654480  0.276786  0.936325  1
  Si  Si205  1  0.845368  0.223566  0.436202  1
  Si  Si206  1  0.345386  0.723455  0.436407  1
  Si  Si207  1  0.154653  0.223572  0.436239  1
  Si  Si208  1  0.654660  0.723425  0.436369  1
  Si  Si209  1  0.000027  0.901856  0.562074  1
  Si  Si210  1  0.500018  0.397287  0.561598  1
  Si  Si211  1  0.000017  0.098148  0.062079  1
  Si  Si212  1  0.500023  0.594573  0.061226  1
  Si  Si213  1  0.000015  0.100128  0.440173  1
  Si  Si214  1  0.500023  0.594714  0.438933  1
  Si  Si215  1  0.000027  0.899875  0.940171  1
  Si  Si216  1  0.500019  0.397134  0.938543  1
