# generated using pymatgen
data_SiO2
_symmetry_space_group_name_H-M   'P 1'
_cell_length_a   8.33899979
_cell_length_b   19.97332203
_cell_length_c   10.01600877
_cell_angle_alpha   90.00000000
_cell_angle_beta   90.00000000
_cell_angle_gamma   90.00000000
_symmetry_Int_Tables_number   1
_chemical_formula_structural   SiO2
_chemical_formula_sum   'Si32 O64'
_cell_volume   1668.24166409
_cell_formula_units_Z   32
loop_
 _symmetry_equiv_pos_site_id
 _symmetry_equiv_pos_as_xyz
  1  'x, y, z'
loop_
 _atom_site_type_symbol
 _atom_site_label
 _atom_site_symmetry_multiplicity
 _atom_site_fract_x
 _atom_site_fract_y
 _atom_site_fract_z
 _atom_site_occupancy
  O  O1  1  0.228060  0.000025  0.999066  1
  O  O2  1  0.727466  0.499912  0.999112  1
  O  O3  1  0.772151  0.000047  0.999092  1
  O  O4  1  0.272742  0.499889  0.999084  1
  O  O5  1  0.227256  0.499596  0.499332  1
  O  O6  1  0.728274  0.999690  0.499470  1
  O  O7  1  0.772952  0.499584  0.499361  1
  O  O8  1  0.271933  0.999703  0.499443  1
  O  O9  1  0.000111  0.063953  0.886875  1
  O  O10  1  0.500099  0.562976  0.883498  1
  O  O11  1  0.000105  0.435765  0.386653  1
  O  O12  1  0.500106  0.938850  0.382470  1
  O  O13  1  0.000102  0.938271  0.114442  1
  O  O14  1  0.500108  0.438810  0.117681  1
  O  O15  1  0.000104  0.563235  0.613969  1
  O  O16  1  0.500104  0.060888  0.617558  1
  O  O17  1  0.247374  0.037122  0.749309  1
  O  O18  1  0.750501  0.536557  0.749182  1
  O  O19  1  0.752827  0.037127  0.749328  1
  O  O20  1  0.249716  0.536551  0.749160  1
  O  O21  1  0.247394  0.462732  0.249277  1
  O  O22  1  0.750795  0.962419  0.249222  1
  O  O23  1  0.752805  0.462737  0.249299  1
  O  O24  1  0.249425  0.962412  0.249196  1
  O  O25  1  0.261116  0.126232  0.926784  1
  O  O26  1  0.760239  0.625787  0.925788  1
  O  O27  1  0.739125  0.126249  0.926782  1
  O  O28  1  0.239934  0.625767  0.925791  1
  O  O29  1  0.261083  0.373541  0.426730  1
  O  O30  1  0.752909  0.872869  0.427185  1
  O  O31  1  0.739136  0.373533  0.426728  1
  O  O32  1  0.247284  0.872878  0.427194  1
  O  O33  1  0.745888  0.873149  0.070847  1
  O  O34  1  0.245883  0.373399  0.071726  1
  O  O35  1  0.254288  0.873129  0.070855  1
  O  O36  1  0.754355  0.373418  0.071723  1
  O  O37  1  0.739206  0.625539  0.572284  1
  O  O38  1  0.245873  0.126357  0.571688  1
  O  O39  1  0.260991  0.625548  0.572290  1
  O  O40  1  0.754343  0.126349  0.571683  1
  O  O41  1  0.500105  0.205035  0.904210  1
  O  O42  1  0.000106  0.703668  0.894117  1
  O  O43  1  0.500103  0.294749  0.404224  1
  O  O44  1  0.000108  0.802816  0.386642  1
  O  O45  1  0.500105  0.802306  0.112846  1
  O  O46  1  0.000103  0.303021  0.121993  1
  O  O47  1  0.500107  0.703763  0.605039  1
  O  O48  1  0.000100  0.196742  0.621973  1
  O  O49  1  0.259023  0.215263  0.748940  1
  O  O50  1  0.750766  0.714644  0.748719  1
  O  O51  1  0.741160  0.215266  0.748909  1
  O  O52  1  0.249478  0.714639  0.748760  1
  O  O53  1  0.259033  0.284483  0.248951  1
  O  O54  1  0.750938  0.783975  0.248712  1
  O  O55  1  0.741151  0.284489  0.248920  1
  O  O56  1  0.249304  0.783970  0.248755  1
  O  O57  1  0.235846  0.249345  0.998366  1
  O  O58  1  0.741400  0.748812  0.997698  1
  O  O59  1  0.764360  0.249371  0.998321  1
  O  O60  1  0.258806  0.748780  0.997760  1
  O  O61  1  0.235825  0.250410  0.498344  1
  O  O62  1  0.758288  0.748333  0.499304  1
  O  O63  1  0.764386  0.250395  0.498301  1
  O  O64  1  0.241908  0.748351  0.499365  1
  Si  Si65  1  0.186553  0.055774  0.893425  1
  Si  Si66  1  0.686619  0.555140  0.892465  1
  Si  Si67  1  0.813667  0.055787  0.893434  1
  Si  Si68  1  0.313581  0.555126  0.892453  1
  Si  Si69  1  0.186472  0.444002  0.393385  1
  Si  Si70  1  0.686488  0.944611  0.392621  1
  Si  Si71  1  0.813737  0.443997  0.393399  1
  Si  Si72  1  0.313712  0.944616  0.392613  1
  Si  Si73  1  0.813769  0.944665  0.105378  1
  Si  Si74  1  0.313666  0.444981  0.106318  1
  Si  Si75  1  0.186435  0.944651  0.105368  1
  Si  Si76  1  0.686549  0.444995  0.106329  1
  Si  Si77  1  0.813649  0.555031  0.605612  1
  Si  Si78  1  0.313588  0.054779  0.606346  1
  Si  Si79  1  0.186559  0.555036  0.605597  1
  Si  Si80  1  0.686621  0.054774  0.606358  1
  Si  Si81  1  0.314042  0.200265  0.896319  1
  Si  Si82  1  0.813797  0.699508  0.893501  1
  Si  Si83  1  0.686167  0.200277  0.896299  1
  Si  Si84  1  0.186411  0.699495  0.893527  1
  Si  Si85  1  0.314036  0.299504  0.396330  1
  Si  Si86  1  0.814109  0.800314  0.393217  1
  Si  Si87  1  0.686169  0.299499  0.396309  1
  Si  Si88  1  0.186102  0.800318  0.393246  1
  Si  Si89  1  0.686063  0.800380  0.104766  1
  Si  Si90  1  0.186004  0.300832  0.107683  1
  Si  Si91  1  0.314145  0.800366  0.104794  1
  Si  Si92  1  0.814204  0.300844  0.107663  1
  Si  Si93  1  0.686397  0.699385  0.604399  1
  Si  Si94  1  0.186000  0.198924  0.607670  1
  Si  Si95  1  0.313816  0.699390  0.604427  1
  Si  Si96  1  0.814203  0.198919  0.607649  1
