# generated using pymatgen
data_SiO2
_symmetry_space_group_name_H-M   'P 1'
_cell_length_a   13.53881636
_cell_length_b   13.53865779
_cell_length_c   29.44536118
_cell_angle_alpha   90.00000000
_cell_angle_beta   90.00000000
_cell_angle_gamma   120.00000000
_symmetry_Int_Tables_number   1
_chemical_formula_structural   SiO2
_chemical_formula_sum   'Si72 O144'
_cell_volume   4674.16270302
_cell_formula_units_Z   72
loop_
 _symmetry_equiv_pos_site_id
 _symmetry_equiv_pos_as_xyz
  1  'x, y, z'
loop_
 _atom_site_type_symbol
 _atom_site_label
 _atom_site_symmetry_multiplicity
 _atom_site_fract_x
 _atom_site_fract_y
 _atom_site_fract_z
 _atom_site_occupancy
  O  O1  1  0.028395  0.333187  0.166693  1
  O  O2  1  0.028384  0.694458  0.166675  1
  Si  Si3  1  0.000573  0.227443  0.197785  1
  Si  Si4  1  0.000613  0.772401  0.197782  1
  Si  Si5  1  0.000606  0.772398  0.302249  1
  Si  Si6  1  0.000566  0.227435  0.302252  1
  O  O7  1  0.000616  0.638171  0.000039  1
  O  O8  1  0.000622  0.361343  0.000038  1
  O  O9  1  0.079533  0.412245  0.083433  1
  O  O10  1  0.333996  0.920937  0.083384  1
  O  O11  1  0.216994  0.783412  0.020140  1
  Si  Si12  1  0.334142  0.894125  0.031150  1
  O  O13  1  0.434248  0.566039  0.025552  1
  Si  Si14  1  0.106522  0.666694  0.135668  1
  O  O15  1  0.434224  0.867134  0.025526  1
  O  O16  1  0.216993  0.432502  0.020173  1
  O  O17  1  0.133322  0.566121  0.025550  1
  O  O18  1  0.233399  0.465539  0.141459  1
  O  O19  1  0.233375  0.767069  0.141450  1
  Si  Si20  1  0.227886  0.999678  0.302250  1
  Si  Si21  1  0.227810  0.227356  0.197787  1
  Si  Si22  1  0.227892  0.999684  0.197783  1
  O  O23  1  0.099846  0.549532  0.146861  1
  Si  Si24  1  0.106345  0.439050  0.031193  1
  Si  Si25  1  0.106356  0.666228  0.031188  1
  Si  Si26  1  0.334156  0.438979  0.031195  1
  Si  Si27  1  0.227804  0.227351  0.302252  1
  O  O28  1  0.450886  0.549430  0.146873  1
  Si  Si29  1  0.106543  0.439052  0.135673  1
  Si  Si30  1  0.333689  0.893941  0.135631  1
  Si  Si31  1  0.333709  0.438965  0.135675  1
  O  O32  1  0.450872  0.900662  0.146822  1
  O  O33  1  0.255063  0.000317  0.250017  1
  O  O34  1  0.254951  0.253863  0.250020  1
  O  O35  1  0.233877  0.116536  0.186725  1
  O  O36  1  0.233870  0.116530  0.313312  1
  O  O37  1  0.305872  0.972012  0.166656  1
  O  O38  1  0.305848  0.333078  0.166703  1
  O  O39  1  0.101005  0.899285  0.191988  1
  O  O40  1  0.100926  0.200885  0.191981  1
  O  O41  1  0.100998  0.899280  0.308044  1
  O  O42  1  0.100919  0.200877  0.308056  1
  O  O43  1  0.334031  0.412163  0.083441  1
  O  O44  1  0.079553  0.666360  0.083422  1
  O  O45  1  0.362219  0.361313  0.000025  1
  O  O46  1  0.000584  0.361333  0.499994  1
  O  O47  1  0.000578  0.638162  0.499993  1
  O  O48  1  0.028372  0.694451  0.333355  1
  O  O49  1  0.028385  0.333179  0.333343  1
  O  O50  1  0.434216  0.566030  0.474487  1
  O  O51  1  0.362171  0.999792  0.500083  1
  O  O52  1  0.133287  0.566113  0.474485  1
  O  O53  1  0.305862  0.972003  0.333378  1
  O  O54  1  0.434189  0.867122  0.474511  1
  O  O55  1  0.233358  0.767059  0.358585  1
  O  O56  1  0.233387  0.465533  0.358579  1
  O  O57  1  0.450855  0.900648  0.353214  1
  O  O58  1  0.450876  0.549419  0.353168  1
  O  O59  1  0.466635  0.232833  0.641470  1
  O  O60  1  0.099832  0.549524  0.353173  1
  Si  Si61  1  0.334122  0.438969  0.468846  1
  Si  Si62  1  0.106314  0.439043  0.468842  1
  Si  Si63  1  0.439956  0.105521  0.531229  1
  Si  Si64  1  0.334106  0.894115  0.468886  1
  Si  Si65  1  0.440070  0.333150  0.635665  1
  Si  Si66  1  0.439942  0.333365  0.531183  1
  Si  Si67  1  0.333672  0.893930  0.364404  1
  Si  Si68  1  0.106505  0.666686  0.364365  1
  Si  Si69  1  0.333694  0.438956  0.364365  1
  Si  Si70  1  0.440027  0.105924  0.635710  1
  Si  Si71  1  0.106321  0.666220  0.468845  1
  Si  Si72  1  0.106531  0.439045  0.364363  1
  O  O73  1  0.334007  0.412153  0.416600  1
  O  O74  1  0.079525  0.666350  0.416611  1
  O  O75  1  0.079512  0.412239  0.416602  1
  O  O76  1  0.333972  0.920929  0.416650  1
  O  O77  1  0.413188  0.078841  0.583478  1
  O  O78  1  0.413191  0.333332  0.583432  1
  O  O79  1  0.216960  0.432495  0.479866  1
  O  O80  1  0.216956  0.783404  0.479894  1
  O  O81  1  0.433505  0.216211  0.520181  1
  O  O82  1  0.362185  0.361306  0.500018  1
  O  O83  1  0.305836  0.333069  0.333338  1
  O  O84  1  0.001418  0.254681  0.750015  1
  Si  Si85  1  0.000759  0.772326  0.802251  1
  Si  Si86  1  0.000793  0.227530  0.697780  1
  Si  Si87  1  0.000801  0.227534  0.802251  1
  O  O88  1  0.001405  0.745773  0.750019  1
  Si  Si89  1  0.000751  0.772318  0.697786  1
  O  O90  1  0.117591  0.883203  0.686719  1
  O  O91  1  0.254831  0.999535  0.750020  1
  O  O92  1  0.201860  0.100556  0.691973  1
  O  O93  1  0.334137  0.027914  0.833311  1
  O  O94  1  0.334235  0.305417  0.833342  1
  O  O95  1  0.117719  0.233670  0.813314  1
  O  O96  1  0.117599  0.883210  0.813320  1
  O  O97  1  0.413216  0.078856  0.916560  1
  O  O98  1  0.117713  0.233666  0.686721  1
  O  O99  1  0.201871  0.100563  0.808069  1
  O  O100  1  0.413212  0.333340  0.916610  1
  Si  Si101  1  0.439975  0.333375  0.968857  1
  Si  Si102  1  0.228487  0.227494  0.802255  1
  Si  Si103  1  0.228346  0.000146  0.697786  1
  Si  Si104  1  0.228479  0.227487  0.697785  1
  O  O105  1  0.466647  0.232845  0.858567  1
  Si  Si106  1  0.228354  0.000152  0.802254  1
  O  O107  1  0.433541  0.216222  0.979858  1
  Si  Si108  1  0.439993  0.105533  0.968808  1
  Si  Si109  1  0.440044  0.105937  0.864327  1
  O  O110  1  0.255014  0.254620  0.750020  1
  Si  Si111  1  0.440081  0.333161  0.864375  1
  O  O112  1  0.334227  0.305409  0.666699  1
  O  O113  1  0.362206  0.999802  0.999954  1
  O  O114  1  0.334124  0.027905  0.666728  1
  Si  Si115  1  0.561293  0.893852  0.135651  1
  O  O116  1  0.746439  0.745365  0.250020  1
  Si  Si117  1  0.561312  0.666655  0.135689  1
  O  O118  1  0.746311  0.000351  0.250020  1
  O  O119  1  0.883651  0.116655  0.186724  1
  O  O120  1  0.883751  0.766399  0.186721  1
  O  O121  1  0.883643  0.116649  0.313314  1
  O  O122  1  0.883745  0.766396  0.313315  1
  O  O123  1  0.667210  0.694510  0.166708  1
  O  O124  1  0.667152  0.971956  0.166677  1
  O  O125  1  0.799431  0.899396  0.191986  1
  O  O126  1  0.799420  0.899389  0.308055  1
  O  O127  1  0.588096  0.920833  0.083412  1
  O  O128  1  0.588101  0.666352  0.083455  1
  O  O129  1  0.567702  0.783315  0.020163  1
  Si  Si130  1  0.772845  0.999736  0.302253  1
  Si  Si131  1  0.561263  0.894031  0.031170  1
  O  O132  1  0.534727  0.766970  0.141460  1
  Si  Si133  1  0.772953  0.772509  0.197787  1
  Si  Si134  1  0.772855  0.999742  0.197787  1
  Si  Si135  1  0.561283  0.666191  0.031207  1
  Si  Si136  1  0.772944  0.772504  0.302254  1
  O  O137  1  0.999959  0.745228  0.250016  1
  O  O138  1  0.999952  0.253973  0.250019  1
  O  O139  1  0.639057  0.638224  0.000065  1
  O  O140  1  0.667202  0.694501  0.333333  1
  Si  Si141  1  0.894824  0.560762  0.635637  1
  Si  Si142  1  0.894798  0.333097  0.635648  1
  Si  Si143  1  0.667666  0.560853  0.635637  1
  Si  Si144  1  0.667633  0.105844  0.635690  1
  Si  Si145  1  0.667077  0.105428  0.531209  1
  O  O146  1  0.588068  0.920819  0.416626  1
  O  O147  1  0.588079  0.666343  0.416586  1
  O  O148  1  0.667281  0.587517  0.583393  1
  O  O149  1  0.921746  0.333296  0.583404  1
  O  O150  1  0.921753  0.587420  0.583387  1
  O  O151  1  0.667261  0.078744  0.583453  1
  O  O152  1  0.567666  0.783304  0.479876  1
  O  O153  1  0.784219  0.567000  0.520130  1
  O  O154  1  0.784231  0.216102  0.520162  1
  O  O155  1  0.638978  0.999679  0.500049  1
  Si  Si156  1  0.561276  0.893840  0.364386  1
  O  O157  1  0.639021  0.638217  0.499978  1
  Si  Si158  1  0.561301  0.666646  0.364351  1
  O  O159  1  0.566978  0.433502  0.525525  1
  O  O160  1  0.566990  0.132406  0.525570  1
  O  O161  1  0.867903  0.433398  0.525527  1
  O  O162  1  0.767952  0.232731  0.641463  1
  O  O163  1  0.767981  0.534293  0.641435  1
  O  O164  1  0.534714  0.766959  0.358577  1
  O  O165  1  0.550499  0.450383  0.646835  1
  O  O166  1  0.550450  0.099117  0.646893  1
  O  O167  1  0.901503  0.450277  0.646827  1
  Si  Si168  1  0.561226  0.894018  0.468867  1
  Si  Si169  1  0.561251  0.666182  0.468833  1
  Si  Si170  1  0.667080  0.560567  0.531155  1
  Si  Si171  1  0.894887  0.333305  0.531169  1
  Si  Si172  1  0.894874  0.560471  0.531157  1
  O  O173  1  0.972979  0.666634  0.666657  1
  O  O174  1  0.667140  0.971949  0.333362  1
  O  O175  1  0.695508  0.666743  0.666665  1
  O  O176  1  0.746452  0.999520  0.750017  1
  O  O177  1  0.746337  0.745879  0.750020  1
  O  O178  1  0.767572  0.883290  0.686724  1
  O  O179  1  0.767578  0.883297  0.813313  1
  Si  Si180  1  0.667111  0.105436  0.968827  1
  O  O181  1  0.695545  0.027826  0.833330  1
  O  O182  1  0.972989  0.666643  0.833379  1
  O  O183  1  0.972979  0.305421  0.833362  1
  O  O184  1  0.695520  0.666753  0.833377  1
  O  O185  1  0.900466  0.100602  0.691981  1
  O  O186  1  0.900376  0.798835  0.691997  1
  O  O187  1  0.900472  0.100606  0.808051  1
  O  O188  1  0.900384  0.798844  0.808041  1
  O  O189  1  0.667306  0.587528  0.916649  1
  O  O190  1  0.921775  0.333306  0.916628  1
  O  O191  1  0.921774  0.587425  0.916648  1
  O  O192  1  0.667286  0.078752  0.916582  1
  O  O193  1  0.784253  0.567007  0.979909  1
  O  O194  1  0.784268  0.216110  0.979872  1
  O  O195  1  0.567010  0.433510  0.974514  1
  O  O196  1  0.567026  0.132418  0.974467  1
  O  O197  1  0.867939  0.433406  0.974508  1
  O  O198  1  0.767969  0.232741  0.858572  1
  O  O199  1  0.767992  0.534300  0.858603  1
  O  O200  1  0.550510  0.450395  0.853206  1
  O  O201  1  0.550467  0.099132  0.853143  1
  O  O202  1  0.901517  0.450285  0.853207  1
  Si  Si203  1  0.773597  0.000160  0.697784  1
  Si  Si204  1  0.894837  0.560768  0.864399  1
  Si  Si205  1  0.894816  0.333107  0.864385  1
  Si  Si206  1  0.773512  0.772399  0.697787  1
  Si  Si207  1  0.773603  0.000164  0.802249  1
  Si  Si208  1  0.667679  0.560861  0.864404  1
  Si  Si209  1  0.667648  0.105855  0.864345  1
  Si  Si210  1  0.773519  0.772405  0.802252  1
  Si  Si211  1  0.667112  0.560576  0.968886  1
  Si  Si212  1  0.894924  0.333314  0.968864  1
  Si  Si213  1  0.894905  0.560478  0.968878  1
  O  O214  1  0.639014  0.999690  0.999986  1
  O  O215  1  0.695534  0.027816  0.666703  1
  O  O216  1  0.972969  0.305413  0.666668  1
