# generated using pymatgen
data_SiO2
_symmetry_space_group_name_H-M   'P 1'
_cell_length_a   20.63134585
_cell_length_b   20.63242554
_cell_length_c   5.00751566
_cell_angle_alpha   90.00000000
_cell_angle_beta   90.00000000
_cell_angle_gamma   120.00000000
_symmetry_Int_Tables_number   1
_chemical_formula_structural   SiO2
_chemical_formula_sum   'Si36 O72'
_cell_volume   1845.99616152
_cell_formula_units_Z   36
loop_
 _symmetry_equiv_pos_site_id
 _symmetry_equiv_pos_as_xyz
  1  'x, y, z'
loop_
 _atom_site_type_symbol
 _atom_site_label
 _atom_site_symmetry_multiplicity
 _atom_site_fract_x
 _atom_site_fract_y
 _atom_site_fract_z
 _atom_site_occupancy
  O  O1  1  0.670867  0.128122  0.834109  1
  O  O2  1  0.337821  0.461659  0.166439  1
  O  O3  1  0.004344  0.794474  0.499918  1
  O  O4  1  0.876061  0.538143  0.834023  1
  O  O5  1  0.542644  0.871679  0.166350  1
  O  O6  1  0.209768  0.205327  0.500546  1
  O  O7  1  0.466144  0.333509  0.834085  1
  O  O8  1  0.132538  0.666296  0.166369  1
  O  O9  1  0.799024  0.999903  0.500224  1
  O  O10  1  0.876139  0.333030  0.832587  1
  O  O11  1  0.543011  0.666773  0.167883  1
  O  O12  1  0.209271  0.999902  0.500231  1
  O  O13  1  0.465693  0.128075  0.833089  1
  O  O14  1  0.132443  0.461138  0.166949  1
  O  O15  1  0.799451  0.795114  0.501300  1
  O  O16  1  0.671207  0.538669  0.833510  1
  O  O17  1  0.337519  0.871732  0.167365  1
  O  O18  1  0.004239  0.204693  0.499160  1
  O  O19  1  0.585401  0.999900  0.000231  1
  O  O20  1  0.252673  0.333470  0.333453  1
  O  O21  1  0.919103  0.666331  0.667011  1
  O  O22  1  0.004290  0.580963  0.000144  1
  O  O23  1  0.670850  0.914717  0.333374  1
  O  O24  1  0.337957  0.248264  0.667229  1
  O  O25  1  0.423226  0.418837  0.000315  1
  O  O26  1  0.089593  0.751537  0.333230  1
  O  O27  1  0.756033  0.085083  0.667082  1
  O  O28  1  0.004271  0.418182  0.999888  1
  O  O29  1  0.671249  0.752101  0.334259  1
  O  O30  1  0.337504  0.085231  0.666634  1
  O  O31  1  0.422631  0.999904  0.000227  1
  O  O32  1  0.089641  0.332958  0.333339  1
  O  O33  1  0.756586  0.666849  0.667119  1
  O  O34  1  0.585993  0.581625  0.000575  1
  O  O35  1  0.252177  0.914577  0.333826  1
  O  O36  1  0.919053  0.247707  0.666205  1
  O  O37  1  0.553505  0.098783  0.120937  1
  O  O38  1  0.220521  0.432086  0.454160  1
  O  O39  1  0.887339  0.765466  0.787818  1
  O  O40  1  0.905396  0.450139  0.120740  1
  O  O41  1  0.572192  0.784001  0.454558  1
  O  O42  1  0.238876  0.117295  0.787650  1
  O  O43  1  0.554057  0.450809  0.121216  1
  O  O44  1  0.220326  0.783614  0.454071  1
  O  O45  1  0.887010  0.117017  0.787460  1
  O  O46  1  0.454623  0.901021  0.879521  1
  O  O47  1  0.121774  0.234338  0.212643  1
  O  O48  1  0.788336  0.567718  0.546301  1
  O  O49  1  0.103153  0.548997  0.879248  1
  O  O50  1  0.769898  0.882789  0.213002  1
  O  O51  1  0.436617  0.216193  0.546391  1
  O  O52  1  0.455161  0.549663  0.879718  1
  O  O53  1  0.121484  0.882507  0.212807  1
  O  O54  1  0.788094  0.215801  0.545899  1
  O  O55  1  0.670598  0.101964  0.334156  1
  O  O56  1  0.338023  0.435777  0.666429  1
  O  O57  1  0.004455  0.768539  0.999905  1
  O  O58  1  0.902146  0.564024  0.334034  1
  O  O59  1  0.568535  0.897838  0.666303  1
  O  O60  1  0.235815  0.231261  0.000559  1
  O  O61  1  0.440191  0.333617  0.334080  1
  O  O62  1  0.106474  0.666184  0.666374  1
  O  O63  1  0.773055  0.999900  0.000224  1
  O  O64  1  0.902013  0.332796  0.332554  1
  O  O65  1  0.569120  0.667011  0.667917  1
  O  O66  1  0.235308  0.999903  0.000231  1
  O  O67  1  0.439606  0.102212  0.333057  1
  O  O68  1  0.106495  0.435060  0.666934  1
  O  O69  1  0.773569  0.768932  0.001366  1
  O  O70  1  0.671338  0.564747  0.333525  1
  O  O71  1  0.337298  0.897595  0.667396  1
  O  O72  1  0.004541  0.230875  0.999094  1
  Si  Si73  1  0.620436  0.083991  0.080249  1
  Si  Si74  1  0.287621  0.417575  0.413073  1
  Si  Si75  1  0.954106  0.750453  0.746497  1
  Si  Si76  1  0.920198  0.531873  0.080191  1
  Si  Si77  1  0.586739  0.865605  0.413036  1
  Si  Si78  1  0.253855  0.199081  0.746841  1
  Si  Si79  1  0.472345  0.383868  0.080338  1
  Si  Si80  1  0.138706  0.716541  0.412928  1
  Si  Si81  1  0.805238  0.050177  0.746636  1
  Si  Si82  1  0.920151  0.383208  0.079314  1
  Si  Si83  1  0.587148  0.717170  0.414020  1
  Si  Si84  1  0.253413  0.050210  0.746632  1
  Si  Si85  1  0.471809  0.084019  0.079742  1
  Si  Si86  1  0.138720  0.417057  0.413229  1
  Si  Si87  1  0.805698  0.750913  0.747368  1
  Si  Si88  1  0.620986  0.532505  0.080101  1
  Si  Si89  1  0.287117  0.865419  0.413563  1
  Si  Si90  1  0.954073  0.198614  0.745909  1
  Si  Si91  1  0.387694  0.915788  0.920715  1
  Si  Si92  1  0.054687  0.248893  0.253092  1
  Si  Si93  1  0.721566  0.582750  0.587231  1
  Si  Si94  1  0.088385  0.467301  0.920360  1
  Si  Si95  1  0.755363  0.801192  0.254552  1
  Si  Si96  1  0.421602  0.134387  0.586894  1
  Si  Si97  1  0.536845  0.616597  0.921151  1
  Si  Si98  1  0.203104  0.949595  0.253827  1
  Si  Si99  1  0.869879  0.282635  0.586445  1
  Si  Si100  1  0.088379  0.615935  0.920120  1
  Si  Si101  1  0.754962  0.949626  0.253818  1
  Si  Si102  1  0.422066  0.283262  0.587530  1
  Si  Si103  1  0.536345  0.915810  0.920210  1
  Si  Si104  1  0.203552  0.249348  0.253965  1
  Si  Si105  1  0.869946  0.582226  0.587389  1
  Si  Si106  1  0.388227  0.467929  0.920270  1
  Si  Si107  1  0.054676  0.800721  0.253620  1
  Si  Si108  1  0.721035  0.134197  0.587422  1
