# generated using pymatgen
data_SiO2
_symmetry_space_group_name_H-M   'P 1'
_cell_length_a   13.50435003
_cell_length_b   12.57013567
_cell_length_c   18.36766300
_cell_angle_alpha   90.00000000
_cell_angle_beta   90.00000000
_cell_angle_gamma   90.00000000
_symmetry_Int_Tables_number   1
_chemical_formula_structural   SiO2
_chemical_formula_sum   'Si48 O96'
_cell_volume   3117.93856658
_cell_formula_units_Z   48
loop_
 _symmetry_equiv_pos_site_id
 _symmetry_equiv_pos_as_xyz
  1  'x, y, z'
loop_
 _atom_site_type_symbol
 _atom_site_label
 _atom_site_symmetry_multiplicity
 _atom_site_fract_x
 _atom_site_fract_y
 _atom_site_fract_z
 _atom_site_occupancy
  Si  Si1  1  0.272537  0.404050  0.052084  1
  O  O2  1  0.138453  0.041023  0.250055  1
  O  O3  1  0.361710  0.541020  0.250055  1
  O  O4  1  0.127853  0.148125  0.127638  1
  O  O5  1  0.372281  0.648114  0.127635  1
  O  O6  1  0.175578  0.952036  0.121619  1
  O  O7  1  0.324558  0.452031  0.121617  1
  O  O8  1  0.150488  0.835649  0.007506  1
  O  O9  1  0.349627  0.335654  0.007500  1
  O  O10  1  0.319119  0.830227  0.069396  1
  O  O11  1  0.181002  0.330238  0.069394  1
  Si  Si12  1  0.227587  0.904043  0.052085  1
  Si  Si13  1  0.114245  0.227805  0.061773  1
  Si  Si14  1  0.113981  0.036543  0.166088  1
  Si  Si15  1  0.386162  0.536534  0.166085  1
  Si  Si16  1  0.385880  0.727799  0.061771  1
  O  O17  1  0.254806  0.999906  0.000050  1
  O  O18  1  0.000057  0.251975  0.054391  1
  O  O19  1  0.245318  0.499914  0.000050  1
  O  O20  1  0.000081  0.011643  0.157684  1
  Si  Si21  1  0.272583  0.595771  0.552087  1
  Si  Si22  1  0.272568  0.404042  0.448024  1
  O  O23  1  0.127870  0.851696  0.627641  1
  O  O24  1  0.372308  0.351690  0.627633  1
  O  O25  1  0.372307  0.648119  0.372472  1
  O  O26  1  0.127880  0.148112  0.372477  1
  O  O27  1  0.175575  0.047783  0.621626  1
  O  O28  1  0.324608  0.547782  0.621615  1
  O  O29  1  0.324583  0.452030  0.378490  1
  O  O30  1  0.175598  0.952027  0.378493  1
  O  O31  1  0.150512  0.164158  0.507507  1
  O  O32  1  0.349676  0.664161  0.507501  1
  O  O33  1  0.349662  0.335645  0.492605  1
  O  O34  1  0.150520  0.835646  0.492611  1
  Si  Si35  1  0.227614  0.904041  0.448028  1
  O  O36  1  0.000099  0.011639  0.342425  1
  O  O37  1  0.181035  0.330226  0.430715  1
  O  O38  1  0.319149  0.830230  0.430715  1
  O  O39  1  0.319134  0.169582  0.569404  1
  O  O40  1  0.181055  0.669589  0.569407  1
  O  O41  1  0.245349  0.499908  0.500056  1
  O  O42  1  0.254832  0.999903  0.500063  1
  O  O43  1  0.000071  0.988153  0.657684  1
  Si  Si44  1  0.227602  0.095766  0.552095  1
  Si  Si45  1  0.114277  0.227796  0.438340  1
  Si  Si46  1  0.385912  0.727802  0.438335  1
  Si  Si47  1  0.385900  0.272005  0.561770  1
  Si  Si48  1  0.114284  0.772009  0.561778  1
  O  O49  1  0.000101  0.747812  0.554400  1
  O  O50  1  0.000089  0.251973  0.445716  1
  Si  Si51  1  0.113974  0.963274  0.666091  1
  Si  Si52  1  0.386197  0.463269  0.666083  1
  Si  Si53  1  0.386181  0.536537  0.334022  1
  Si  Si54  1  0.114000  0.036534  0.334025  1
  Si  Si55  1  0.385864  0.272014  0.938334  1
  Si  Si56  1  0.114248  0.772011  0.938340  1
  O  O57  1  0.138421  0.958792  0.750061  1
  O  O58  1  0.361721  0.458791  0.750049  1
  O  O59  1  0.372276  0.351700  0.872470  1
  O  O60  1  0.127836  0.851699  0.872478  1
  O  O61  1  0.324571  0.547788  0.878485  1
  O  O62  1  0.175540  0.047787  0.878494  1
  O  O63  1  0.349643  0.664163  0.992603  1
  O  O64  1  0.150482  0.164163  0.992609  1
  Si  Si65  1  0.227571  0.095771  0.948022  1
  O  O66  1  0.181018  0.669591  0.930706  1
  O  O67  1  0.319098  0.169591  0.930703  1
  Si  Si68  1  0.113946  0.963276  0.834027  1
  Si  Si69  1  0.272549  0.595775  0.948017  1
  Si  Si70  1  0.386169  0.463278  0.834019  1
  O  O71  1  0.000063  0.747819  0.945717  1
  O  O72  1  0.000042  0.988158  0.842428  1
  Si  Si73  1  0.727576  0.404023  0.052087  1
  O  O74  1  0.638436  0.541008  0.250052  1
  O  O75  1  0.861726  0.041012  0.250055  1
  O  O76  1  0.627849  0.648102  0.127634  1
  O  O77  1  0.872284  0.148099  0.127631  1
  O  O78  1  0.675561  0.452013  0.121619  1
  O  O79  1  0.824578  0.952012  0.121622  1
  O  O80  1  0.650477  0.335633  0.007505  1
  O  O81  1  0.849640  0.835636  0.007505  1
  O  O82  1  0.500067  0.751978  0.054396  1
  Si  Si83  1  0.772550  0.904027  0.052092  1
  O  O84  1  0.819107  0.330205  0.069396  1
  O  O85  1  0.681019  0.830210  0.069405  1
  Si  Si86  1  0.885872  0.227782  0.061766  1
  Si  Si87  1  0.614252  0.727787  0.061772  1
  Si  Si88  1  0.613965  0.536524  0.166085  1
  Si  Si89  1  0.886178  0.036524  0.166085  1
  O  O90  1  0.754803  0.499887  0.000055  1
  O  O91  1  0.500063  0.511637  0.157682  1
  O  O92  1  0.745315  0.999888  0.000061  1
  Si  Si93  1  0.772586  0.904016  0.448017  1
  Si  Si94  1  0.727607  0.404023  0.448017  1
  O  O95  1  0.627878  0.351669  0.627632  1
  O  O96  1  0.872300  0.851670  0.627633  1
  O  O97  1  0.872310  0.148100  0.372474  1
  O  O98  1  0.627875  0.648096  0.372474  1
  O  O99  1  0.675603  0.547755  0.621621  1
  O  O100  1  0.824573  0.047757  0.621616  1
  O  O101  1  0.824605  0.952008  0.378486  1
  O  O102  1  0.675586  0.452010  0.378485  1
  O  O103  1  0.650520  0.664141  0.507505  1
  O  O104  1  0.849664  0.164142  0.507503  1
  O  O105  1  0.849679  0.835626  0.492603  1
  O  O106  1  0.650512  0.335632  0.492601  1
  Si  Si107  1  0.727615  0.595746  0.552086  1
  Si  Si108  1  0.772565  0.095746  0.552080  1
  O  O109  1  0.681055  0.830200  0.430705  1
  O  O110  1  0.819139  0.330208  0.430707  1
  O  O111  1  0.819151  0.669558  0.569394  1
  O  O112  1  0.681030  0.169558  0.569386  1
  O  O113  1  0.745352  0.999880  0.500046  1
  O  O114  1  0.754835  0.499885  0.500050  1
  Si  Si115  1  0.614273  0.271991  0.561765  1
  Si  Si116  1  0.885912  0.771987  0.561770  1
  O  O117  1  0.500101  0.488148  0.657681  1
  Si  Si118  1  0.614284  0.727781  0.438338  1
  Si  Si119  1  0.885904  0.227784  0.438338  1
  Si  Si120  1  0.613984  0.536520  0.334022  1
  O  O121  1  0.500085  0.247815  0.554390  1
  O  O122  1  0.500081  0.511637  0.342426  1
  Si  Si123  1  0.886171  0.963251  0.666085  1
  Si  Si124  1  0.614001  0.463247  0.666085  1
  Si  Si125  1  0.886197  0.036524  0.334022  1
  O  O126  1  0.500100  0.751977  0.445712  1
  O  O127  1  0.638448  0.458760  0.750056  1
  O  O128  1  0.861695  0.958764  0.750051  1
  O  O129  1  0.872270  0.851676  0.872474  1
  O  O130  1  0.627845  0.351674  0.872476  1
  O  O131  1  0.824536  0.047758  0.878486  1
  O  O132  1  0.675570  0.547762  0.878489  1
  O  O133  1  0.849631  0.164143  0.992600  1
  O  O134  1  0.650488  0.664147  0.992605  1
  Si  Si135  1  0.772530  0.095749  0.948023  1
  O  O136  1  0.680994  0.169562  0.930718  1
  O  O137  1  0.819116  0.669566  0.930715  1
  Si  Si138  1  0.727582  0.595752  0.948023  1
  Si  Si139  1  0.886143  0.963255  0.834021  1
  Si  Si140  1  0.613973  0.463253  0.834022  1
  Si  Si141  1  0.614237  0.271993  0.938340  1
  Si  Si142  1  0.885875  0.771995  0.938339  1
  O  O143  1  0.500073  0.488156  0.842423  1
  O  O144  1  0.500048  0.247821  0.945714  1
