# generated using pymatgen
data_SiO2
_symmetry_space_group_name_H-M   'P 1'
_cell_length_a   14.21019635
_cell_length_b   13.24854446
_cell_length_c   10.14958080
_cell_angle_alpha   90.00000000
_cell_angle_beta   107.23900000
_cell_angle_gamma   90.00000000
_symmetry_Int_Tables_number   1
_chemical_formula_structural   SiO2
_chemical_formula_sum   'Si32 O64'
_cell_volume   1824.96556456
_cell_formula_units_Z   32
loop_
 _symmetry_equiv_pos_site_id
 _symmetry_equiv_pos_as_xyz
  1  'x, y, z'
loop_
 _atom_site_type_symbol
 _atom_site_label
 _atom_site_symmetry_multiplicity
 _atom_site_fract_x
 _atom_site_fract_y
 _atom_site_fract_z
 _atom_site_occupancy
  O  O1  1  0.174052  0.154205  0.691414  1
  O  O2  1  0.266128  0.189235  0.165167  1
  O  O3  1  0.234508  0.310436  0.835011  1
  O  O4  1  0.126831  0.288479  0.219168  1
  O  O5  1  0.373802  0.211229  0.780994  1
  O  O6  1  0.286105  0.136883  0.938175  1
  O  O7  1  0.437291  0.157124  0.144974  1
  O  O8  1  0.486910  0.332097  0.243844  1
  Si  Si9  1  0.327257  0.116602  0.098126  1
  Si  Si10  1  0.062765  0.116616  0.652878  1
  O  O11  1  0.013713  0.167597  0.756375  1
  Si  Si12  1  0.485957  0.245346  0.844011  1
  Si  Si13  1  0.014667  0.254391  0.156170  1
  Si  Si14  1  0.233148  0.298334  0.198466  1
  Si  Si15  1  0.267485  0.201348  0.801692  1
  O  O16  1  0.000270  0.223171  0.000018  1
  O  O17  1  0.000355  0.140497  0.500078  1
  O  O18  1  0.326557  0.345531  0.308734  1
  O  O19  1  0.326745  0.654176  0.308740  1
  O  O20  1  0.214533  0.362799  0.061986  1
  O  O21  1  0.214739  0.636906  0.061927  1
  O  O22  1  0.063344  0.342598  0.855196  1
  O  O23  1  0.063509  0.657149  0.855189  1
  O  O24  1  0.180139  0.499847  0.873722  1
  Si  Si25  1  0.438027  0.616576  0.347239  1
  O  O26  1  0.436861  0.499833  0.325397  1
  Si  Si27  1  0.173393  0.383087  0.902037  1
  Si  Si28  1  0.173542  0.616631  0.901976  1
  Si  Si29  1  0.437851  0.383104  0.347305  1
  O  O30  1  0.174191  0.845588  0.691346  1
  O  O31  1  0.234624  0.689261  0.834853  1
  O  O32  1  0.266293  0.810423  0.165167  1
  O  O33  1  0.373919  0.788565  0.780896  1
  O  O34  1  0.127002  0.711175  0.219154  1
  O  O35  1  0.286193  0.862786  0.938125  1
  O  O36  1  0.437423  0.842559  0.144883  1
  O  O37  1  0.063888  0.999877  0.674733  1
  Si  Si38  1  0.062891  0.883145  0.652826  1
  O  O39  1  0.013899  0.832137  0.756367  1
  Si  Si40  1  0.327380  0.883062  0.098074  1
  O  O41  1  0.487025  0.667532  0.243658  1
  Si  Si42  1  0.014851  0.745318  0.156173  1
  Si  Si43  1  0.486079  0.754450  0.843882  1
  Si  Si44  1  0.267599  0.798377  0.801599  1
  Si  Si45  1  0.233319  0.701324  0.198449  1
  O  O46  1  0.320653  0.999818  0.126387  1
  O  O47  1  0.000473  0.859236  0.500036  1
  O  O48  1  0.000470  0.776560  0.000034  1
  O  O49  1  0.826614  0.154166  0.308812  1
  O  O50  1  0.734484  0.189320  0.834933  1
  O  O51  1  0.766153  0.310476  0.165247  1
  O  O52  1  0.873747  0.288580  0.780897  1
  O  O53  1  0.626884  0.211178  0.219265  1
  O  O54  1  0.714623  0.136947  0.062020  1
  O  O55  1  0.563386  0.157166  0.855294  1
  Si  Si56  1  0.733200  0.201362  0.198542  1
  O  O57  1  0.513762  0.332192  0.756510  1
  O  O58  1  0.986860  0.167580  0.243709  1
  Si  Si59  1  0.937906  0.116588  0.347303  1
  Si  Si60  1  0.673432  0.116673  0.902070  1
  Si  Si61  1  0.514725  0.245298  0.156294  1
  Si  Si62  1  0.985898  0.254431  0.843886  1
  Si  Si63  1  0.767433  0.298423  0.801619  1
  O  O64  1  0.500335  0.276562  0.000160  1
  O  O65  1  0.673995  0.345567  0.691339  1
  O  O66  1  0.674180  0.654193  0.691347  1
  O  O67  1  0.786015  0.362838  0.938143  1
  O  O68  1  0.786221  0.636924  0.938085  1
  O  O69  1  0.937250  0.342578  0.144877  1
  O  O70  1  0.937417  0.657138  0.144873  1
  O  O71  1  0.820625  0.499885  0.126357  1
  Si  Si72  1  0.562883  0.616630  0.652816  1
  O  O73  1  0.563863  0.499901  0.674725  1
  Si  Si74  1  0.827219  0.383103  0.098095  1
  Si  Si75  1  0.827370  0.616643  0.098035  1
  Si  Si76  1  0.562709  0.383158  0.652881  1
  O  O77  1  0.500478  0.640498  0.500010  1
  O  O78  1  0.500229  0.359236  0.500124  1
  O  O79  1  0.826754  0.845509  0.308739  1
  O  O80  1  0.766271  0.689293  0.165091  1
  O  O81  1  0.734647  0.810489  0.834927  1
  O  O82  1  0.627004  0.788498  0.219164  1
  O  O83  1  0.873916  0.711231  0.780883  1
  O  O84  1  0.714715  0.862850  0.061967  1
  O  O85  1  0.563516  0.842621  0.855201  1
  O  O86  1  0.500469  0.723173  0.000013  1
  O  O87  1  0.987050  0.832149  0.243700  1
  O  O88  1  0.513874  0.667648  0.756324  1
  Si  Si89  1  0.938034  0.883116  0.347248  1
  Si  Si90  1  0.986081  0.745324  0.843889  1
  Si  Si91  1  0.514849  0.754376  0.156167  1
  Si  Si92  1  0.733317  0.798381  0.198446  1
  Si  Si93  1  0.767601  0.701384  0.801600  1
  Si  Si94  1  0.673553  0.883131  0.902014  1
  O  O95  1  0.936884  0.999857  0.325406  1
  O  O96  1  0.680170  0.999916  0.873754  1
