# generated using pymatgen
data_SiO2
_symmetry_space_group_name_H-M   'P 1'
_cell_length_a   13.15516101
_cell_length_b   13.16213477
_cell_length_c   25.78052411
_cell_angle_alpha   90.00000000
_cell_angle_beta   90.00000000
_cell_angle_gamma   120.00000000
_symmetry_Int_Tables_number   1
_chemical_formula_structural   SiO2
_chemical_formula_sum   'Si56 O112'
_cell_volume   3865.84889913
_cell_formula_units_Z   56
loop_
 _symmetry_equiv_pos_site_id
 _symmetry_equiv_pos_as_xyz
  1  'x, y, z'
loop_
 _atom_site_type_symbol
 _atom_site_label
 _atom_site_symmetry_multiplicity
 _atom_site_fract_x
 _atom_site_fract_y
 _atom_site_fract_z
 _atom_site_occupancy
  O  O1  1  0.442020  0.584953  0.170096  1
  O  O2  1  0.143101  0.558000  0.170459  1
  O  O3  1  0.414764  0.856927  0.170659  1
  O  O4  1  0.441900  0.584775  0.329827  1
  O  O5  1  0.143063  0.557936  0.329755  1
  O  O6  1  0.414636  0.856848  0.329456  1
  O  O7  1  0.428035  0.230800  0.158507  1
  O  O8  1  0.230947  0.428418  0.158415  1
  O  O9  1  0.197239  0.769077  0.158574  1
  O  O10  1  0.348511  0.563192  0.082985  1
  O  O11  1  0.214704  0.651439  0.083426  1
  O  O12  1  0.436842  0.785338  0.083658  1
  O  O13  1  0.406114  0.406129  0.118136  1
  O  O14  1  0.343183  0.999970  0.181554  1
  O  O15  1  0.000227  0.343648  0.181597  1
  O  O16  1  0.343008  0.999857  0.318600  1
  O  O17  1  0.000074  0.343582  0.318459  1
  O  O18  1  0.450494  0.160180  0.250075  1
  O  O19  1  0.160601  0.451517  0.250055  1
  O  O20  1  0.290355  0.839710  0.250071  1
  Si  Si21  1  0.489812  0.355055  0.130568  1
  Si  Si22  1  0.355118  0.489955  0.130345  1
  Si  Si23  1  0.134768  0.644765  0.130689  1
  Si  Si24  1  0.439768  0.133829  0.190073  1
  Si  Si25  1  0.134135  0.440324  0.190055  1
  Si  Si26  1  0.306017  0.866159  0.190082  1
  Si  Si27  1  0.439630  0.133724  0.310072  1
  Si  Si28  1  0.133976  0.440276  0.310043  1
  Si  Si29  1  0.305833  0.866028  0.310074  1
  Si  Si30  1  0.333485  0.667054  0.060472  1
  O  O31  1  0.333845  0.669631  0.000006  1
  O  O32  1  0.230895  0.802398  0.658769  1
  O  O33  1  0.197576  0.428370  0.658457  1
  O  O34  1  0.428362  0.197349  0.658818  1
  O  O35  1  0.427966  0.230689  0.341669  1
  O  O36  1  0.230787  0.428210  0.341606  1
  O  O37  1  0.197135  0.768951  0.341618  1
  O  O38  1  0.436831  0.651396  0.583438  1
  O  O39  1  0.348568  0.785272  0.583613  1
  O  O40  1  0.214753  0.563115  0.583023  1
  O  O41  1  0.348397  0.563031  0.416902  1
  O  O42  1  0.214556  0.651342  0.416883  1
  O  O43  1  0.436690  0.785159  0.416392  1
  O  O44  1  0.406181  0.999872  0.618617  1
  Si  Si45  1  0.333520  0.666828  0.439577  1
  O  O46  1  0.406056  0.406020  0.381924  1
  O  O47  1  0.335918  0.669477  0.500012  1
  Si  Si48  1  0.355276  0.865098  0.630891  1
  Si  Si49  1  0.134957  0.489918  0.630412  1
  Si  Si50  1  0.489987  0.134659  0.630908  1
  Si  Si51  1  0.489803  0.354960  0.369593  1
  Si  Si52  1  0.355048  0.489781  0.369599  1
  Si  Si53  1  0.134698  0.644673  0.369532  1
  Si  Si54  1  0.333659  0.666977  0.560478  1
  O  O55  1  0.000059  0.406127  0.618265  1
  O  O56  1  0.415051  0.557903  0.670449  1
  O  O57  1  0.442204  0.856827  0.670605  1
  O  O58  1  0.143071  0.584933  0.670146  1
  O  O59  1  0.415062  0.557957  0.829774  1
  O  O60  1  0.442307  0.856845  0.829491  1
  O  O61  1  0.143030  0.584844  0.829792  1
  O  O62  1  0.230921  0.802359  0.841220  1
  O  O63  1  0.197563  0.428274  0.841593  1
  O  O64  1  0.428445  0.197386  0.841193  1
  O  O65  1  0.436907  0.651414  0.916877  1
  O  O66  1  0.348560  0.785210  0.916407  1
  O  O67  1  0.214730  0.563076  0.916889  1
  O  O68  1  0.406154  0.999850  0.881404  1
  O  O69  1  0.343553  0.343589  0.681608  1
  O  O70  1  0.343690  0.343652  0.818469  1
  O  O71  1  0.160050  0.707980  0.749987  1
  O  O72  1  0.291095  0.451498  0.750063  1
  O  O73  1  0.452178  0.292005  0.750014  1
  O  O74  1  0.000029  0.406107  0.881809  1
  Si  Si75  1  0.355254  0.865070  0.869141  1
  Si  Si76  1  0.134876  0.489851  0.869556  1
  Si  Si77  1  0.489986  0.134639  0.869123  1
  Si  Si78  1  0.133675  0.693206  0.689999  1
  Si  Si79  1  0.306323  0.440235  0.690066  1
  Si  Si80  1  0.440397  0.306581  0.690023  1
  Si  Si81  1  0.133717  0.693192  0.809977  1
  Si  Si82  1  0.306460  0.440297  0.810055  1
  Si  Si83  1  0.440519  0.306649  0.810008  1
  Si  Si84  1  0.333440  0.666900  0.939571  1
  O  O85  1  0.584921  0.441825  0.170339  1
  O  O86  1  0.557744  0.143006  0.170669  1
  O  O87  1  0.857013  0.414907  0.170204  1
  O  O88  1  0.584884  0.441710  0.329801  1
  O  O89  1  0.557599  0.142865  0.329456  1
  O  O90  1  0.856939  0.414883  0.329799  1
  O  O91  1  0.769080  0.197404  0.158804  1
  O  O92  1  0.802448  0.571441  0.158516  1
  O  O93  1  0.571615  0.802475  0.158821  1
  O  O94  1  0.563077  0.348400  0.083266  1
  O  O95  1  0.651365  0.214593  0.083685  1
  O  O96  1  0.785248  0.436749  0.083132  1
  O  O97  1  0.593727  0.999949  0.118669  1
  O  O98  1  0.999971  0.593728  0.118263  1
  O  O99  1  0.656439  0.656169  0.181592  1
  O  O100  1  0.656302  0.656082  0.318450  1
  O  O101  1  0.839928  0.291752  0.250006  1
  O  O102  1  0.708662  0.548064  0.250047  1
  O  O103  1  0.547945  0.707896  0.249994  1
  O  O104  1  0.665536  0.329979  0.000078  1
  Si  Si105  1  0.644668  0.134728  0.130951  1
  Si  Si106  1  0.865114  0.509939  0.130479  1
  Si  Si107  1  0.509949  0.865156  0.130945  1
  Si  Si108  1  0.866349  0.306575  0.190025  1
  Si  Si109  1  0.693563  0.559447  0.190050  1
  Si  Si110  1  0.559646  0.693247  0.190005  1
  Si  Si111  1  0.866206  0.306501  0.309997  1
  Si  Si112  1  0.693435  0.559363  0.310040  1
  Si  Si113  1  0.559537  0.693171  0.309984  1
  Si  Si114  1  0.666468  0.332886  0.060510  1
  O  O115  1  0.571921  0.768984  0.658586  1
  O  O116  1  0.769086  0.571416  0.658388  1
  O  O117  1  0.802783  0.230772  0.658620  1
  O  O118  1  0.768946  0.197330  0.341218  1
  O  O119  1  0.802378  0.571433  0.341554  1
  O  O120  1  0.571486  0.802340  0.341206  1
  O  O121  1  0.651498  0.436616  0.582975  1
  O  O122  1  0.785311  0.348385  0.583498  1
  O  O123  1  0.563118  0.214478  0.583620  1
  O  O124  1  0.563021  0.348287  0.416935  1
  O  O125  1  0.651318  0.214487  0.416401  1
  O  O126  1  0.785185  0.436639  0.416862  1
  O  O127  1  0.593833  0.593645  0.618181  1
  O  O128  1  0.593667  0.999836  0.381399  1
  O  O129  1  0.999869  0.593642  0.381860  1
  O  O130  1  0.666571  0.330283  0.500020  1
  Si  Si131  1  0.510132  0.644697  0.630675  1
  Si  Si132  1  0.644890  0.509847  0.630341  1
  Si  Si133  1  0.865281  0.355100  0.630747  1
  Si  Si134  1  0.644606  0.134623  0.369131  1
  Si  Si135  1  0.865057  0.509885  0.369547  1
  Si  Si136  1  0.509874  0.865034  0.369123  1
  Si  Si137  1  0.666577  0.332763  0.560485  1
  Si  Si138  1  0.666539  0.332821  0.439585  1
  O  O139  1  0.558020  0.414846  0.670097  1
  O  O140  1  0.856938  0.441856  0.670520  1
  O  O141  1  0.585186  0.142851  0.670597  1
  O  O142  1  0.558122  0.414939  0.829937  1
  O  O143  1  0.856887  0.441849  0.829649  1
  O  O144  1  0.585223  0.142800  0.829467  1
  O  O145  1  0.571955  0.768971  0.841620  1
  O  O146  1  0.769169  0.571506  0.841726  1
  O  O147  1  0.802780  0.230772  0.841524  1
  O  O148  1  0.651481  0.436607  0.917082  1
  O  O149  1  0.785281  0.348347  0.916711  1
  O  O150  1  0.563113  0.214470  0.916393  1
  O  O151  1  0.593872  0.593658  0.881977  1
  Si  Si152  1  0.666440  0.332722  0.939609  1
  O  O153  1  0.656757  0.999833  0.681558  1
  O  O154  1  0.999805  0.656169  0.681583  1
  O  O155  1  0.656877  0.999823  0.818573  1
  O  O156  1  0.999873  0.656176  0.818461  1
  O  O157  1  0.549262  0.839587  0.750071  1
  O  O158  1  0.839334  0.548498  0.750063  1
  O  O159  1  0.709406  0.160000  0.750052  1
  Si  Si160  1  0.510148  0.644714  0.869560  1
  Si  Si161  1  0.644917  0.509888  0.869735  1
  Si  Si162  1  0.865213  0.355075  0.869417  1
  Si  Si163  1  0.560126  0.866000  0.690078  1
  Si  Si164  1  0.865882  0.559559  0.690067  1
  Si  Si165  1  0.693913  0.133640  0.690061  1
  Si  Si166  1  0.560238  0.865961  0.810073  1
  Si  Si167  1  0.865932  0.559570  0.810055  1
  Si  Si168  1  0.694002  0.133633  0.810047  1
