# generated using pymatgen
data_SiO2
_symmetry_space_group_name_H-M   'P 1'
_cell_length_a   13.54874489
_cell_length_b   13.54747189
_cell_length_c   19.59776211
_cell_angle_alpha   90.00000000
_cell_angle_beta   90.00000000
_cell_angle_gamma   120.00000000
_symmetry_Int_Tables_number   1
_chemical_formula_structural   SiO2
_chemical_formula_sum   'Si48 O96'
_cell_volume   3115.26099471
_cell_formula_units_Z   48
loop_
 _symmetry_equiv_pos_site_id
 _symmetry_equiv_pos_as_xyz
  1  'x, y, z'
loop_
 _atom_site_type_symbol
 _atom_site_label
 _atom_site_symmetry_multiplicity
 _atom_site_fract_x
 _atom_site_fract_y
 _atom_site_fract_z
 _atom_site_occupancy
  O  O1  1  0.031568  0.332502  0.125340  1
  O  O2  1  0.031544  0.693706  0.125644  1
  O  O3  1  0.031733  0.332183  0.375487  1
  O  O4  1  0.031846  0.693466  0.375739  1
  Si  Si5  1  0.003662  0.771814  0.079159  1
  Si  Si6  1  0.003599  0.226387  0.078945  1
  Si  Si7  1  0.003830  0.771615  0.422086  1
  Si  Si8  1  0.003919  0.226170  0.421936  1
  O  O9  1  0.003483  0.744999  0.000657  1
  O  O10  1  0.003475  0.252812  0.000407  1
  O  O11  1  0.309048  0.970768  0.375700  1
  O  O12  1  0.257243  0.252687  0.000439  1
  O  O13  1  0.236508  0.464548  0.337661  1
  O  O14  1  0.236393  0.766188  0.163371  1
  O  O15  1  0.236389  0.464760  0.163217  1
  O  O16  1  0.337432  0.411780  0.250393  1
  O  O17  1  0.236656  0.765992  0.337827  1
  O  O18  1  0.082687  0.665110  0.250654  1
  O  O19  1  0.082593  0.411776  0.250448  1
  O  O20  1  0.103466  0.549021  0.155418  1
  O  O21  1  0.453521  0.899091  0.155421  1
  O  O22  1  0.453533  0.548968  0.155298  1
  O  O23  1  0.337464  0.919949  0.250630  1
  O  O24  1  0.103645  0.548789  0.345673  1
  O  O25  1  0.453821  0.899035  0.345690  1
  O  O26  1  0.453657  0.548857  0.345559  1
  Si  Si27  1  0.230570  0.226293  0.078966  1
  Si  Si28  1  0.230706  0.998833  0.079087  1
  Si  Si29  1  0.230830  0.998679  0.422049  1
  Si  Si30  1  0.109596  0.438271  0.171972  1
  Si  Si31  1  0.231003  0.226295  0.421962  1
  Si  Si32  1  0.109614  0.665856  0.172151  1
  Si  Si33  1  0.336687  0.438244  0.171929  1
  Si  Si34  1  0.336846  0.438115  0.328887  1
  Si  Si35  1  0.336714  0.892987  0.172130  1
  Si  Si36  1  0.109838  0.665695  0.329111  1
  O  O37  1  0.309094  0.332281  0.375467  1
  O  O38  1  0.257412  0.998911  0.000573  1
  Si  Si39  1  0.109717  0.438066  0.328930  1
  O  O40  1  0.103777  0.199741  0.087733  1
  O  O41  1  0.103907  0.898624  0.087852  1
  O  O42  1  0.104195  0.199669  0.413211  1
  O  O43  1  0.104019  0.898448  0.413290  1
  O  O44  1  0.237445  0.115989  0.095828  1
  O  O45  1  0.237768  0.115896  0.405205  1
  Si  Si46  1  0.336929  0.892829  0.329090  1
  O  O47  1  0.308844  0.971016  0.125583  1
  O  O48  1  0.308800  0.332410  0.125326  1
  Si  Si49  1  0.003351  0.771429  0.922119  1
  Si  Si50  1  0.003445  0.771580  0.579124  1
  Si  Si51  1  0.003509  0.226145  0.578975  1
  Si  Si52  1  0.003306  0.225998  0.921906  1
  O  O53  1  0.003675  0.745015  0.500618  1
  O  O54  1  0.003674  0.252733  0.500442  1
  O  O55  1  0.336992  0.027005  0.625481  1
  O  O56  1  0.257663  0.252883  0.500481  1
  O  O57  1  0.336913  0.026833  0.875598  1
  O  O58  1  0.257444  0.998885  0.500579  1
  O  O59  1  0.469383  0.231796  0.663306  1
  O  O60  1  0.416414  0.077869  0.750510  1
  Si  Si61  1  0.442737  0.104837  0.828999  1
  O  O62  1  0.416461  0.332709  0.750524  1
  Si  Si63  1  0.230773  0.225931  0.921925  1
  Si  Si64  1  0.442897  0.332115  0.672049  1
  Si  Si65  1  0.227668  0.999123  0.579089  1
  Si  Si66  1  0.231060  0.226236  0.579003  1
  O  O67  1  0.469236  0.231647  0.837759  1
  O  O68  1  0.204411  0.099404  0.587792  1
  O  O69  1  0.204236  0.099121  0.913226  1
  O  O70  1  0.120568  0.881983  0.595928  1
  O  O71  1  0.120710  0.233055  0.595788  1
  O  O72  1  0.120543  0.881734  0.905292  1
  O  O73  1  0.120423  0.232721  0.905096  1
  Si  Si74  1  0.442867  0.104974  0.672038  1
  O  O75  1  0.336869  0.304104  0.875538  1
  Si  Si76  1  0.230881  0.998942  0.922041  1
  Si  Si77  1  0.442768  0.331979  0.829009  1
  O  O78  1  0.337108  0.304345  0.625441  1
  O  O79  1  0.802723  0.898701  0.087769  1
  O  O80  1  0.802933  0.898320  0.413203  1
  O  O81  1  0.886390  0.116084  0.095749  1
  O  O82  1  0.886542  0.765107  0.095927  1
  O  O83  1  0.886831  0.115749  0.405114  1
  O  O84  1  0.886611  0.764644  0.405231  1
  Si  Si85  1  0.564231  0.665810  0.171984  1
  O  O86  1  0.670088  0.693701  0.125421  1
  O  O87  1  0.670008  0.970939  0.125382  1
  O  O88  1  0.670216  0.693421  0.375516  1
  O  O89  1  0.670426  0.970826  0.375500  1
  O  O90  1  0.537721  0.766119  0.163265  1
  O  O91  1  0.537965  0.766051  0.337715  1
  O  O92  1  0.590759  0.919941  0.250483  1
  O  O93  1  0.590682  0.665086  0.250449  1
  Si  Si94  1  0.564396  0.665700  0.328945  1
  Si  Si95  1  0.776201  0.771897  0.079061  1
  Si  Si96  1  0.776069  0.998874  0.078964  1
  O  O97  1  0.749712  0.745122  0.000549  1
  Si  Si98  1  0.776257  0.771480  0.421980  1
  Si  Si99  1  0.776447  0.998618  0.421920  1
  Si  Si100  1  0.564496  0.892876  0.328972  1
  Si  Si101  1  0.564237  0.892938  0.172010  1
  O  O102  1  0.749541  0.998902  0.000431  1
  O  O103  1  0.903187  0.798118  0.587810  1
  O  O104  1  0.903311  0.099316  0.587753  1
  O  O105  1  0.903170  0.798061  0.913294  1
  O  O106  1  0.903065  0.099192  0.913184  1
  O  O107  1  0.769610  0.881887  0.595791  1
  O  O108  1  0.769499  0.881814  0.905167  1
  Si  Si109  1  0.670321  0.559543  0.829066  1
  Si  Si110  1  0.670401  0.104953  0.671913  1
  Si  Si111  1  0.670284  0.104837  0.828873  1
  O  O112  1  0.975572  0.665567  0.625586  1
  O  O113  1  0.698283  0.026986  0.625322  1
  O  O114  1  0.698263  0.665525  0.625516  1
  O  O115  1  0.975536  0.304309  0.625350  1
  O  O116  1  0.975415  0.665313  0.875734  1
  O  O117  1  0.698140  0.026825  0.875437  1
  O  O118  1  0.698167  0.665384  0.875655  1
  O  O119  1  0.975408  0.304122  0.875455  1
  O  O120  1  0.770754  0.533207  0.663369  1
  O  O121  1  0.770704  0.231770  0.663176  1
  O  O122  1  0.770626  0.533049  0.837814  1
  O  O123  1  0.770588  0.231645  0.837632  1
  O  O124  1  0.669720  0.586018  0.750593  1
  O  O125  1  0.924481  0.332690  0.750424  1
  O  O126  1  0.924548  0.586014  0.750619  1
  O  O127  1  0.669693  0.077850  0.750387  1
  O  O128  1  0.553622  0.448963  0.655431  1
  O  O129  1  0.553543  0.098816  0.655317  1
  O  O130  1  0.903663  0.448982  0.655389  1
  O  O131  1  0.553464  0.448823  0.845694  1
  O  O132  1  0.553461  0.098704  0.845587  1
  O  O133  1  0.903533  0.448791  0.845641  1
  Si  Si134  1  0.776510  0.999089  0.578964  1
  Si  Si135  1  0.776385  0.771497  0.579023  1
  Si  Si136  1  0.897429  0.559551  0.829088  1
  Si  Si137  1  0.776260  0.998978  0.921922  1
  Si  Si138  1  0.776370  0.771504  0.922022  1
  Si  Si139  1  0.897388  0.331962  0.828902  1
  Si  Si140  1  0.670439  0.559688  0.672108  1
  Si  Si141  1  0.897498  0.332086  0.671941  1
  Si  Si142  1  0.897540  0.559682  0.672129  1
  O  O143  1  0.749919  0.998868  0.500429  1
  O  O144  1  0.749692  0.744870  0.500508  1
