# generated using pymatgen
data_SiO2
_symmetry_space_group_name_H-M   'P 1'
_cell_length_a   12.71631753
_cell_length_b   12.70113620
_cell_length_c   8.53221777
_cell_angle_alpha   90.00000000
_cell_angle_beta   90.00000000
_cell_angle_gamma   120.00000000
_symmetry_Int_Tables_number   1
_chemical_formula_structural   SiO2
_chemical_formula_sum   'Si16 O32'
_cell_volume   1193.42876271
_cell_formula_units_Z   16
loop_
 _symmetry_equiv_pos_site_id
 _symmetry_equiv_pos_as_xyz
  1  'x, y, z'
loop_
 _atom_site_type_symbol
 _atom_site_label
 _atom_site_symmetry_multiplicity
 _atom_site_fract_x
 _atom_site_fract_y
 _atom_site_fract_z
 _atom_site_occupancy
  O  O1  1  0.332823  0.779608  0.250969  1
  O  O2  1  0.226350  0.547481  0.251577  1
  O  O3  1  0.458248  0.673045  0.250070  1
  O  O4  1  0.785091  0.326305  0.251263  1
  O  O5  1  0.553254  0.220131  0.250049  1
  O  O6  1  0.678629  0.452067  0.251608  1
  O  O7  1  0.678034  0.219982  0.749373  1
  O  O8  1  0.785066  0.452042  0.748166  1
  O  O9  1  0.553277  0.327000  0.749486  1
  O  O10  1  0.226268  0.672791  0.748683  1
  O  O11  1  0.457998  0.779515  0.749619  1
  O  O12  1  0.333112  0.547629  0.748414  1
  O  O13  1  0.378804  0.999965  0.360657  1
  O  O14  1  0.005721  0.372731  0.360659  1
  O  O15  1  0.632469  0.626771  0.360259  1
  O  O16  1  0.631945  0.999738  0.639295  1
  O  O17  1  0.005640  0.626335  0.639433  1
  O  O18  1  0.379347  0.373389  0.639297  1
  O  O19  1  0.219156  0.786090  0.500180  1
  O  O20  1  0.219555  0.427230  0.499952  1
  O  O21  1  0.578072  0.786223  0.499764  1
  O  O22  1  0.791810  0.213274  0.500113  1
  O  O23  1  0.433302  0.213901  0.499614  1
  O  O24  1  0.792205  0.572527  0.499619  1
  O  O25  1  0.438293  0.865823  0.500277  1
  O  O26  1  0.139387  0.566499  0.500159  1
  O  O27  1  0.438742  0.566830  0.498910  1
  O  O28  1  0.871998  0.432800  0.499552  1
  O  O29  1  0.572614  0.133944  0.499521  1
  O  O30  1  0.573083  0.433401  0.500728  1
  O  O31  1  0.674790  0.336238  0.000095  1
  O  O32  1  0.335933  0.664677  0.999997  1
  Si  Si33  1  0.336238  0.861010  0.393376  1
  Si  Si34  1  0.144520  0.469300  0.393310  1
  Si  Si35  1  0.536095  0.669328  0.392494  1
  Si  Si36  1  0.866889  0.330241  0.393189  1
  Si  Si37  1  0.475360  0.138908  0.392757  1
  Si  Si38  1  0.674955  0.530346  0.393283  1
  Si  Si39  1  0.674519  0.138680  0.606691  1
  Si  Si40  1  0.866875  0.530025  0.606345  1
  Si  Si41  1  0.475638  0.330810  0.606956  1
  Si  Si42  1  0.144442  0.668887  0.606854  1
  Si  Si43  1  0.535612  0.860813  0.606822  1
  Si  Si44  1  0.336860  0.469757  0.606265  1
  Si  Si45  1  0.672695  0.333226  0.182809  1
  Si  Si46  1  0.338827  0.666549  0.182715  1
  Si  Si47  1  0.338828  0.666386  0.817285  1
  Si  Si48  1  0.672447  0.333325  0.817391  1
