# generated using pymatgen
data_SiO2
_symmetry_space_group_name_H-M   'P 1'
_cell_length_a   9.70747760
_cell_length_b   25.26355785
_cell_length_c   8.31165552
_cell_angle_alpha   90.00000000
_cell_angle_beta   90.00000000
_cell_angle_gamma   90.00000000
_symmetry_Int_Tables_number   1
_chemical_formula_structural   SiO2
_chemical_formula_sum   'Si40 O80'
_cell_volume   2038.39546518
_cell_formula_units_Z   40
loop_
 _symmetry_equiv_pos_site_id
 _symmetry_equiv_pos_as_xyz
  1  'x, y, z'
loop_
 _atom_site_type_symbol
 _atom_site_label
 _atom_site_symmetry_multiplicity
 _atom_site_fract_x
 _atom_site_fract_y
 _atom_site_fract_z
 _atom_site_occupancy
  O  O1  1  0.198980  0.356534  0.250117  1
  O  O2  1  0.698956  0.856525  0.250141  1
  O  O3  1  0.801217  0.356456  0.250116  1
  O  O4  1  0.301197  0.856464  0.250140  1
  O  O5  1  0.196567  0.641641  0.750141  1
  O  O6  1  0.696593  0.141663  0.750115  1
  O  O7  1  0.804024  0.640916  0.750142  1
  O  O8  1  0.304044  0.140893  0.750116  1
  O  O9  1  0.364031  0.359680  0.008048  1
  O  O10  1  0.864004  0.859677  0.008075  1
  O  O11  1  0.636156  0.359642  0.008073  1
  O  O12  1  0.136131  0.859644  0.008103  1
  O  O13  1  0.363979  0.640947  0.509201  1
  O  O14  1  0.863983  0.140943  0.509155  1
  O  O15  1  0.636084  0.640873  0.509580  1
  O  O16  1  0.136086  0.140876  0.509567  1
  O  O17  1  0.636076  0.640880  0.990699  1
  O  O18  1  0.136084  0.140878  0.990664  1
  O  O19  1  0.363973  0.640948  0.991090  1
  O  O20  1  0.863983  0.140951  0.991074  1
  O  O21  1  0.636165  0.359640  0.492167  1
  O  O22  1  0.136127  0.859636  0.492180  1
  O  O23  1  0.364043  0.359672  0.492175  1
  O  O24  1  0.864005  0.859675  0.492213  1
  O  O25  1  0.129671  0.312761  0.988280  1
  O  O26  1  0.629643  0.812759  0.988294  1
  O  O27  1  0.870562  0.312724  0.988228  1
  O  O28  1  0.370533  0.812724  0.988265  1
  O  O29  1  0.129552  0.687738  0.490377  1
  O  O30  1  0.629555  0.187731  0.490312  1
  O  O31  1  0.870349  0.687732  0.491252  1
  O  O32  1  0.370354  0.187738  0.491264  1
  O  O33  1  0.870347  0.687739  0.009028  1
  O  O34  1  0.370351  0.187740  0.008968  1
  O  O35  1  0.129546  0.687740  0.009907  1
  O  O36  1  0.629551  0.187739  0.009907  1
  O  O37  1  0.870570  0.312722  0.511999  1
  O  O38  1  0.370534  0.812717  0.512011  1
  O  O39  1  0.129678  0.312753  0.511947  1
  O  O40  1  0.629644  0.812758  0.511991  1
  O  O41  1  0.129381  0.411714  0.004812  1
  O  O42  1  0.629358  0.911711  0.004842  1
  O  O43  1  0.870762  0.411674  0.004860  1
  O  O44  1  0.370740  0.911675  0.004865  1
  O  O45  1  0.129631  0.589298  0.497632  1
  O  O46  1  0.629630  0.089290  0.497676  1
  O  O47  1  0.870554  0.589300  0.496180  1
  O  O48  1  0.370553  0.089306  0.496100  1
  O  O49  1  0.870543  0.589306  0.004116  1
  O  O50  1  0.370556  0.089308  0.004142  1
  O  O51  1  0.129620  0.589299  0.002644  1
  O  O52  1  0.629632  0.089298  0.002576  1
  O  O53  1  0.870777  0.411672  0.495379  1
  O  O54  1  0.370735  0.911669  0.495425  1
  O  O55  1  0.129395  0.411707  0.495447  1
  O  O56  1  0.629354  0.911710  0.495439  1
  O  O57  1  0.499920  0.001069  0.988504  1
  O  O58  1  0.999929  0.501074  0.988505  1
  O  O59  1  0.499902  0.001066  0.511745  1
  O  O60  1  0.999957  0.501066  0.511751  1
  O  O61  1  0.501362  0.054800  0.250121  1
  O  O62  1  0.001276  0.554798  0.250137  1
  O  O63  1  0.500009  0.936515  0.750136  1
  O  O64  1  0.000011  0.436514  0.750127  1
  O  O65  1  0.499300  0.227347  0.250114  1
  O  O66  1  0.999336  0.727349  0.250142  1
  O  O67  1  0.500150  0.771515  0.750144  1
  O  O68  1  0.000198  0.271517  0.750116  1
  O  O69  1  0.500037  0.275590  0.977649  1
  O  O70  1  0.000022  0.775590  0.977674  1
  O  O71  1  0.500188  0.724788  0.475472  1
  O  O72  1  0.000188  0.224788  0.475447  1
  O  O73  1  0.500170  0.724793  0.024823  1
  O  O74  1  0.000195  0.224793  0.024793  1
  O  O75  1  0.500058  0.275585  0.522592  1
  O  O76  1  0.000011  0.775586  0.522624  1
  O  O77  1  0.000370  0.156992  0.250115  1
  O  O78  1  0.500344  0.656991  0.250142  1
  O  O79  1  0.000080  0.842503  0.750144  1
  O  O80  1  0.500100  0.342501  0.750114  1
  Si  Si81  1  0.209566  0.361072  0.063267  1
  Si  Si82  1  0.709541  0.861068  0.063292  1
  Si  Si83  1  0.790624  0.361018  0.063270  1
  Si  Si84  1  0.290599  0.861022  0.063294  1
  Si  Si85  1  0.209224  0.639041  0.563063  1
  Si  Si86  1  0.709230  0.139041  0.563039  1
  Si  Si87  1  0.790932  0.638835  0.563043  1
  Si  Si88  1  0.290938  0.138834  0.563017  1
  Si  Si89  1  0.790924  0.638841  0.937242  1
  Si  Si90  1  0.290936  0.138835  0.937217  1
  Si  Si91  1  0.209220  0.639042  0.937220  1
  Si  Si92  1  0.709230  0.139047  0.937194  1
  Si  Si93  1  0.790633  0.361017  0.436964  1
  Si  Si94  1  0.290598  0.861015  0.436990  1
  Si  Si95  1  0.209574  0.361066  0.436969  1
  Si  Si96  1  0.709539  0.861066  0.436994  1
  Si  Si97  1  0.500349  0.057527  0.062914  1
  Si  Si98  1  0.000324  0.557523  0.062924  1
  Si  Si99  1  0.500006  0.941953  0.563338  1
  Si  Si100  1  0.000043  0.441951  0.563324  1
  Si  Si101  1  0.500014  0.941957  0.936937  1
  Si  Si102  1  0.000028  0.441955  0.936922  1
  Si  Si103  1  0.500344  0.057521  0.437336  1
  Si  Si104  1  0.000337  0.557522  0.437349  1
  Si  Si105  1  0.499807  0.220578  0.062971  1
  Si  Si106  1  0.999811  0.720578  0.062999  1
  Si  Si107  1  0.500130  0.779454  0.563283  1
  Si  Si108  1  0.000161  0.279455  0.563255  1
  Si  Si109  1  0.500125  0.779457  0.937003  1
  Si  Si110  1  0.000159  0.279459  0.936976  1
  Si  Si111  1  0.499814  0.220574  0.437260  1
  Si  Si112  1  0.999810  0.720575  0.437288  1
  Si  Si113  1  0.000151  0.164253  0.063805  1
  Si  Si114  1  0.500135  0.664252  0.063834  1
  Si  Si115  1  0.000053  0.835912  0.563785  1
  Si  Si116  1  0.500089  0.335912  0.563758  1
  Si  Si117  1  0.000056  0.835916  0.936503  1
  Si  Si118  1  0.500078  0.335916  0.936476  1
  Si  Si119  1  0.000150  0.164249  0.436427  1
  Si  Si120  1  0.500143  0.664248  0.436456  1
