# generated using pymatgen
data_SiO2
_symmetry_space_group_name_H-M   'P 1'
_cell_length_a   13.44936626
_cell_length_b   13.44944935
_cell_length_c   13.44833066
_cell_angle_alpha   90.00000000
_cell_angle_beta   90.00000000
_cell_angle_gamma   90.00000000
_symmetry_Int_Tables_number   1
_chemical_formula_structural   SiO2
_chemical_formula_sum   'Si48 O96'
_cell_volume   2432.62240936
_cell_formula_units_Z   48
loop_
 _symmetry_equiv_pos_site_id
 _symmetry_equiv_pos_as_xyz
  1  'x, y, z'
loop_
 _atom_site_type_symbol
 _atom_site_label
 _atom_site_symmetry_multiplicity
 _atom_site_fract_x
 _atom_site_fract_y
 _atom_site_fract_z
 _atom_site_occupancy
  O  O1  1  0.639474  0.473416  0.120585  1
  O  O2  1  0.526592  0.120444  0.139481  1
  O  O3  1  0.879550  0.139306  0.026567  1
  O  O4  1  0.370623  0.223399  0.110695  1
  O  O5  1  0.889493  0.129357  0.223590  1
  O  O6  1  0.723603  0.110529  0.129561  1
  O  O7  1  0.389487  0.129347  0.276577  1
  O  O8  1  0.360714  0.026391  0.120601  1
  O  O9  1  0.120618  0.360536  0.026559  1
  O  O10  1  0.473585  0.379368  0.139452  1
  O  O11  1  0.629550  0.276405  0.110668  1
  O  O12  1  0.276574  0.389287  0.129552  1
  O  O13  1  0.610680  0.370450  0.276549  1
  O  O14  1  0.110686  0.370461  0.223580  1
  Si  Si15  1  0.625096  0.160615  0.089382  1
  Si  Si16  1  0.839386  0.089202  0.125077  1
  Si  Si17  1  0.410804  0.124894  0.160782  1
  Si  Si18  1  0.375075  0.339183  0.089379  1
  Si  Si19  1  0.160794  0.410625  0.125072  1
  Si  Si20  1  0.589373  0.374913  0.160753  1
  O  O21  1  0.473584  0.120435  0.639491  1
  O  O22  1  0.139446  0.473422  0.379556  1
  O  O23  1  0.120630  0.139314  0.526570  1
  O  O24  1  0.360664  0.473397  0.620598  1
  O  O25  1  0.379543  0.139275  0.473598  1
  O  O26  1  0.026581  0.120441  0.360695  1
  O  O27  1  0.870614  0.223404  0.389467  1
  O  O28  1  0.723573  0.389290  0.629541  1
  O  O29  1  0.223592  0.110528  0.370601  1
  O  O30  1  0.370605  0.276384  0.610683  1
  O  O31  1  0.860686  0.026396  0.379554  1
  O  O32  1  0.879526  0.360510  0.526553  1
  O  O33  1  0.526560  0.379362  0.639453  1
  O  O34  1  0.973574  0.379365  0.360667  1
  O  O35  1  0.639462  0.026392  0.620596  1
  O  O36  1  0.620612  0.360504  0.473572  1
  O  O37  1  0.276570  0.110493  0.629560  1
  O  O38  1  0.129540  0.276411  0.389466  1
  O  O39  1  0.629535  0.223404  0.610673  1
  O  O40  1  0.776563  0.389286  0.370583  1
  Si  Si41  1  0.160782  0.089196  0.625079  1
  Si  Si42  1  0.589375  0.124898  0.660775  1
  Si  Si43  1  0.125089  0.160626  0.410775  1
  Si  Si44  1  0.375075  0.160594  0.589392  1
  Si  Si45  1  0.339371  0.089187  0.375083  1
  Si  Si46  1  0.910794  0.124896  0.339387  1
  Si  Si47  1  0.875067  0.339193  0.410759  1
  Si  Si48  1  0.839358  0.410610  0.625064  1
  Si  Si49  1  0.410774  0.374897  0.660764  1
  Si  Si50  1  0.660779  0.410609  0.375063  1
  Si  Si51  1  0.089363  0.374916  0.339374  1
  Si  Si52  1  0.625070  0.339190  0.589367  1
  O  O53  1  0.620635  0.139291  0.973589  1
  O  O54  1  0.973597  0.120446  0.860687  1
  O  O55  1  0.860688  0.473412  0.879543  1
  O  O56  1  0.223588  0.389304  0.870592  1
  O  O57  1  0.889462  0.370446  0.723574  1
  O  O58  1  0.389472  0.370438  0.776561  1
  O  O59  1  0.870619  0.276401  0.889462  1
  O  O60  1  0.026574  0.379373  0.860665  1
  O  O61  1  0.379530  0.360488  0.973582  1
  O  O62  1  0.139487  0.026408  0.879558  1
  O  O63  1  0.610704  0.129362  0.776567  1
  O  O64  1  0.776586  0.110506  0.870602  1
  O  O65  1  0.110694  0.129371  0.723593  1
  O  O66  1  0.129549  0.223423  0.889477  1
  Si  Si67  1  0.660800  0.089190  0.875078  1
  Si  Si68  1  0.089386  0.124911  0.839389  1
  Si  Si69  1  0.875086  0.160616  0.910771  1
  Si  Si70  1  0.339376  0.410604  0.875074  1
  Si  Si71  1  0.910785  0.374909  0.839368  1
  Si  Si72  1  0.125081  0.339213  0.910766  1
  O  O73  1  0.973592  0.620447  0.139453  1
  O  O74  1  0.620625  0.639297  0.026556  1
  O  O75  1  0.860693  0.973417  0.120595  1
  O  O76  1  0.389461  0.870436  0.223595  1
  O  O77  1  0.223585  0.889313  0.129559  1
  O  O78  1  0.889452  0.870444  0.276564  1
  O  O79  1  0.870619  0.776404  0.110669  1
  O  O80  1  0.379528  0.860496  0.026572  1
  O  O81  1  0.026572  0.879373  0.139487  1
  O  O82  1  0.139487  0.526411  0.120596  1
  O  O83  1  0.776578  0.610520  0.129543  1
  O  O84  1  0.110681  0.629371  0.276559  1
  O  O85  1  0.610689  0.629362  0.223578  1
  O  O86  1  0.129549  0.723424  0.110681  1
  Si  Si87  1  0.660794  0.589199  0.125067  1
  Si  Si88  1  0.089378  0.624912  0.160762  1
  Si  Si89  1  0.875081  0.660617  0.089367  1
  Si  Si90  1  0.339374  0.910611  0.125081  1
  Si  Si91  1  0.910781  0.874910  0.160772  1
  Si  Si92  1  0.125081  0.839213  0.089390  1
  O  O93  1  0.139442  0.973417  0.620598  1
  O  O94  1  0.120620  0.639317  0.473581  1
  O  O95  1  0.473578  0.620433  0.360669  1
  O  O96  1  0.026565  0.620441  0.639453  1
  O  O97  1  0.360671  0.973399  0.379561  1
  O  O98  1  0.379532  0.639273  0.526561  1
  O  O99  1  0.723571  0.889297  0.370601  1
  O  O100  1  0.870603  0.723404  0.610669  1
  O  O101  1  0.370605  0.776385  0.389480  1
  O  O102  1  0.223575  0.610519  0.629552  1
  O  O103  1  0.526559  0.879359  0.360688  1
  O  O104  1  0.860677  0.526393  0.620582  1
  O  O105  1  0.879522  0.860515  0.473587  1
  O  O106  1  0.639464  0.526393  0.379545  1
  O  O107  1  0.620607  0.860502  0.526567  1
  O  O108  1  0.973564  0.879364  0.639480  1
  O  O109  1  0.129531  0.776408  0.610692  1
  O  O110  1  0.276564  0.610505  0.370593  1
  O  O111  1  0.776554  0.889283  0.629558  1
  O  O112  1  0.629535  0.723404  0.389467  1
  Si  Si113  1  0.125076  0.660623  0.589378  1
  Si  Si114  1  0.160776  0.589203  0.375073  1
  Si  Si115  1  0.589367  0.624897  0.339372  1
  Si  Si116  1  0.339356  0.589183  0.625074  1
  Si  Si117  1  0.910777  0.624896  0.660754  1
  Si  Si118  1  0.375070  0.660595  0.410768  1
  Si  Si119  1  0.839356  0.910615  0.375076  1
  Si  Si120  1  0.410770  0.874895  0.339391  1
  Si  Si121  1  0.875060  0.839194  0.589381  1
  Si  Si122  1  0.625071  0.839190  0.410772  1
  Si  Si123  1  0.660771  0.910607  0.625077  1
  Si  Si124  1  0.089353  0.874914  0.660780  1
  O  O125  1  0.639470  0.973409  0.879556  1
  O  O126  1  0.879539  0.639301  0.973572  1
  O  O127  1  0.526577  0.620441  0.860668  1
  O  O128  1  0.370614  0.723397  0.889470  1
  O  O129  1  0.723588  0.610516  0.870585  1
  O  O130  1  0.389463  0.629347  0.723583  1
  O  O131  1  0.889469  0.629357  0.776549  1
  O  O132  1  0.360705  0.526386  0.879559  1
  O  O133  1  0.473577  0.879364  0.860695  1
  O  O134  1  0.120614  0.860532  0.973596  1
  O  O135  1  0.629541  0.776400  0.889467  1
  O  O136  1  0.110672  0.870460  0.776574  1
  O  O137  1  0.276567  0.889281  0.870601  1
  O  O138  1  0.610666  0.870449  0.723590  1
  Si  Si139  1  0.625084  0.660612  0.910761  1
  Si  Si140  1  0.839371  0.589196  0.875064  1
  Si  Si141  1  0.410787  0.624892  0.839376  1
  Si  Si142  1  0.375069  0.839183  0.910777  1
  Si  Si143  1  0.160787  0.910621  0.875081  1
  Si  Si144  1  0.589363  0.874909  0.839386  1
