# generated using pymatgen
data_SiO2
_symmetry_space_group_name_H-M   'P 1'
_cell_length_a   7.52286856
_cell_length_b   13.44017035
_cell_length_c   12.75080201
_cell_angle_alpha   90.00000000
_cell_angle_beta   90.00000000
_cell_angle_gamma   90.00000000
_symmetry_Int_Tables_number   1
_chemical_formula_structural   SiO2
_chemical_formula_sum   'Si24 O48'
_cell_volume   1289.21618662
_cell_formula_units_Z   24
loop_
 _symmetry_equiv_pos_site_id
 _symmetry_equiv_pos_as_xyz
  1  'x, y, z'
loop_
 _atom_site_type_symbol
 _atom_site_label
 _atom_site_symmetry_multiplicity
 _atom_site_fract_x
 _atom_site_fract_y
 _atom_site_fract_z
 _atom_site_occupancy
  O  O1  1  0.514304  0.616496  0.562647  1
  O  O2  1  0.985866  0.383307  0.062647  1
  O  O3  1  0.485863  0.116496  0.437480  1
  O  O4  1  0.014306  0.883307  0.937480  1
  O  O5  1  0.485865  0.383307  0.437479  1
  O  O6  1  0.014304  0.616495  0.937479  1
  O  O7  1  0.514306  0.883307  0.562647  1
  O  O8  1  0.985863  0.116495  0.062647  1
  O  O9  1  0.096110  0.577104  0.749401  1
  O  O10  1  0.404059  0.422699  0.249401  1
  O  O11  1  0.904058  0.077104  0.250725  1
  O  O12  1  0.596111  0.922699  0.750725  1
  O  O13  1  0.904059  0.422698  0.250726  1
  O  O14  1  0.596110  0.577104  0.750725  1
  O  O15  1  0.096111  0.922699  0.749403  1
  O  O16  1  0.404059  0.077104  0.249402  1
  O  O17  1  0.843815  0.602520  0.617698  1
  O  O18  1  0.656354  0.397282  0.117698  1
  O  O19  1  0.156353  0.102520  0.382429  1
  O  O20  1  0.343816  0.897283  0.882429  1
  O  O21  1  0.156353  0.397282  0.382428  1
  O  O22  1  0.343814  0.602520  0.882428  1
  O  O23  1  0.843816  0.897283  0.617699  1
  O  O24  1  0.656352  0.102520  0.117699  1
  O  O25  1  0.178503  0.618218  0.559280  1
  O  O26  1  0.321665  0.381585  0.059279  1
  O  O27  1  0.821663  0.118218  0.440846  1
  O  O28  1  0.678505  0.881584  0.940846  1
  O  O29  1  0.821666  0.381585  0.440846  1
  O  O30  1  0.678504  0.618217  0.940847  1
  O  O31  1  0.178506  0.881585  0.559280  1
  O  O32  1  0.321665  0.118217  0.059282  1
  O  O33  1  0.351896  0.553398  0.401867  1
  O  O34  1  0.148273  0.446405  0.901867  1
  O  O35  1  0.648273  0.053398  0.598260  1
  O  O36  1  0.851896  0.946405  0.098260  1
  O  O37  1  0.648273  0.446405  0.598259  1
  O  O38  1  0.851896  0.553398  0.098259  1
  O  O39  1  0.351896  0.946405  0.401868  1
  O  O40  1  0.148273  0.053397  0.901867  1
  O  O41  1  0.035905  0.749901  0.672927  1
  O  O42  1  0.464264  0.249901  0.172927  1
  O  O43  1  0.964264  0.249902  0.327200  1
  O  O44  1  0.535905  0.749901  0.827200  1
  O  O45  1  0.351215  0.749902  0.457950  1
  O  O46  1  0.148954  0.249902  0.957950  1
  O  O47  1  0.648954  0.249902  0.542176  1
  O  O48  1  0.851215  0.749901  0.042176  1
  Si  Si49  1  0.037662  0.635209  0.648204  1
  Si  Si50  1  0.462507  0.364593  0.148204  1
  Si  Si51  1  0.962506  0.135209  0.351923  1
  Si  Si52  1  0.537662  0.864594  0.851922  1
  Si  Si53  1  0.962508  0.364594  0.351923  1
  Si  Si54  1  0.537662  0.635209  0.851923  1
  Si  Si55  1  0.037663  0.864594  0.648205  1
  Si  Si56  1  0.462507  0.135209  0.148204  1
  Si  Si57  1  0.651136  0.559497  0.633489  1
  Si  Si58  1  0.849035  0.440307  0.133489  1
  Si  Si59  1  0.349033  0.059496  0.366638  1
  Si  Si60  1  0.151136  0.940306  0.866638  1
  Si  Si61  1  0.349033  0.440307  0.366637  1
  Si  Si62  1  0.151135  0.559496  0.866636  1
  Si  Si63  1  0.651136  0.940307  0.633490  1
  Si  Si64  1  0.849031  0.059495  0.133489  1
  Si  Si65  1  0.348915  0.635929  0.490234  1
  Si  Si66  1  0.151253  0.363874  0.990233  1
  Si  Si67  1  0.651253  0.135929  0.509894  1
  Si  Si68  1  0.848917  0.863875  0.009893  1
  Si  Si69  1  0.651254  0.363875  0.509892  1
  Si  Si70  1  0.848916  0.635927  0.009893  1
  Si  Si71  1  0.348917  0.863874  0.490234  1
  Si  Si72  1  0.151254  0.135928  0.990234  1
