# generated using pymatgen
data_SiO2
_symmetry_space_group_name_H-M   'P 1'
_cell_length_a   14.05413494
_cell_length_b   35.72652136
_cell_length_c   13.77403359
_cell_angle_alpha   90.00000000
_cell_angle_beta   90.00000000
_cell_angle_gamma   90.00000000
_symmetry_Int_Tables_number   1
_chemical_formula_structural   SiO2
_chemical_formula_sum   'Si92 O184'
_cell_volume   6916.01598398
_cell_formula_units_Z   92
loop_
 _symmetry_equiv_pos_site_id
 _symmetry_equiv_pos_as_xyz
  1  'x, y, z'
loop_
 _atom_site_type_symbol
 _atom_site_label
 _atom_site_symmetry_multiplicity
 _atom_site_fract_x
 _atom_site_fract_y
 _atom_site_fract_z
 _atom_site_occupancy
  O  O1  1  0.000277  0.281039  0.662017  1
  O  O2  1  0.499580  0.218321  0.336076  1
  O  O3  1  0.415808  0.274135  0.249042  1
  O  O4  1  0.089073  0.226835  0.750245  1
  O  O5  1  0.269534  0.127819  0.750233  1
  O  O6  1  0.332594  0.150634  0.586473  1
  O  O7  1  0.331886  0.150864  0.914169  1
  O  O8  1  0.208575  0.103783  0.585506  1
  O  O9  1  0.208948  0.103497  0.914959  1
  O  O10  1  0.340584  0.332700  0.162735  1
  O  O11  1  0.163231  0.168362  0.662500  1
  O  O12  1  0.163190  0.168262  0.838230  1
  O  O13  1  0.339194  0.332508  0.338234  1
  O  O14  1  0.131259  0.048486  0.250581  1
  O  O15  1  0.171781  0.079480  0.087240  1
  O  O16  1  0.172219  0.079883  0.413295  1
  O  O17  1  0.129551  0.013764  0.087872  1
  O  O18  1  0.129392  0.014356  0.415305  1
  O  O19  1  0.412058  0.161189  0.416298  1
  O  O20  1  0.410783  0.162037  0.083754  1
  O  O21  1  0.249822  0.036511  0.975300  1
  O  O22  1  0.247166  0.036352  0.526029  1
  O  O23  1  0.339886  0.099064  0.027190  1
  O  O24  1  0.340723  0.098560  0.474416  1
  O  O25  1  0.499690  0.219400  0.157939  1
  Si  Si26  1  0.497379  0.176554  0.142032  1
  Si  Si27  1  0.242179  0.138568  0.644536  1
  Si  Si28  1  0.242232  0.138494  0.855975  1
  Si  Si29  1  0.108223  0.050951  0.140372  1
  Si  Si30  1  0.107254  0.051701  0.360070  1
  Si  Si31  1  0.243416  0.078435  0.002546  1
  Si  Si32  1  0.243454  0.078961  0.498729  1
  Si  Si33  1  0.399545  0.134678  0.504063  1
  Si  Si34  1  0.396734  0.135295  0.997287  1
  Si  Si35  1  0.399870  0.317454  0.250915  1
  Si  Si36  1  0.105265  0.184257  0.750428  1
  O  O37  1  0.001165  0.281319  0.837865  1
  O  O38  1  0.000747  0.059960  0.128233  1
  O  O39  1  0.000409  0.060824  0.373180  1
  Si  Si40  1  0.497143  0.175369  0.356366  1
  O  O41  1  0.496663  0.160748  0.249055  1
  O  O42  1  0.000812  0.169156  0.750806  1
  Si  Si43  1  0.000793  0.252716  0.750424  1
  Si  Si44  1  0.191890  0.001208  0.001826  1
  O  O45  1  0.229487  0.371529  0.250054  1
  O  O46  1  0.229530  0.627969  0.749168  1
  O  O47  1  0.170968  0.348236  0.085006  1
  O  O48  1  0.167634  0.651527  0.913073  1
  O  O49  1  0.169318  0.348966  0.415351  1
  O  O50  1  0.168966  0.650513  0.583644  1
  O  O51  1  0.290094  0.396724  0.085832  1
  O  O52  1  0.289078  0.603912  0.914749  1
  O  O53  1  0.290210  0.397020  0.413222  1
  O  O54  1  0.293302  0.602811  0.586932  1
  O  O55  1  0.369826  0.451965  0.750196  1
  O  O56  1  0.369674  0.548160  0.250235  1
  O  O57  1  0.328035  0.421749  0.585052  1
  O  O58  1  0.328854  0.578785  0.414935  1
  O  O59  1  0.328066  0.421396  0.914166  1
  O  O60  1  0.327588  0.578858  0.086178  1
  O  O61  1  0.371583  0.486546  0.587849  1
  O  O62  1  0.370030  0.513678  0.414394  1
  O  O63  1  0.370761  0.486247  0.914703  1
  O  O64  1  0.371841  0.513358  0.087974  1
  Si  Si65  1  0.106313  0.634144  0.994854  1
  Si  Si66  1  0.309266  0.500521  0.002235  1
  O  O67  1  0.001775  0.660327  0.249573  1
  Si  Si68  1  0.307949  0.498901  0.502149  1
  O  O69  1  0.086289  0.661037  0.083328  1
  O  O70  1  0.087017  0.339734  0.915128  1
  O  O71  1  0.088372  0.661264  0.414082  1
  O  O72  1  0.087753  0.338742  0.585026  1
  Si  Si73  1  0.103286  0.634838  0.501293  1
  O  O74  1  0.249233  0.463785  0.474501  1
  O  O75  1  0.252143  0.536193  0.526842  1
  O  O76  1  0.251992  0.463992  0.026330  1
  O  O77  1  0.251834  0.536690  0.976031  1
  O  O78  1  0.159865  0.401330  0.526361  1
  O  O79  1  0.160437  0.598661  0.473933  1
  O  O80  1  0.159675  0.402364  0.973432  1
  O  O81  1  0.158921  0.598259  0.027609  1
  O  O82  1  0.001975  0.372970  0.037616  1
  Si  Si83  1  0.104103  0.364905  0.497740  1
  O  O84  1  0.000305  0.625730  0.962522  1
  Si  Si85  1  0.258291  0.361333  0.143722  1
  Si  Si86  1  0.256149  0.638869  0.855810  1
  Si  Si87  1  0.258197  0.361540  0.356092  1
  Si  Si88  1  0.258655  0.637791  0.642324  1
  Si  Si89  1  0.393636  0.449589  0.640842  1
  Si  Si90  1  0.393714  0.550802  0.359133  1
  Si  Si91  1  0.393887  0.449263  0.859059  1
  Si  Si92  1  0.393315  0.550531  0.140717  1
  Si  Si93  1  0.254973  0.421755  0.499833  1
  Si  Si94  1  0.256346  0.579119  0.501166  1
  Si  Si95  1  0.254621  0.421322  0.999459  1
  Si  Si96  1  0.253801  0.579434  0.001355  1
  Si  Si97  1  0.108488  0.365914  0.004472  1
  O  O98  1  0.499946  0.560067  0.127736  1
  O  O99  1  0.498344  0.781068  0.662424  1
  Si  Si100  1  0.000077  0.675699  0.143844  1
  O  O101  1  0.497840  0.781055  0.838133  1
  O  O102  1  0.085521  0.773849  0.249334  1
  O  O103  1  0.411039  0.726436  0.749427  1
  O  O104  1  0.268085  0.871685  0.249995  1
  O  O105  1  0.331253  0.848825  0.414643  1
  O  O106  1  0.331599  0.849195  0.085342  1
  O  O107  1  0.208116  0.896112  0.415372  1
  O  O108  1  0.208064  0.896351  0.084694  1
  O  O109  1  0.162666  0.831392  0.339428  1
  O  O110  1  0.336968  0.668149  0.837276  1
  O  O111  1  0.338442  0.667596  0.661354  1
  O  O112  1  0.162896  0.831507  0.159961  1
  O  O113  1  0.130769  0.951776  0.749772  1
  O  O114  1  0.171572  0.920502  0.912568  1
  O  O115  1  0.171664  0.920192  0.587261  1
  O  O116  1  0.129803  0.986217  0.914626  1
  O  O117  1  0.128306  0.986534  0.587577  1
  Si  Si118  1  0.001621  0.675469  0.356110  1
  O  O119  1  0.498083  0.839553  0.750342  1
  O  O120  1  0.411329  0.838450  0.585105  1
  O  O121  1  0.411462  0.838744  0.915270  1
  O  O122  1  0.001197  0.831765  0.249446  1
  O  O123  1  0.247521  0.963847  0.025044  1
  O  O124  1  0.246958  0.963288  0.476832  1
  O  O125  1  0.339815  0.901345  0.973237  1
  O  O126  1  0.339773  0.900877  0.526947  1
  Si  Si127  1  0.497897  0.824288  0.857115  1
  Si  Si128  1  0.240815  0.860962  0.356160  1
  Si  Si129  1  0.240949  0.861158  0.143658  1
  Si  Si130  1  0.106939  0.948814  0.859273  1
  Si  Si131  1  0.107676  0.949027  0.639540  1
  Si  Si132  1  0.243191  0.921124  0.997740  1
  Si  Si133  1  0.243243  0.920663  0.502616  1
  Si  Si134  1  0.396362  0.864684  0.497458  1
  Si  Si135  1  0.396578  0.865171  0.002600  1
  Si  Si136  1  0.107177  0.817111  0.249554  1
  Si  Si137  1  0.396235  0.683651  0.749515  1
  Si  Si138  1  0.497826  0.824289  0.643582  1
  Si  Si139  1  0.497437  0.753190  0.750229  1
  O  O140  1  0.000283  0.939656  0.626938  1
  O  O141  1  0.000097  0.939865  0.872360  1
  Si  Si142  1  0.190608  0.999701  0.502305  1
  O  O143  1  0.500483  0.126420  0.962873  1
  O  O144  1  0.500157  0.125097  0.541019  1
  O  O145  1  0.585300  0.273837  0.248865  1
  O  O146  1  0.912587  0.226752  0.750973  1
  O  O147  1  0.731010  0.127899  0.750882  1
  O  O148  1  0.668757  0.151404  0.914158  1
  O  O149  1  0.669058  0.149838  0.585308  1
  O  O150  1  0.791549  0.103156  0.915008  1
  O  O151  1  0.792975  0.103495  0.587627  1
  O  O152  1  0.661672  0.331421  0.340136  1
  O  O153  1  0.838194  0.168142  0.838953  1
  O  O154  1  0.838385  0.168209  0.663012  1
  O  O155  1  0.662397  0.332722  0.162196  1
  O  O156  1  0.870154  0.048517  0.250984  1
  O  O157  1  0.826834  0.079447  0.415509  1
  O  O158  1  0.828561  0.078473  0.086419  1
  O  O159  1  0.872550  0.014168  0.413592  1
  O  O160  1  0.870510  0.014213  0.086492  1
  Si  Si161  1  0.999710  0.324624  0.641670  1
  Si  Si162  1  0.896291  0.184162  0.751066  1
  Si  Si163  1  0.603040  0.317425  0.251739  1
  O  O164  1  0.585083  0.160765  0.083152  1
  O  O165  1  0.583073  0.159698  0.415992  1
  Si  Si166  1  0.601892  0.133024  0.504727  1
  O  O167  1  0.752481  0.036985  0.526323  1
  O  O168  1  0.750804  0.036023  0.972558  1
  O  O169  1  0.656772  0.097510  0.474182  1
  O  O170  1  0.660742  0.098113  0.025013  1
  Si  Si171  1  0.757952  0.138530  0.857608  1
  Si  Si172  1  0.759468  0.138148  0.644402  1
  Si  Si173  1  0.893639  0.051381  0.360409  1
  Si  Si174  1  0.894350  0.050960  0.142184  1
  Si  Si175  1  0.753372  0.080237  0.502157  1
  Si  Si176  1  0.756337  0.077851  0.000461  1
  Si  Si177  1  0.605592  0.134330  0.994653  1
  Si  Si178  1  0.808278  0.000693  0.999361  1
  Si  Si179  1  0.810060  0.000882  0.499133  1
  Si  Si180  1  0.999539  0.324644  0.856420  1
  Si  Si181  1  0.500060  0.245413  0.247065  1
  O  O182  1  0.768345  0.628672  0.750068  1
  O  O183  1  0.770107  0.371655  0.248925  1
  O  O184  1  0.830498  0.650619  0.584471  1
  O  O185  1  0.830744  0.348855  0.414317  1
  O  O186  1  0.831124  0.650471  0.915528  1
  O  O187  1  0.832777  0.347895  0.084870  1
  O  O188  1  0.709048  0.603827  0.585228  1
  O  O189  1  0.707787  0.396139  0.414369  1
  O  O190  1  0.709222  0.603845  0.914921  1
  O  O191  1  0.708586  0.397108  0.085796  1
  O  O192  1  0.630261  0.547960  0.249582  1
  O  O193  1  0.631046  0.451876  0.749671  1
  O  O194  1  0.672668  0.578925  0.086349  1
  O  O195  1  0.672163  0.421434  0.914378  1
  O  O196  1  0.672343  0.578705  0.413671  1
  O  O197  1  0.671144  0.420213  0.586845  1
  O  O198  1  0.629244  0.514140  0.084683  1
  O  O199  1  0.628820  0.487013  0.911502  1
  O  O200  1  0.628590  0.513171  0.411740  1
  O  O201  1  0.629768  0.485904  0.584705  1
  O  O202  1  0.500123  0.440018  0.627689  1
  O  O203  1  0.999855  0.373116  0.464157  1
  O  O204  1  0.911857  0.338471  0.584226  1
  O  O205  1  0.914437  0.660300  0.414694  1
  O  O206  1  0.912585  0.338327  0.914773  1
  O  O207  1  0.914043  0.660081  0.085240  1
  O  O208  1  0.501212  0.333773  0.251908  1
  O  O209  1  0.748328  0.536470  0.973460  1
  O  O210  1  0.748311  0.463701  0.024109  1
  O  O211  1  0.748200  0.536599  0.524085  1
  O  O212  1  0.747174  0.463497  0.474235  1
  O  O213  1  0.841846  0.597529  0.027477  1
  O  O214  1  0.840455  0.400692  0.974949  1
  O  O215  1  0.841154  0.597881  0.471738  1
  O  O216  1  0.838967  0.401025  0.526427  1
  O  O217  1  0.999414  0.626126  0.535668  1
  Si  Si218  1  0.740443  0.639132  0.644006  1
  Si  Si219  1  0.740562  0.360907  0.355124  1
  Si  Si220  1  0.740790  0.639143  0.856223  1
  Si  Si221  1  0.744160  0.362009  0.140419  1
  Si  Si222  1  0.606353  0.551034  0.140778  1
  Si  Si223  1  0.607010  0.449773  0.859201  1
  Si  Si224  1  0.606826  0.550338  0.359075  1
  Si  Si225  1  0.607202  0.448688  0.640296  1
  Si  Si226  1  0.746082  0.579159  0.000877  1
  Si  Si227  1  0.744847  0.420874  0.000178  1
  Si  Si228  1  0.745823  0.579374  0.498856  1
  Si  Si229  1  0.742558  0.420891  0.501610  1
  Si  Si230  1  0.894476  0.633729  0.502546  1
  Si  Si231  1  0.895511  0.364801  0.497210  1
  Si  Si232  1  0.895339  0.633446  0.997167  1
  Si  Si233  1  0.896758  0.364110  0.003600  1
  Si  Si234  1  0.691124  0.499900  0.997415  1
  Si  Si235  1  0.691183  0.500393  0.497518  1
  O  O236  1  0.500332  0.440367  0.872138  1
  O  O237  1  0.999040  0.339762  0.749381  1
  O  O238  1  0.500158  0.559625  0.372291  1
  O  O239  1  0.500636  0.873690  0.036996  1
  O  O240  1  0.911420  0.773430  0.250187  1
  O  O241  1  0.585177  0.726078  0.750434  1
  O  O242  1  0.730309  0.872280  0.250880  1
  O  O243  1  0.668064  0.848521  0.086865  1
  O  O244  1  0.669163  0.848393  0.414735  1
  O  O245  1  0.791474  0.896514  0.084796  1
  O  O246  1  0.795530  0.896896  0.413846  1
  O  O247  1  0.837427  0.831948  0.162171  1
  O  O248  1  0.662191  0.668623  0.660425  1
  O  O249  1  0.662397  0.668601  0.840041  1
  O  O250  1  0.838449  0.832230  0.338221  1
  O  O251  1  0.869572  0.951212  0.749318  1
  O  O252  1  0.829872  0.919732  0.586635  1
  O  O253  1  0.829176  0.920313  0.912437  1
  O  O254  1  0.870935  0.985787  0.585822  1
  O  O255  1  0.870327  0.986046  0.913101  1
  O  O256  1  0.500819  0.668160  0.750233  1
  O  O257  1  0.585203  0.838851  0.916791  1
  O  O258  1  0.585100  0.838891  0.584083  1
  O  O259  1  0.754741  0.963824  0.474415  1
  O  O260  1  0.752930  0.963916  0.024211  1
  O  O261  1  0.662205  0.900891  0.523987  1
  O  O262  1  0.661498  0.901263  0.974070  1
  Si  Si263  1  0.606757  0.682850  0.750310  1
  Si  Si264  1  0.757096  0.861506  0.143632  1
  Si  Si265  1  0.758218  0.862209  0.358950  1
  Si  Si266  1  0.893071  0.948255  0.639919  1
  Si  Si267  1  0.893197  0.948639  0.858790  1
  Si  Si268  1  0.759760  0.920648  0.500155  1
  Si  Si269  1  0.757785  0.921355  0.997522  1
  Si  Si270  1  0.605547  0.865210  0.005181  1
  Si  Si271  1  0.605030  0.864817  0.495017  1
  Si  Si272  1  0.896575  0.816240  0.249774  1
  O  O273  1  0.998407  0.718718  0.161895  1
  Si  Si274  1  0.997835  0.746640  0.249593  1
  O  O275  1  0.999513  0.718725  0.337458  1
  O  O276  1  0.500345  0.873180  0.462876  1
