# generated using pymatgen
data_SiO2
_symmetry_space_group_name_H-M   'P 1'
_cell_length_a   12.60202875
_cell_length_b   12.60116802
_cell_length_c   26.04890713
_cell_angle_alpha   90.00000000
_cell_angle_beta   90.00000000
_cell_angle_gamma   90.00000000
_symmetry_Int_Tables_number   1
_chemical_formula_structural   SiO2
_chemical_formula_sum   'Si64 O128'
_cell_volume   4136.5737919
_cell_formula_units_Z   64
loop_
 _symmetry_equiv_pos_site_id
 _symmetry_equiv_pos_as_xyz
  1  'x, y, z'
loop_
 _atom_site_type_symbol
 _atom_site_label
 _atom_site_symmetry_multiplicity
 _atom_site_fract_x
 _atom_site_fract_y
 _atom_site_fract_z
 _atom_site_occupancy
  O  O1  1  0.185806  0.162490  0.187170  1
  O  O2  1  0.334551  0.028779  0.188065  1
  Si  Si3  1  0.524076  0.475869  0.125018  1
  O  O4  1  0.483323  0.162961  0.187873  1
  Si  Si5  1  0.144869  0.476425  0.125497  1
  O  O6  1  0.035446  0.491811  0.097117  1
  O  O7  1  0.159455  0.363437  0.150753  1
  O  O8  1  0.334709  0.295526  0.183668  1
  O  O9  1  0.189822  0.324170  0.246933  1
  O  O10  1  0.636156  0.490467  0.098836  1
  O  O11  1  0.509437  0.363808  0.151208  1
  O  O12  1  0.478798  0.324329  0.247835  1
  O  O13  1  0.163153  0.437166  0.331622  1
  O  O14  1  0.333829  0.334888  0.313420  1
  Si  Si15  1  0.457403  0.334262  0.307082  1
  O  O16  1  0.437176  0.496115  0.082717  1
  Si  Si17  1  0.457350  0.285457  0.191222  1
  O  O18  1  0.234399  0.497157  0.084993  1
  Si  Si19  1  0.210408  0.334583  0.306169  1
  Si  Si20  1  0.211670  0.040595  0.194066  1
  Si  Si21  1  0.457359  0.040851  0.194071  1
  Si  Si22  1  0.211909  0.284872  0.190538  1
  O  O23  1  0.503866  0.436937  0.332737  1
  O  O24  1  0.162671  0.185653  0.562886  1
  O  O25  1  0.837432  0.185650  0.437171  1
  O  O26  1  0.000064  0.186785  0.500027  1
  O  O27  1  0.160201  0.035930  0.346797  1
  O  O28  1  0.963993  0.160004  0.596784  1
  O  O29  1  0.839870  0.035973  0.653273  1
  O  O30  1  0.036110  0.160016  0.403269  1
  O  O31  1  0.028972  0.334371  0.561989  1
  O  O32  1  0.971134  0.334374  0.438057  1
  O  O33  1  0.000042  0.482047  0.500021  1
  O  O34  1  0.508121  0.035252  0.347152  1
  O  O35  1  0.491907  0.035271  0.652894  1
  O  O36  1  0.363604  0.159301  0.599290  1
  O  O37  1  0.636501  0.159308  0.400764  1
  O  O38  1  0.295719  0.334553  0.566391  1
  O  O39  1  0.704391  0.334552  0.433664  1
  O  O40  1  0.324367  0.189666  0.503125  1
  O  O41  1  0.675740  0.189651  0.496935  1
  O  O42  1  0.324517  0.478637  0.502208  1
  O  O43  1  0.675587  0.478627  0.497828  1
  O  O44  1  0.562787  0.162920  0.581645  1
  O  O45  1  0.437341  0.162975  0.418427  1
  O  O46  1  0.664996  0.333638  0.563427  1
  O  O47  1  0.335095  0.333654  0.436624  1
  O  O48  1  0.764881  0.163672  0.584093  1
  O  O49  1  0.235239  0.163666  0.415958  1
  Si  Si50  1  0.040794  0.211477  0.555990  1
  Si  Si51  1  0.959310  0.211483  0.444068  1
  Si  Si52  1  0.041065  0.457179  0.555943  1
  Si  Si53  1  0.959021  0.457183  0.444099  1
  Si  Si54  1  0.285029  0.211732  0.559512  1
  Si  Si55  1  0.715070  0.211731  0.440549  1
  Si  Si56  1  0.285594  0.457212  0.558809  1
  Si  Si57  1  0.714496  0.457215  0.441224  1
  Si  Si58  1  0.665321  0.210210  0.556171  1
  Si  Si59  1  0.334779  0.210230  0.443889  1
  Si  Si60  1  0.665664  0.457220  0.557073  1
  Si  Si61  1  0.334451  0.457237  0.442964  1
  Si  Si62  1  0.476608  0.144709  0.624524  1
  Si  Si63  1  0.523488  0.144722  0.375539  1
  Si  Si64  1  0.145886  0.145706  0.375033  1
  Si  Si65  1  0.854222  0.145723  0.625024  1
  O  O66  1  0.163117  0.483166  0.562171  1
  O  O67  1  0.836968  0.483172  0.437867  1
  O  O68  1  0.502705  0.234155  0.334992  1
  O  O69  1  0.497377  0.234174  0.665057  1
  O  O70  1  0.836280  0.235077  0.665951  1
  O  O71  1  0.163838  0.235033  0.334093  1
  O  O72  1  0.814297  0.162543  0.812893  1
  Si  Si73  1  0.476015  0.475841  0.875018  1
  O  O74  1  0.665598  0.028827  0.812034  1
  O  O75  1  0.516733  0.162969  0.812151  1
  Si  Si76  1  0.855201  0.476469  0.874541  1
  Si  Si77  1  0.542687  0.334295  0.692952  1
  O  O78  1  0.964667  0.491734  0.902902  1
  O  O79  1  0.840608  0.363474  0.849291  1
  O  O80  1  0.665364  0.295558  0.816380  1
  O  O81  1  0.810251  0.324203  0.753113  1
  O  O82  1  0.490612  0.363753  0.848837  1
  O  O83  1  0.363955  0.490490  0.901207  1
  O  O84  1  0.521278  0.324381  0.752199  1
  O  O85  1  0.836925  0.437211  0.668430  1
  O  O86  1  0.666268  0.334906  0.686623  1
  Si  Si87  1  0.789689  0.334614  0.693877  1
  O  O88  1  0.562967  0.496044  0.917294  1
  Si  Si89  1  0.788171  0.284912  0.809508  1
  O  O90  1  0.765689  0.497260  0.915048  1
  Si  Si91  1  0.542722  0.285461  0.808805  1
  Si  Si92  1  0.788480  0.040643  0.806016  1
  Si  Si93  1  0.542788  0.040874  0.805988  1
  O  O94  1  0.496223  0.436956  0.667288  1
  O  O95  1  0.837347  0.814137  0.062857  1
  O  O96  1  0.185841  0.837220  0.312865  1
  O  O97  1  0.186964  0.999879  0.250037  1
  O  O98  1  0.036040  0.839775  0.096795  1
  O  O99  1  0.160159  0.963791  0.153273  1
  O  O100  1  0.971078  0.665421  0.062042  1
  O  O101  1  0.334573  0.970946  0.311988  1
  O  O102  1  0.483369  0.836784  0.312173  1
  O  O103  1  0.508089  0.964489  0.152884  1
  O  O104  1  0.636441  0.840430  0.099266  1
  O  O105  1  0.704359  0.665205  0.066354  1
  O  O106  1  0.334746  0.704186  0.316366  1
  O  O107  1  0.675661  0.810110  0.003089  1
  O  O108  1  0.189822  0.675518  0.253098  1
  O  O109  1  0.675538  0.521126  0.002199  1
  O  O110  1  0.478789  0.675416  0.252192  1
  O  O111  1  0.437289  0.836787  0.081606  1
  O  O112  1  0.163079  0.562584  0.168388  1
  O  O113  1  0.335051  0.666104  0.063403  1
  O  O114  1  0.333780  0.664772  0.186608  1
  O  O115  1  0.235187  0.836107  0.084087  1
  O  O116  1  0.163809  0.764714  0.165952  1
  O  O117  1  0.503862  0.562795  0.167309  1
  O  O118  1  0.502640  0.765572  0.165038  1
  Si  Si119  1  0.959227  0.788313  0.056007  1
  Si  Si120  1  0.211691  0.959122  0.305999  1
  Si  Si121  1  0.958974  0.542602  0.055993  1
  Si  Si122  1  0.457381  0.958888  0.305970  1
  Si  Si123  1  0.715000  0.788036  0.059473  1
  Si  Si124  1  0.211947  0.714844  0.309487  1
  Si  Si125  1  0.714444  0.542531  0.058800  1
  Si  Si126  1  0.457385  0.714287  0.308808  1
  Si  Si127  1  0.334719  0.789532  0.056147  1
  Si  Si128  1  0.210357  0.665132  0.193859  1
  Si  Si129  1  0.334467  0.542519  0.057073  1
  Si  Si130  1  0.457356  0.665461  0.192950  1
  Si  Si131  1  0.523437  0.855013  0.124498  1
  Si  Si132  1  0.145836  0.854046  0.125018  1
  O  O133  1  0.836903  0.516562  0.062160  1
  O  O134  1  0.482184  0.999855  0.250018  1
  O  O135  1  0.000035  0.812976  0.000052  1
  O  O136  1  0.000134  0.517752  0.000114  1
  Si  Si137  1  0.476029  0.523887  0.624996  1
  Si  Si138  1  0.524066  0.523876  0.375024  1
  O  O139  1  0.964638  0.507930  0.597095  1
  O  O140  1  0.035456  0.507935  0.402951  1
  O  O141  1  0.159489  0.636302  0.349283  1
  O  O142  1  0.840630  0.636334  0.650754  1
  O  O143  1  0.509464  0.635938  0.348825  1
  O  O144  1  0.363955  0.509275  0.598814  1
  O  O145  1  0.490652  0.635948  0.651196  1
  O  O146  1  0.636136  0.509260  0.401213  1
  O  O147  1  0.562989  0.503688  0.582720  1
  O  O148  1  0.437107  0.503705  0.417302  1
  O  O149  1  0.765752  0.502531  0.584990  1
  O  O150  1  0.234349  0.502518  0.415051  1
  Si  Si151  1  0.144861  0.523289  0.374530  1
  Si  Si152  1  0.855233  0.523314  0.625515  1
  O  O153  1  0.162633  0.814044  0.937160  1
  O  O154  1  0.814227  0.837290  0.687181  1
  O  O155  1  0.517929  0.999732  0.750098  1
  O  O156  1  0.839979  0.963821  0.846800  1
  O  O157  1  0.963982  0.839648  0.903273  1
  O  O158  1  0.028940  0.665313  0.938100  1
  O  O159  1  0.665530  0.970985  0.688097  1
  O  O160  1  0.516776  0.836778  0.687866  1
  O  O161  1  0.163108  0.516570  0.937869  1
  O  O162  1  0.491907  0.964395  0.847091  1
  O  O163  1  0.363561  0.840434  0.900744  1
  O  O164  1  0.295715  0.665181  0.933655  1
  O  O165  1  0.665381  0.704229  0.683660  1
  O  O166  1  0.324293  0.810122  0.996912  1
  O  O167  1  0.810279  0.675587  0.746932  1
  O  O168  1  0.324548  0.521109  0.997827  1
  O  O169  1  0.521298  0.675356  0.747818  1
  O  O170  1  0.837044  0.562632  0.831642  1
  O  O171  1  0.562746  0.836835  0.918368  1
  O  O172  1  0.666296  0.664800  0.813411  1
  O  O173  1  0.664930  0.666134  0.936601  1
  O  O174  1  0.836243  0.764731  0.834081  1
  O  O175  1  0.764867  0.836101  0.915945  1
  O  O176  1  0.496265  0.562716  0.832702  1
  O  O177  1  0.497339  0.765488  0.834979  1
  Si  Si178  1  0.040761  0.788222  0.944090  1
  Si  Si179  1  0.788404  0.959176  0.694078  1
  Si  Si180  1  0.041028  0.542506  0.944137  1
  Si  Si181  1  0.542703  0.958883  0.694112  1
  Si  Si182  1  0.284996  0.787997  0.940525  1
  Si  Si183  1  0.788174  0.714904  0.690541  1
  Si  Si184  1  0.285593  0.542526  0.941224  1
  Si  Si185  1  0.542740  0.714285  0.691213  1
  Si  Si186  1  0.789724  0.665155  0.806165  1
  Si  Si187  1  0.665285  0.789565  0.943851  1
  Si  Si188  1  0.542713  0.665418  0.807063  1
  Si  Si189  1  0.665592  0.542554  0.942960  1
  Si  Si190  1  0.476552  0.854995  0.875490  1
  Si  Si191  1  0.854237  0.854030  0.875027  1
  O  O192  1  0.813134  0.999905  0.750044  1
